untitled-dbase-1143_22
  -OEChem-06042309053D

 20 20  0     0  0  0  0  0  0999 V2000
   -4.7617   12.6613  -30.3308 C   0  0  0  0  0  0  0  0  0  0  0  0
   -5.0936   10.9283  -31.9812 C   0  0  0  0  0  0  0  0  0  0  0  0
   -5.6996   12.0491  -29.4994 C   0  0  0  0  0  0  0  0  0  0  0  0
   -6.3345   10.8765  -29.9088 C   0  0  0  0  0  0  0  0  0  0  0  0
   -4.4587   12.1009  -31.5717 C   0  0  0  0  0  0  0  0  0  0  0  0
   -6.0315   10.3161  -31.1498 C   0  0  0  0  0  0  0  0  0  0  0  0
   -6.0092   12.6658  -28.1748 C   0  0  0  0  0  0  0  0  0  0  0  0
   -5.7627   11.7189  -26.9996 C   0  0  0  0  0  0  0  0  0  0  0  0
   -7.2499   10.2896  -29.0842 O   0  0  0  0  0  0  0  0  0  0  0  0
   -6.1136   12.3655  -25.7828 O   0  0  0  0  0  0  0  0  0  0  0  0
   -3.3015   12.8568  -32.5973 Cl  0  0  0  0  0  0  0  0  0  0  0  0
   -6.8733    8.7236  -31.7414 Br  0  0  0  0  0  0  0  0  0  0  0  0
   -4.2684   13.5755  -30.0075 H   0  0  0  0  0  0  0  0  0  0  0  0
   -4.8548   10.4948  -32.9499 H   0  0  0  0  0  0  0  0  0  0  0  0
   -5.4104   13.5786  -28.0360 H   0  0  0  0  0  0  0  0  0  0  0  0
   -7.0624   12.9831  -28.1550 H   0  0  0  0  0  0  0  0  0  0  0  0
   -6.3899   10.8270  -27.0980 H   0  0  0  0  0  0  0  0  0  0  0  0
   -4.7143   11.4077  -26.9444 H   0  0  0  0  0  0  0  0  0  0  0  0
   -7.6054    9.4887  -29.4984 H   0  0  0  0  0  0  0  0  0  0  0  0
   -5.9415   11.7304  -25.0691 H   0  0  0  0  0  0  0  0  0  0  0  0
  1  3  2  0  0  0  0
  1  5  1  0  0  0  0
  2  5  2  0  0  0  0
  2  6  1  0  0  0  0
  3  4  1  0  0  0  0
  3  7  1  0  0  0  0
  4  6  2  0  0  0  0
  4  9  1  0  0  0  0
  5 11  1  0  0  0  0
  6 12  1  0  0  0  0
  7  8  1  0  0  0  0
  8 10  1  0  0  0  0
  1 13  1  0  0  0  0
  2 14  1  0  0  0  0
  7 15  1  0  0  0  0
  7 16  1  0  0  0  0
  8 17  1  0  0  0  0
  8 18  1  0  0  0  0
  9 19  1  0  0  0  0
 10 20  1  0  0  0  0
M  END
> <id>
EN300-1922585

> <smiles>
OCCC=1C=C(Cl)C=C(Br)C1O

> <IUPAC Name>
2-bromo-4-chloro-6-(2-hydroxyethyl)phenol

> <CAS>
1260169-11-6

> <URL>
https://www.enaminestore.com/catalog/EN300-1922585

> <ROCS_ShapeQuery>
_x1604L0AP1_x0771L0AP1

> <ROCS_TanimotoCombo>
1.029 

> <ROCS_ShapeTanimoto>
0.450 

> <ROCS_ColorTanimoto>
0.579 

> <ROCS_RefTversky>
0.412 

> <ROCS_RefColorTversky>
0.569 

> <ROCS_RefTverskyCombo>
0.981 

> <ROCS_FitTversky>
1.257 

> <ROCS_FitColorTversky>
1.033 

> <ROCS_FitTverskyCombo>
2.290 

> <ROCS_ColorScore>
-6.492

> <ROCS_Overlap>
697.373

> <ROCS_Rank>
1                   

$$$$
untitled-dbase-663_26
  -OEChem-06042309053D

 26 26  0     1  0  0  0  0  0999 V2000
   -5.1237   11.3739  -31.8770 C   0  0  0  0  0  0  0  0  0  0  0  0
   -4.4359   12.3063  -29.7570 C   0  0  0  0  0  0  0  0  0  0  0  0
   -6.1080   10.6274  -31.2294 C   0  0  0  0  0  0  0  0  0  0  0  0
   -6.2563   10.7203  -29.8455 C   0  0  0  0  0  0  0  0  0  0  0  0
   -4.2876   12.2133  -31.1408 C   0  0  0  0  0  0  0  0  0  0  0  0
   -5.4202   11.5598  -29.1093 C   0  0  0  0  0  0  0  0  0  0  0  0
   -7.6128    8.6300  -35.0086 C   0  0  0  0  0  0  0  0  0  0  0  0
   -7.0010    9.7262  -32.0444 C   0  0  0  0  0  0  0  0  0  0  0  0
   -6.2363    8.7042  -32.8982 C   0  0  0  0  0  0  0  0  0  0  0  0
   -7.1341    7.8430  -33.7952 C   0  0  2  0  0  0  0  0  0  0  0  0
   -7.2239    9.9834  -29.2264 O   0  0  0  0  0  0  0  0  0  0  0  0
   -6.3989    6.7082  -34.2435 O   0  0  0  0  0  0  0  0  0  0  0  0
   -3.0730   13.1342  -31.9405 Cl  0  0  0  0  0  0  0  0  0  0  0  0
   -5.5907   11.7128  -27.2272 Br  0  0  0  0  0  0  0  0  0  0  0  0
   -5.0116   11.2989  -32.9566 H   0  0  0  0  0  0  0  0  0  0  0  0
   -3.7815   12.9617  -29.1865 H   0  0  0  0  0  0  0  0  0  0  0  0
   -6.7652    9.0042  -35.5934 H   0  0  0  0  0  0  0  0  0  0  0  0
   -8.2446    8.0155  -35.6570 H   0  0  0  0  0  0  0  0  0  0  0  0
   -8.1881    9.5072  -34.6932 H   0  0  0  0  0  0  0  0  0  0  0  0
   -7.7172    9.2120  -31.3916 H   0  0  0  0  0  0  0  0  0  0  0  0
   -7.6095   10.3571  -32.7055 H   0  0  0  0  0  0  0  0  0  0  0  0
   -5.6294    8.0557  -32.2545 H   0  0  0  0  0  0  0  0  0  0  0  0
   -5.5403    9.2690  -33.5322 H   0  0  0  0  0  0  0  0  0  0  0  0
   -8.0036    7.4843  -33.2339 H   0  0  0  0  0  0  0  0  0  0  0  0
   -7.2085   10.1492  -28.2716 H   0  0  0  0  0  0  0  0  0  0  0  0
   -7.0065    6.1812  -34.7856 H   0  0  0  0  0  0  0  0  0  0  0  0
  1  3  2  0  0  0  0
  1  5  1  0  0  0  0
  2  5  2  0  0  0  0
  2  6  1  0  0  0  0
  3  4  1  0  0  0  0
  3  8  1  0  0  0  0
  4  6  2  0  0  0  0
  4 11  1  0  0  0  0
  5 13  1  0  0  0  0
  6 14  1  0  0  0  0
  7 10  1  1  0  0  0
  8  9  1  0  0  0  0
  9 10  1  0  0  0  0
 10 12  1  0  0  0  0
  1 15  1  0  0  0  0
  2 16  1  0  0  0  0
  7 17  1  0  0  0  0
  7 18  1  0  0  0  0
  7 19  1  0  0  0  0
  8 20  1  0  0  0  0
  8 21  1  0  0  0  0
  9 22  1  0  0  0  0
  9 23  1  0  0  0  0
 10 24  1  0  0  0  0
 11 25  1  0  0  0  0
 12 26  1  0  0  0  0
M  END
> <id>
EN300-1922586

> <smiles>
C[C@@H](O)CCC=1C=C(Cl)C=C(Br)C1O

> <IUPAC Name>
2-bromo-4-chloro-6-[(3R)-3-hydroxybutyl]phenol

> <CAS>
2227695-21-6

> <URL>
https://www.enaminestore.com/catalog/EN300-1922586

> <ROCS_ShapeQuery>
_x1604L0AP1_x0771L0AP1

> <ROCS_TanimotoCombo>
1.018 

> <ROCS_ShapeTanimoto>
0.562 

> <ROCS_ColorTanimoto>
0.456 

> <ROCS_RefTversky>
0.494 

> <ROCS_RefColorTversky>
0.485 

> <ROCS_RefTverskyCombo>
0.979 

> <ROCS_FitTversky>
1.327 

> <ROCS_FitColorTversky>
0.882 

> <ROCS_FitTverskyCombo>
2.209 

> <ROCS_ColorScore>
-5.542

> <ROCS_Overlap>
837.283

> <ROCS_Rank>
2                   

$$$$
untitled-dbase-828_5
  -OEChem-06042309053D

 23 23  0     1  0  0  0  0  0999 V2000
   -4.8654   12.7233  -30.2483 C   0  0  0  0  0  0  0  0  0  0  0  0
   -5.0380   10.9676  -31.8990 C   0  0  0  0  0  0  0  0  0  0  0  0
   -5.8196   12.0778  -29.4619 C   0  0  0  0  0  0  0  0  0  0  0  0
   -6.3830   10.8772  -29.8940 C   0  0  0  0  0  0  0  0  0  0  0  0
   -4.4747   12.1683  -31.4669 C   0  0  0  0  0  0  0  0  0  0  0  0
   -5.9922   10.3221  -31.1125 C   0  0  0  0  0  0  0  0  0  0  0  0
   -4.0393   12.9778  -26.9018 C   0  0  0  0  0  0  0  0  0  0  0  0
   -6.2237   12.6894  -28.1606 C   0  0  0  0  0  0  0  0  0  0  0  0
   -5.3542   12.2127  -26.9828 C   0  0  2  0  0  0  0  0  0  0  0  0
   -7.3154   10.2577  -29.1133 O   0  0  0  0  0  0  0  0  0  0  0  0
   -6.0600   12.4001  -25.7574 O   0  0  0  0  0  0  0  0  0  0  0  0
   -3.2973   12.9654  -32.4370 Cl  0  0  0  0  0  0  0  0  0  0  0  0
   -6.7351    8.6921  -31.7338 Br  0  0  0  0  0  0  0  0  0  0  0  0
   -4.4280   13.6594  -29.9074 H   0  0  0  0  0  0  0  0  0  0  0  0
   -4.7309   10.5384  -32.8501 H   0  0  0  0  0  0  0  0  0  0  0  0
   -4.2155   14.0551  -26.8084 H   0  0  0  0  0  0  0  0  0  0  0  0
   -3.4386   12.6459  -26.0495 H   0  0  0  0  0  0  0  0  0  0  0  0
   -3.4563   12.8324  -27.8177 H   0  0  0  0  0  0  0  0  0  0  0  0
   -6.1775   13.7894  -28.2332 H   0  0  0  0  0  0  0  0  0  0  0  0
   -7.2811   12.4494  -27.9588 H   0  0  0  0  0  0  0  0  0  0  0  0
   -5.1382   11.1426  -27.0751 H   0  0  0  0  0  0  0  0  0  0  0  0
   -7.6152    9.4401  -29.5387 H   0  0  0  0  0  0  0  0  0  0  0  0
   -6.8887   11.9037  -25.8388 H   0  0  0  0  0  0  0  0  0  0  0  0
  1  3  2  0  0  0  0
  1  5  1  0  0  0  0
  2  5  2  0  0  0  0
  2  6  1  0  0  0  0
  3  4  1  0  0  0  0
  3  8  1  0  0  0  0
  4  6  2  0  0  0  0
  4 10  1  0  0  0  0
  5 12  1  0  0  0  0
  6 13  1  0  0  0  0
  7  9  1  6  0  0  0
  8  9  1  0  0  0  0
  9 11  1  0  0  0  0
  1 14  1  0  0  0  0
  2 15  1  0  0  0  0
  7 16  1  0  0  0  0
  7 17  1  0  0  0  0
  7 18  1  0  0  0  0
  8 19  1  0  0  0  0
  8 20  1  0  0  0  0
  9 21  1  0  0  0  0
 10 22  1  0  0  0  0
 11 23  1  0  0  0  0
M  END
> <id>
EN300-1922603

> <smiles>
C[C@@H](O)CC=1C=C(Cl)C=C(Br)C1O

> <IUPAC Name>
2-bromo-4-chloro-6-[(2R)-2-hydroxypropyl]phenol

> <CAS>
2227696-46-8

> <URL>
https://www.enaminestore.com/catalog/EN300-1922603

> <ROCS_ShapeQuery>
_x1604L0AP1_x0771L0AP1

> <ROCS_TanimotoCombo>
1.012 

> <ROCS_ShapeTanimoto>
0.439 

> <ROCS_ColorTanimoto>
0.573 

> <ROCS_RefTversky>
0.412 

> <ROCS_RefColorTversky>
0.565 

> <ROCS_RefTverskyCombo>
0.977 

> <ROCS_FitTversky>
1.175 

> <ROCS_FitColorTversky>
1.026 

> <ROCS_FitTverskyCombo>
2.200 

> <ROCS_ColorScore>
-6.447

> <ROCS_Overlap>
698.105

> <ROCS_Rank>
3                   

$$$$
untitled-dbase-224_63
  -OEChem-06042309053D

 23 23  0     0  0  0  0  0  0999 V2000
   -5.1623   10.9078  -31.9677 C   0  0  0  0  0  0  0  0  0  0  0  0
   -4.5183   12.3121  -30.1102 C   0  0  0  0  0  0  0  0  0  0  0  0
   -6.1295   10.2963  -31.1701 C   0  0  0  0  0  0  0  0  0  0  0  0
   -6.2911   10.6927  -29.8426 C   0  0  0  0  0  0  0  0  0  0  0  0
   -4.3567   11.9157  -31.4378 C   0  0  0  0  0  0  0  0  0  0  0  0
   -5.4855   11.7006  -29.3126 C   0  0  0  0  0  0  0  0  0  0  0  0
   -6.9814    9.2193  -31.7574 C   0  0  0  0  0  0  0  0  0  0  0  0
   -6.2321    8.4102  -32.8239 C   0  0  0  0  0  0  0  0  0  0  0  0
   -7.1140    7.3439  -33.4586 C   0  0  0  0  0  0  0  0  0  0  0  0
   -7.2417   10.0847  -29.0749 O   0  0  0  0  0  0  0  0  0  0  0  0
   -6.3507    6.6291  -34.4204 O   0  0  0  0  0  0  0  0  0  0  0  0
   -3.1632   12.6698  -32.4224 Cl  0  0  0  0  0  0  0  0  0  0  0  0
   -5.6749   12.2665  -27.5130 Br  0  0  0  0  0  0  0  0  0  0  0  0
   -5.0398   10.5961  -33.0029 H   0  0  0  0  0  0  0  0  0  0  0  0
   -3.8877   13.0981  -29.7007 H   0  0  0  0  0  0  0  0  0  0  0  0
   -7.8927    9.6499  -32.2045 H   0  0  0  0  0  0  0  0  0  0  0  0
   -7.3361    8.5358  -30.9683 H   0  0  0  0  0  0  0  0  0  0  0  0
   -5.3448    7.9338  -32.3865 H   0  0  0  0  0  0  0  0  0  0  0  0
   -5.8484    9.0771  -33.6073 H   0  0  0  0  0  0  0  0  0  0  0  0
   -7.4750    6.6363  -32.7052 H   0  0  0  0  0  0  0  0  0  0  0  0
   -7.9732    7.7973  -33.9630 H   0  0  0  0  0  0  0  0  0  0  0  0
   -7.2385   10.4607  -28.1816 H   0  0  0  0  0  0  0  0  0  0  0  0
   -6.9397    5.9597  -34.8049 H   0  0  0  0  0  0  0  0  0  0  0  0
  1  3  2  0  0  0  0
  1  5  1  0  0  0  0
  2  5  2  0  0  0  0
  2  6  1  0  0  0  0
  3  4  1  0  0  0  0
  3  7  1  0  0  0  0
  4  6  2  0  0  0  0
  4 10  1  0  0  0  0
  5 12  1  0  0  0  0
  6 13  1  0  0  0  0
  7  8  1  0  0  0  0
  8  9  1  0  0  0  0
  9 11  1  0  0  0  0
  1 14  1  0  0  0  0
  2 15  1  0  0  0  0
  7 16  1  0  0  0  0
  7 17  1  0  0  0  0
  8 18  1  0  0  0  0
  8 19  1  0  0  0  0
  9 20  1  0  0  0  0
  9 21  1  0  0  0  0
 10 22  1  0  0  0  0
 11 23  1  0  0  0  0
M  END
> <id>
EN300-1913192

> <smiles>
OCCCC=1C=C(Cl)C=C(Br)C1O

> <MDLNUMBER>
MFCD09926808

> <IUPAC Name>
2-bromo-4-chloro-6-(3-hydroxypropyl)phenol

> <CAS>
1000536-63-9

> <URL>
https://www.enaminestore.com/catalog/EN300-1913192

> <ROCS_ShapeQuery>
_x1604L0AP1_x0771L0AP1

> <ROCS_TanimotoCombo>
1.005 

> <ROCS_ShapeTanimoto>
0.520 

> <ROCS_ColorTanimoto>
0.484 

> <ROCS_RefTversky>
0.461 

> <ROCS_RefColorTversky>
0.506 

> <ROCS_RefTverskyCombo>
0.967 

> <ROCS_FitTversky>
1.326 

> <ROCS_FitColorTversky>
0.919 

> <ROCS_FitTverskyCombo>
2.244 

> <ROCS_ColorScore>
-5.774

> <ROCS_Overlap>
781.656

> <ROCS_Rank>
4                   

$$$$
untitled-dbase-472_109
  -OEChem-06042309053D

 21 21  0     0  0  0  0  0  0999 V2000
   -5.0631   11.1942  -31.9071 C   0  0  0  0  0  0  0  0  0  0  0  0
   -4.5118   12.3626  -29.8655 C   0  0  0  0  0  0  0  0  0  0  0  0
   -6.0461   10.4734  -31.2291 C   0  0  0  0  0  0  0  0  0  0  0  0
   -6.2620   10.6971  -29.8694 C   0  0  0  0  0  0  0  0  0  0  0  0
   -4.2959   12.1389  -31.2253 C   0  0  0  0  0  0  0  0  0  0  0  0
   -5.4949   11.6418  -29.1875 C   0  0  0  0  0  0  0  0  0  0  0  0
   -6.8319    9.4931  -31.9673 C   0  0  0  0  0  0  0  0  0  0  0  0
   -6.4000    8.7671  -33.0217 C   0  0  0  0  0  0  0  0  0  0  0  0
   -7.2402    7.7597  -33.7390 C   0  0  0  0  0  0  0  0  0  0  0  0
   -7.2259    9.9882  -29.2105 O   0  0  0  0  0  0  0  0  0  0  0  0
   -6.3955    6.7294  -34.2325 O   0  0  0  0  0  0  0  0  0  0  0  0
   -3.0830   13.0283  -32.0619 Cl  0  0  0  0  0  0  0  0  0  0  0  0
   -5.7573   11.9754  -27.3394 Br  0  0  0  0  0  0  0  0  0  0  0  0
   -4.8927   11.0222  -32.9681 H   0  0  0  0  0  0  0  0  0  0  0  0
   -3.9108   13.1002  -29.3373 H   0  0  0  0  0  0  0  0  0  0  0  0
   -7.8548    9.3252  -31.6159 H   0  0  0  0  0  0  0  0  0  0  0  0
   -5.3820    8.8827  -33.3839 H   0  0  0  0  0  0  0  0  0  0  0  0
   -7.9612    7.3176  -33.0444 H   0  0  0  0  0  0  0  0  0  0  0  0
   -7.7847    8.1975  -34.5817 H   0  0  0  0  0  0  0  0  0  0  0  0
   -7.6646    9.3779  -29.8219 H   0  0  0  0  0  0  0  0  0  0  0  0
   -5.9559    6.3339  -33.4623 H   0  0  0  0  0  0  0  0  0  0  0  0
  1  3  2  0  0  0  0
  1  5  1  0  0  0  0
  2  5  2  0  0  0  0
  2  6  1  0  0  0  0
  3  4  1  0  0  0  0
  3  7  1  0  0  0  0
  4  6  2  0  0  0  0
  4 10  1  0  0  0  0
  5 12  1  0  0  0  0
  6 13  1  0  0  0  0
  7  8  2  3  0  0  0
  8  9  1  0  0  0  0
  9 11  1  0  0  0  0
  1 14  1  0  0  0  0
  2 15  1  0  0  0  0
  7 16  1  0  0  0  0
  8 17  1  0  0  0  0
  9 18  1  0  0  0  0
  9 19  1  0  0  0  0
 10 20  1  0  0  0  0
 11 21  1  0  0  0  0
M  END
> <id>
EN300-1912013

> <smiles>
OCC=CC=1C=C(Cl)C=C(Br)C1O

> <IUPAC Name>
2-bromo-4-chloro-6-(3-hydroxyprop-1-en-1-yl)phenol

> <CAS>
1216374-66-1

> <URL>
https://www.enaminestore.com/catalog/EN300-1912013

> <ROCS_ShapeQuery>
_x1604L0AP1_x0771L0AP1

> <ROCS_TanimotoCombo>
1.002 

> <ROCS_ShapeTanimoto>
0.549 

> <ROCS_ColorTanimoto>
0.453 

> <ROCS_RefTversky>
0.479 

> <ROCS_RefColorTversky>
0.484 

> <ROCS_RefTverskyCombo>
0.963 

> <ROCS_FitTversky>
1.364 

> <ROCS_FitColorTversky>
0.879 

> <ROCS_FitTverskyCombo>
2.242 

> <ROCS_ColorScore>
-5.522

> <ROCS_Overlap>
811.299

> <ROCS_Rank>
5                   

$$$$
untitled-dbase-1272_22
  -OEChem-06042309053D

 20 20  0     0  0  0  0  0  0999 V2000
   -4.4702   12.1094  -31.5774 C   0  0  0  0  0  0  0  0  0  0  0  0
   -4.7724   12.6690  -30.3360 C   0  0  0  0  0  0  0  0  0  0  0  0
   -5.1018   10.9344  -31.9851 C   0  0  0  0  0  0  0  0  0  0  0  0
   -5.7061   12.0536  -29.5022 C   0  0  0  0  0  0  0  0  0  0  0  0
   -6.3376   10.8786  -29.9099 C   0  0  0  0  0  0  0  0  0  0  0  0
   -6.0354   10.3190  -31.1513 C   0  0  0  0  0  0  0  0  0  0  0  0
   -6.0140   12.6691  -28.1768 C   0  0  0  0  0  0  0  0  0  0  0  0
   -5.7612   11.7229  -27.0023 C   0  0  0  0  0  0  0  0  0  0  0  0
   -7.2477   10.2874  -29.0823 O   0  0  0  0  0  0  0  0  0  0  0  0
   -6.1108   12.3683  -25.7845 O   0  0  0  0  0  0  0  0  0  0  0  0
   -6.8727    8.7239  -31.7420 Br  0  0  0  0  0  0  0  0  0  0  0  0
   -3.7436   12.5887  -32.2268 H   0  0  0  0  0  0  0  0  0  0  0  0
   -4.2775   13.5860  -30.0273 H   0  0  0  0  0  0  0  0  0  0  0  0
   -4.8537   10.5133  -32.9561 H   0  0  0  0  0  0  0  0  0  0  0  0
   -5.4177   13.5839  -28.0394 H   0  0  0  0  0  0  0  0  0  0  0  0
   -7.0681   12.9831  -28.1539 H   0  0  0  0  0  0  0  0  0  0  0  0
   -6.3859   10.8290  -27.0991 H   0  0  0  0  0  0  0  0  0  0  0  0
   -4.7117   11.4150  -26.9501 H   0  0  0  0  0  0  0  0  0  0  0  0
   -7.6014    9.4852  -29.4956 H   0  0  0  0  0  0  0  0  0  0  0  0
   -5.9348   11.7337  -25.0713 H   0  0  0  0  0  0  0  0  0  0  0  0
  1  2  1  0  0  0  0
  1  3  2  0  0  0  0
  2  4  2  0  0  0  0
  3  6  1  0  0  0  0
  4  5  1  0  0  0  0
  4  7  1  0  0  0  0
  5  6  2  0  0  0  0
  5  9  1  0  0  0  0
  6 11  1  0  0  0  0
  7  8  1  0  0  0  0
  8 10  1  0  0  0  0
  1 12  1  0  0  0  0
  2 13  1  0  0  0  0
  3 14  1  0  0  0  0
  7 15  1  0  0  0  0
  7 16  1  0  0  0  0
  8 17  1  0  0  0  0
  8 18  1  0  0  0  0
  9 19  1  0  0  0  0
 10 20  1  0  0  0  0
M  END
> <id>
EN300-1923122

> <smiles>
OCCC=1C=CC=C(Br)C1O

> <MDLNUMBER>
MFCD33420479

> <IUPAC Name>
2-bromo-6-(2-hydroxyethyl)phenol

> <CAS>
1523358-30-6

> <URL>
https://www.enaminestore.com/catalog/EN300-1923122

> <ROCS_ShapeQuery>
_x1604L0AP1_x0771L0AP1

> <ROCS_TanimotoCombo>
1.001 

> <ROCS_ShapeTanimoto>
0.422 

> <ROCS_ColorTanimoto>
0.579 

> <ROCS_RefTversky>
0.388 

> <ROCS_RefColorTversky>
0.569 

> <ROCS_RefTverskyCombo>
0.957 

> <ROCS_FitTversky>
1.260 

> <ROCS_FitColorTversky>
1.033 

> <ROCS_FitTverskyCombo>
2.293 

> <ROCS_ColorScore>
-6.493

> <ROCS_Overlap>
656.361

> <ROCS_Rank>
6                   

$$$$
untitled-dbase-1009_134
  -OEChem-06042309053D

 20 20  0     0  0  0  0  0  0999 V2000
   -4.6127   12.5839  -30.4515 C   0  0  0  0  0  0  0  0  0  0  0  0
   -5.1638   10.8740  -32.0669 C   0  0  0  0  0  0  0  0  0  0  0  0
   -5.5203   12.0260  -29.5512 C   0  0  0  0  0  0  0  0  0  0  0  0
   -6.2496   10.8920  -29.9087 C   0  0  0  0  0  0  0  0  0  0  0  0
   -4.4345   12.0080  -31.7094 C   0  0  0  0  0  0  0  0  0  0  0  0
   -6.0714   10.3160  -31.1665 C   0  0  0  0  0  0  0  0  0  0  0  0
   -6.0836   11.6265  -27.1494 C   0  0  0  0  0  0  0  0  0  0  0  0
   -5.6957   12.6585  -28.2097 C   0  0  0  0  0  0  0  0  0  0  0  0
   -7.1339   10.3579  -29.0168 O   0  0  0  0  0  0  0  0  0  0  0  0
   -6.2190   12.2724  -25.8887 O   0  0  0  0  0  0  0  0  0  0  0  0
   -4.5623   13.2933  -27.7709 F   0  0  0  0  0  0  0  0  0  0  0  0
   -6.6593   13.6341  -28.2061 F   0  0  0  0  0  0  0  0  0  0  0  0
   -3.3145   12.6970  -32.8200 Cl  0  0  0  0  0  0  0  0  0  0  0  0
   -7.0443    8.7748  -31.6890 Br  0  0  0  0  0  0  0  0  0  0  0  0
   -4.0454   13.4682  -30.1686 H   0  0  0  0  0  0  0  0  0  0  0  0
   -5.0222   10.4282  -33.0489 H   0  0  0  0  0  0  0  0  0  0  0  0
   -5.3137   10.8539  -27.0537 H   0  0  0  0  0  0  0  0  0  0  0  0
   -7.0412   11.1549  -27.3931 H   0  0  0  0  0  0  0  0  0  0  0  0
   -7.5642    9.5790  -29.4009 H   0  0  0  0  0  0  0  0  0  0  0  0
   -6.9148   12.9409  -25.9917 H   0  0  0  0  0  0  0  0  0  0  0  0
  1  3  2  0  0  0  0
  1  5  1  0  0  0  0
  2  5  2  0  0  0  0
  2  6  1  0  0  0  0
  3  4  1  0  0  0  0
  3  8  1  0  0  0  0
  4  6  2  0  0  0  0
  4  9  1  0  0  0  0
  5 13  1  0  0  0  0
  6 14  1  0  0  0  0
  7  8  1  0  0  0  0
  7 10  1  0  0  0  0
  8 11  1  0  0  0  0
  8 12  1  0  0  0  0
  1 15  1  0  0  0  0
  2 16  1  0  0  0  0
  7 17  1  0  0  0  0
  7 18  1  0  0  0  0
  9 19  1  0  0  0  0
 10 20  1  0  0  0  0
M  END
> <id>
EN300-1941361

> <smiles>
OCC(F)(F)C=1C=C(Cl)C=C(Br)C1O

> <IUPAC Name>
2-bromo-4-chloro-6-(1,1-difluoro-2-hydroxyethyl)phenol

> <CAS>
2229444-74-8

> <URL>
https://www.enaminestore.com/catalog/EN300-1941361

> <ROCS_ShapeQuery>
_x1604L0AP1_x0771L0AP1

> <ROCS_TanimotoCombo>
1.000 

> <ROCS_ShapeTanimoto>
0.446 

> <ROCS_ColorTanimoto>
0.554 

> <ROCS_RefTversky>
0.428 

> <ROCS_RefColorTversky>
0.553 

> <ROCS_RefTverskyCombo>
0.981 

> <ROCS_FitTversky>
1.106 

> <ROCS_FitColorTversky>
1.000 

> <ROCS_FitTverskyCombo>
2.106 

> <ROCS_ColorScore>
-6.311

> <ROCS_Overlap>
726.137

> <ROCS_Rank>
7                   

$$$$
untitled-dbase-959_23
  -OEChem-06042309053D

 26 26  0     1  0  0  0  0  0999 V2000
   -5.1541   11.2214  -31.9233 C   0  0  0  0  0  0  0  0  0  0  0  0
   -4.4445   12.2982  -29.8802 C   0  0  0  0  0  0  0  0  0  0  0  0
   -6.1330   10.5238  -31.2157 C   0  0  0  0  0  0  0  0  0  0  0  0
   -6.2677   10.7134  -29.8404 C   0  0  0  0  0  0  0  0  0  0  0  0
   -4.3098   12.1086  -31.2556 C   0  0  0  0  0  0  0  0  0  0  0  0
   -5.4235   11.6006  -29.1726 C   0  0  0  0  0  0  0  0  0  0  0  0
   -8.1139    6.7615  -32.6707 C   0  0  0  0  0  0  0  0  0  0  0  0
   -7.0350    9.5696  -31.9573 C   0  0  0  0  0  0  0  0  0  0  0  0
   -6.2798    8.4891  -32.7448 C   0  0  0  0  0  0  0  0  0  0  0  0
   -7.1874    7.5691  -33.5708 C   0  0  1  0  0  0  0  0  0  0  0  0
   -7.2302   10.0234  -29.1621 O   0  0  0  0  0  0  0  0  0  0  0  0
   -6.3812    6.6700  -34.3264 O   0  0  0  0  0  0  0  0  0  0  0  0
   -3.1019   12.9690  -32.1292 Cl  0  0  0  0  0  0  0  0  0  0  0  0
   -5.5756   11.8850  -27.3042 Br  0  0  0  0  0  0  0  0  0  0  0  0
   -5.0525   11.0711  -32.9961 H   0  0  0  0  0  0  0  0  0  0  0  0
   -3.7839   12.9906  -29.3632 H   0  0  0  0  0  0  0  0  0  0  0  0
   -7.5413    6.1612  -31.9551 H   0  0  0  0  0  0  0  0  0  0  0  0
   -8.7974    7.4125  -32.1173 H   0  0  0  0  0  0  0  0  0  0  0  0
   -8.7082    6.0591  -33.2650 H   0  0  0  0  0  0  0  0  0  0  0  0
   -7.7454    9.1037  -31.2633 H   0  0  0  0  0  0  0  0  0  0  0  0
   -7.6491   10.1541  -32.6549 H   0  0  0  0  0  0  0  0  0  0  0  0
   -5.6675    7.8860  -32.0633 H   0  0  0  0  0  0  0  0  0  0  0  0
   -5.5893    9.0069  -33.4234 H   0  0  0  0  0  0  0  0  0  0  0  0
   -7.7899    8.1562  -34.2722 H   0  0  0  0  0  0  0  0  0  0  0  0
   -7.2053   10.2555  -28.2214 H   0  0  0  0  0  0  0  0  0  0  0  0
   -5.8066    7.2162  -34.8853 H   0  0  0  0  0  0  0  0  0  0  0  0
  1  3  2  0  0  0  0
  1  5  1  0  0  0  0
  2  5  2  0  0  0  0
  2  6  1  0  0  0  0
  3  4  1  0  0  0  0
  3  8  1  0  0  0  0
  4  6  2  0  0  0  0
  4 11  1  0  0  0  0
  5 13  1  0  0  0  0
  6 14  1  0  0  0  0
  7 10  1  0  0  0  0
  8  9  1  0  0  0  0
  9 10  1  0  0  0  0
 10 12  1  0  0  0  0
  1 15  1  0  0  0  0
  2 16  1  0  0  0  0
  7 17  1  0  0  0  0
  7 18  1  0  0  0  0
  7 19  1  0  0  0  0
  8 20  1  0  0  0  0
  8 21  1  0  0  0  0
  9 22  1  0  0  0  0
  9 23  1  0  0  0  0
 10 24  1  0  0  0  0
 11 25  1  0  0  0  0
 12 26  1  0  0  0  0
M  END
> <id>
EN300-1922581

> <smiles>
CC(O)CCC=1C=C(Cl)C=C(Br)C1O

> <IUPAC Name>
2-bromo-4-chloro-6-(3-hydroxybutyl)phenol

> <CAS>
2229631-79-0

> <URL>
https://www.enaminestore.com/catalog/EN300-1922581

> <ROCS_ShapeQuery>
_x1604L0AP1_x0771L0AP1

> <ROCS_TanimotoCombo>
0.999 

> <ROCS_ShapeTanimoto>
0.524 

> <ROCS_ColorTanimoto>
0.475 

> <ROCS_RefTversky>
0.471 

> <ROCS_RefColorTversky>
0.499 

> <ROCS_RefTverskyCombo>
0.971 

> <ROCS_FitTversky>
1.272 

> <ROCS_FitColorTversky>
0.907 

> <ROCS_FitTverskyCombo>
2.179 

> <ROCS_ColorScore>
-5.700

> <ROCS_Overlap>
799.621

> <ROCS_Rank>
8                   

$$$$
untitled-dbase-1153_23
  -OEChem-06042309053D

 26 26  0     1  0  0  0  0  0999 V2000
   -5.1541   11.2214  -31.9233 C   0  0  0  0  0  0  0  0  0  0  0  0
   -4.4445   12.2982  -29.8802 C   0  0  0  0  0  0  0  0  0  0  0  0
   -6.1330   10.5238  -31.2157 C   0  0  0  0  0  0  0  0  0  0  0  0
   -6.2677   10.7134  -29.8404 C   0  0  0  0  0  0  0  0  0  0  0  0
   -4.3098   12.1086  -31.2556 C   0  0  0  0  0  0  0  0  0  0  0  0
   -5.4235   11.6006  -29.1726 C   0  0  0  0  0  0  0  0  0  0  0  0
   -8.1139    6.7615  -32.6707 C   0  0  0  0  0  0  0  0  0  0  0  0
   -7.0350    9.5696  -31.9573 C   0  0  0  0  0  0  0  0  0  0  0  0
   -6.2798    8.4891  -32.7448 C   0  0  0  0  0  0  0  0  0  0  0  0
   -7.1874    7.5691  -33.5708 C   0  0  1  0  0  0  0  0  0  0  0  0
   -7.2302   10.0234  -29.1621 O   0  0  0  0  0  0  0  0  0  0  0  0
   -6.3812    6.6700  -34.3264 O   0  0  0  0  0  0  0  0  0  0  0  0
   -3.1019   12.9690  -32.1292 Cl  0  0  0  0  0  0  0  0  0  0  0  0
   -5.5756   11.8850  -27.3042 Br  0  0  0  0  0  0  0  0  0  0  0  0
   -5.0525   11.0711  -32.9961 H   0  0  0  0  0  0  0  0  0  0  0  0
   -3.7839   12.9906  -29.3632 H   0  0  0  0  0  0  0  0  0  0  0  0
   -7.5413    6.1612  -31.9551 H   0  0  0  0  0  0  0  0  0  0  0  0
   -8.7974    7.4125  -32.1173 H   0  0  0  0  0  0  0  0  0  0  0  0
   -8.7082    6.0591  -33.2650 H   0  0  0  0  0  0  0  0  0  0  0  0
   -7.7454    9.1037  -31.2633 H   0  0  0  0  0  0  0  0  0  0  0  0
   -7.6491   10.1541  -32.6549 H   0  0  0  0  0  0  0  0  0  0  0  0
   -5.6675    7.8860  -32.0633 H   0  0  0  0  0  0  0  0  0  0  0  0
   -5.5893    9.0069  -33.4234 H   0  0  0  0  0  0  0  0  0  0  0  0
   -7.7899    8.1562  -34.2722 H   0  0  0  0  0  0  0  0  0  0  0  0
   -7.2053   10.2555  -28.2214 H   0  0  0  0  0  0  0  0  0  0  0  0
   -5.8066    7.2162  -34.8853 H   0  0  0  0  0  0  0  0  0  0  0  0
  1  3  2  0  0  0  0
  1  5  1  0  0  0  0
  2  5  2  0  0  0  0
  2  6  1  0  0  0  0
  3  4  1  0  0  0  0
  3  8  1  0  0  0  0
  4  6  2  0  0  0  0
  4 11  1  0  0  0  0
  5 13  1  0  0  0  0
  6 14  1  0  0  0  0
  7 10  1  6  0  0  0
  8  9  1  0  0  0  0
  9 10  1  0  0  0  0
 10 12  1  0  0  0  0
  1 15  1  0  0  0  0
  2 16  1  0  0  0  0
  7 17  1  0  0  0  0
  7 18  1  0  0  0  0
  7 19  1  0  0  0  0
  8 20  1  0  0  0  0
  8 21  1  0  0  0  0
  9 22  1  0  0  0  0
  9 23  1  0  0  0  0
 10 24  1  0  0  0  0
 11 25  1  0  0  0  0
 12 26  1  0  0  0  0
M  END
> <id>
EN300-1922584

> <smiles>
C[C@H](O)CCC=1C=C(Cl)C=C(Br)C1O

> <IUPAC Name>
2-bromo-4-chloro-6-[(3S)-3-hydroxybutyl]phenol

> <CAS>
2227853-96-3

> <URL>
https://www.enaminestore.com/catalog/EN300-1922584

> <ROCS_ShapeQuery>
_x1604L0AP1_x0771L0AP1

> <ROCS_TanimotoCombo>
0.999 

> <ROCS_ShapeTanimoto>
0.524 

> <ROCS_ColorTanimoto>
0.475 

> <ROCS_RefTversky>
0.471 

> <ROCS_RefColorTversky>
0.499 

> <ROCS_RefTverskyCombo>
0.971 

> <ROCS_FitTversky>
1.272 

> <ROCS_FitColorTversky>
0.907 

> <ROCS_FitTverskyCombo>
2.179 

> <ROCS_ColorScore>
-5.700

> <ROCS_Overlap>
799.621

> <ROCS_Rank>
9                   

$$$$
untitled-dbase-1168_40
  -OEChem-06042309053D

 23 23  0     0  0  0  0  0  0999 V2000
   -4.2866   12.1591  -31.2005 C   0  0  0  0  0  0  0  0  0  0  0  0
   -5.1352   11.3082  -31.9086 C   0  0  0  0  0  0  0  0  0  0  0  0
   -4.4212   12.2861  -29.8179 C   0  0  0  0  0  0  0  0  0  0  0  0
   -6.1184   10.5842  -31.2341 C   0  0  0  0  0  0  0  0  0  0  0  0
   -6.2530   10.7113  -29.8515 C   0  0  0  0  0  0  0  0  0  0  0  0
   -5.4044   11.5622  -29.1435 C   0  0  0  0  0  0  0  0  0  0  0  0
   -6.2732    8.5673  -32.7680 C   0  0  0  0  0  0  0  0  0  0  0  0
   -7.1789    7.7029  -33.6365 C   0  0  0  0  0  0  0  0  0  0  0  0
   -7.0170    9.6798  -32.0117 C   0  0  0  0  0  0  0  0  0  0  0  0
   -7.2208    9.9976  -29.2061 O   0  0  0  0  0  0  0  0  0  0  0  0
   -6.3880    6.7014  -34.2639 O   0  0  0  0  0  0  0  0  0  0  0  0
   -7.7394   10.3710  -32.9550 F   0  0  0  0  0  0  0  0  0  0  0  0
   -7.9760    9.0710  -31.2410 F   0  0  0  0  0  0  0  0  0  0  0  0
   -5.5545   11.7616  -27.2642 Br  0  0  0  0  0  0  0  0  0  0  0  0
   -3.5207   12.7225  -31.7255 H   0  0  0  0  0  0  0  0  0  0  0  0
   -5.0219   11.2134  -32.9852 H   0  0  0  0  0  0  0  0  0  0  0  0
   -3.7504   12.9538  -29.2831 H   0  0  0  0  0  0  0  0  0  0  0  0
   -5.7167    7.9329  -32.0664 H   0  0  0  0  0  0  0  0  0  0  0  0
   -5.5047    9.0198  -33.4086 H   0  0  0  0  0  0  0  0  0  0  0  0
   -7.9476    7.2038  -33.0394 H   0  0  0  0  0  0  0  0  0  0  0  0
   -7.6619    8.3010  -34.4155 H   0  0  0  0  0  0  0  0  0  0  0  0
   -7.1951   10.1860  -28.2557 H   0  0  0  0  0  0  0  0  0  0  0  0
   -6.9908    6.1693  -34.8078 H   0  0  0  0  0  0  0  0  0  0  0  0
  1  2  1  0  0  0  0
  1  3  2  0  0  0  0
  2  4  2  0  0  0  0
  3  6  1  0  0  0  0
  4  5  1  0  0  0  0
  4  9  1  0  0  0  0
  5  6  2  0  0  0  0
  5 10  1  0  0  0  0
  6 14  1  0  0  0  0
  7  8  1  0  0  0  0
  7  9  1  0  0  0  0
  8 11  1  0  0  0  0
  9 12  1  0  0  0  0
  9 13  1  0  0  0  0
  1 15  1  0  0  0  0
  2 16  1  0  0  0  0
  3 17  1  0  0  0  0
  7 18  1  0  0  0  0
  7 19  1  0  0  0  0
  8 20  1  0  0  0  0
  8 21  1  0  0  0  0
 10 22  1  0  0  0  0
 11 23  1  0  0  0  0
M  END
> <id>
EN300-1963219

> <smiles>
OCCC(F)(F)C=1C=CC=C(Br)C1O

> <IUPAC Name>
2-bromo-6-(1,1-difluoro-3-hydroxypropyl)phenol

> <CAS>
2229265-08-9

> <URL>
https://www.enaminestore.com/catalog/EN300-1963219

> <ROCS_ShapeQuery>
_x1604L0AP1_x0771L0AP1

> <ROCS_TanimotoCombo>
0.996 

> <ROCS_ShapeTanimoto>
0.535 

> <ROCS_ColorTanimoto>
0.461 

> <ROCS_RefTversky>
0.483 

> <ROCS_RefColorTversky>
0.490 

> <ROCS_RefTverskyCombo>
0.973 

> <ROCS_FitTversky>
1.251 

> <ROCS_FitColorTversky>
0.889 

> <ROCS_FitTverskyCombo>
2.140 

> <ROCS_ColorScore>
-5.588

> <ROCS_Overlap>
820.372

> <ROCS_Rank>
10                  

$$$$
untitled-dbase-490_97
  -OEChem-06042309053D

 24 24  0     0  0  0  0  0  0999 V2000
   -4.9800   11.3736  -31.6690 C   0  0  0  0  0  0  0  0  0  0  0  0
   -4.5828   12.5744  -29.6104 C   0  0  0  0  0  0  0  0  0  0  0  0
   -5.9663   10.6164  -31.0370 C   0  0  0  0  0  0  0  0  0  0  0  0
   -6.2610   10.8382  -29.6918 C   0  0  0  0  0  0  0  0  0  0  0  0
   -4.2882   12.3526  -30.9557 C   0  0  0  0  0  0  0  0  0  0  0  0
   -5.5692   11.8172  -28.9785 C   0  0  0  0  0  0  0  0  0  0  0  0
   -6.8244    7.2467  -33.7752 C   0  0  0  0  0  0  0  0  0  0  0  0
   -6.7016    9.5637  -31.8265 C   0  0  0  0  0  0  0  0  0  0  0  0
   -7.2293    8.6595  -34.1205 C   0  0  0  0  0  0  0  0  0  0  0  0
   -6.4488    9.7037  -33.3287 C   0  0  0  0  0  0  0  0  0  0  0  0
   -6.3958    6.4257  -34.5789 O   0  0  0  0  0  0  0  0  0  0  0  0
   -7.2286   10.0890  -29.0876 O   0  0  0  0  0  0  0  0  0  0  0  0
   -3.0710   13.2865  -31.7359 Cl  0  0  0  0  0  0  0  0  0  0  0  0
   -5.9411   12.1479  -27.1489 Br  0  0  0  0  0  0  0  0  0  0  0  0
   -4.7535   11.1978  -32.7185 H   0  0  0  0  0  0  0  0  0  0  0  0
   -4.0407   13.3384  -29.0576 H   0  0  0  0  0  0  0  0  0  0  0  0
   -6.9399    6.9776  -32.7110 H   0  0  0  0  0  0  0  0  0  0  0  0
   -7.7763    9.6347  -31.6159 H   0  0  0  0  0  0  0  0  0  0  0  0
   -6.3926    8.5686  -31.4818 H   0  0  0  0  0  0  0  0  0  0  0  0
   -7.0675    8.7947  -35.1952 H   0  0  0  0  0  0  0  0  0  0  0  0
   -8.3024    8.7520  -33.9217 H   0  0  0  0  0  0  0  0  0  0  0  0
   -5.3767    9.6007  -33.5402 H   0  0  0  0  0  0  0  0  0  0  0  0
   -6.7324   10.7095  -33.6648 H   0  0  0  0  0  0  0  0  0  0  0  0
   -7.3227   10.3529  -28.1597 H   0  0  0  0  0  0  0  0  0  0  0  0
  1  3  2  0  0  0  0
  1  5  1  0  0  0  0
  2  5  2  0  0  0  0
  2  6  1  0  0  0  0
  3  4  1  0  0  0  0
  3  8  1  0  0  0  0
  4  6  2  0  0  0  0
  4 12  1  0  0  0  0
  5 13  1  0  0  0  0
  6 14  1  0  0  0  0
  7  9  1  0  0  0  0
  7 11  2  0  0  0  0
  8 10  1  0  0  0  0
  9 10  1  0  0  0  0
  1 15  1  0  0  0  0
  2 16  1  0  0  0  0
  7 17  1  0  0  0  0
  8 18  1  0  0  0  0
  8 19  1  0  0  0  0
  9 20  1  0  0  0  0
  9 21  1  0  0  0  0
 10 22  1  0  0  0  0
 10 23  1  0  0  0  0
 12 24  1  0  0  0  0
M  END
> <id>
EN300-1922933

> <smiles>
OC=1C(Br)=CC(Cl)=CC1CCCC=O

> <IUPAC Name>
4-(3-bromo-5-chloro-2-hydroxyphenyl)butanal

> <CAS>
2229144-05-0

> <URL>
https://www.enaminestore.com/catalog/EN300-1922933

> <ROCS_ShapeQuery>
_x1604L0AP1_x0771L0AP1

> <ROCS_TanimotoCombo>
0.995 

> <ROCS_ShapeTanimoto>
0.586 

> <ROCS_ColorTanimoto>
0.409 

> <ROCS_RefTversky>
0.507 

> <ROCS_RefColorTversky>
0.426 

> <ROCS_RefTverskyCombo>
0.933 

> <ROCS_FitTversky>
1.364 

> <ROCS_FitColorTversky>
0.908 

> <ROCS_FitTverskyCombo>
2.272 

> <ROCS_ColorScore>
-4.844

> <ROCS_Overlap>
860.136

> <ROCS_Rank>
11                  

$$$$
untitled-dbase-1922_484
  -OEChem-06042309053D

 28 28  0     1  0  0  0  0  0999 V2000
   -4.2912   12.4666  -30.8476 C   0  0  0  0  0  0  0  0  0  0  0  0
   -5.1099   11.6770  -31.6550 C   0  0  0  0  0  0  0  0  0  0  0  0
   -4.4523   12.4489  -29.4622 C   0  0  0  0  0  0  0  0  0  0  0  0
   -6.0897   10.8698  -31.0770 C   0  0  0  0  0  0  0  0  0  0  0  0
   -6.2507   10.8521  -29.6916 C   0  0  0  0  0  0  0  0  0  0  0  0
   -5.4320   11.6417  -28.8842 C   0  0  0  0  0  0  0  0  0  0  0  0
   -6.7771    8.9667  -35.5082 C   0  0  0  0  0  0  0  0  0  0  0  0
   -6.9607   10.0288  -31.9648 C   0  0  0  0  0  0  0  0  0  0  0  0
   -6.2514    7.5085  -33.5252 C   0  0  0  0  0  0  0  0  0  0  0  0
   -6.9607    8.7710  -34.0089 C   0  0  1  0  0  0  0  0  0  0  0  0
   -6.4241    9.9266  -33.3179 N   0  0  0  0  0  0  0  0  0  0  0  0
   -7.2148   10.0584  -29.1411 O   0  0  0  0  0  0  0  0  0  0  0  0
   -6.4010    6.4813  -34.4986 O   0  0  0  0  0  0  0  0  0  0  0  0
   -5.6187   11.6449  -26.9976 Br  0  0  0  0  0  0  0  0  0  0  0  0
   -3.5280   13.0948  -31.2975 H   0  0  0  0  0  0  0  0  0  0  0  0
   -4.9760   11.6951  -32.7334 H   0  0  0  0  0  0  0  0  0  0  0  0
   -3.8046   13.0707  -28.8492 H   0  0  0  0  0  0  0  0  0  0  0  0
   -5.7153    9.0377  -35.7656 H   0  0  0  0  0  0  0  0  0  0  0  0
   -7.2744    9.8792  -35.8559 H   0  0  0  0  0  0  0  0  0  0  0  0
   -7.2045    8.1258  -36.0658 H   0  0  0  0  0  0  0  0  0  0  0  0
   -7.0567    9.0143  -31.5625 H   0  0  0  0  0  0  0  0  0  0  0  0
   -7.9701   10.4474  -32.0357 H   0  0  0  0  0  0  0  0  0  0  0  0
   -5.1797    7.6932  -33.3963 H   0  0  0  0  0  0  0  0  0  0  0  0
   -6.6642    7.1504  -32.5757 H   0  0  0  0  0  0  0  0  0  0  0  0
   -8.0295    8.7028  -33.7761 H   0  0  0  0  0  0  0  0  0  0  0  0
   -6.6635   10.7759  -33.8336 H   0  0  0  0  0  0  0  0  0  0  0  0
   -7.2094   10.1489  -28.1761 H   0  0  0  0  0  0  0  0  0  0  0  0
   -7.3541    6.3273  -34.5964 H   0  0  0  0  0  0  0  0  0  0  0  0
  1  2  1  0  0  0  0
  1  3  2  0  0  0  0
  2  4  2  0  0  0  0
  3  6  1  0  0  0  0
  4  5  1  0  0  0  0
  4  8  1  0  0  0  0
  5  6  2  0  0  0  0
  5 12  1  0  0  0  0
  6 14  1  0  0  0  0
  7 10  1  0  0  0  0
  8 11  1  0  0  0  0
  9 10  1  0  0  0  0
  9 13  1  0  0  0  0
 10 11  1  0  0  0  0
  1 15  1  0  0  0  0
  2 16  1  0  0  0  0
  3 17  1  0  0  0  0
  7 18  1  0  0  0  0
  7 19  1  0  0  0  0
  7 20  1  0  0  0  0
  8 21  1  0  0  0  0
  8 22  1  0  0  0  0
  9 23  1  0  0  0  0
  9 24  1  0  0  0  0
 10 25  1  0  0  0  0
 11 26  1  0  0  0  0
 12 27  1  0  0  0  0
 13 28  1  0  0  0  0
M  END
> <id>
EN300-167853

> <smiles>
CC(CO)NCC=1C=CC=C(Br)C1O

> <MDLNUMBER>
MFCD14656607

> <IUPAC Name>
2-bromo-6-{[(1-hydroxypropan-2-yl)amino]methyl}phenol

> <CAS>
1249949-94-7

> <URL>
https://www.enaminestore.com/catalog/EN300-167853

> <ROCS_ShapeQuery>
_x1604L0AP1_x0771L0AP1

> <ROCS_TanimotoCombo>
0.994 

> <ROCS_ShapeTanimoto>
0.577 

> <ROCS_ColorTanimoto>
0.417 

> <ROCS_RefTversky>
0.504 

> <ROCS_RefColorTversky>
0.503 

> <ROCS_RefTverskyCombo>
1.007 

> <ROCS_FitTversky>
1.337 

> <ROCS_FitColorTversky>
0.708 

> <ROCS_FitTverskyCombo>
2.045 

> <ROCS_ColorScore>
-5.795

> <ROCS_Overlap>
854.383

> <ROCS_Rank>
12                  

$$$$
untitled-dbase-445_31
  -OEChem-06042309053D

 25 25  0     0  0  0  0  0  0999 V2000
   -5.1050   11.3208  -31.7984 C   0  0  0  0  0  0  0  0  0  0  0  0
   -4.4583   12.3987  -29.7352 C   0  0  0  0  0  0  0  0  0  0  0  0
   -6.0939   10.6108  -31.1175 C   0  0  0  0  0  0  0  0  0  0  0  0
   -6.2650   10.7948  -29.7455 C   0  0  0  0  0  0  0  0  0  0  0  0
   -4.2871   12.2147  -31.1072 C   0  0  0  0  0  0  0  0  0  0  0  0
   -5.4472   11.6887  -29.0543 C   0  0  0  0  0  0  0  0  0  0  0  0
   -8.0227    8.9241  -31.0234 C   0  0  0  0  0  0  0  0  0  0  0  0
   -6.0982    8.6091  -32.6144 C   0  0  0  0  0  0  0  0  0  0  0  0
   -6.9585    9.6587  -31.8768 C   0  0  0  0  0  0  0  0  0  0  0  0
   -6.8193   10.5683  -34.0052 N   0  0  0  0  0  0  0  0  0  0  0  0
   -7.2368   10.0926  -29.0935 O   0  0  0  0  0  0  0  0  0  0  0  0
   -7.7156   10.3621  -32.8876 O   0  0  0  0  0  0  0  0  0  0  0  0
   -3.0669   13.0905  -31.9478 Cl  0  0  0  0  0  0  0  0  0  0  0  0
   -5.6491   11.9658  -27.1895 Br  0  0  0  0  0  0  0  0  0  0  0  0
   -4.9750   11.1748  -32.8687 H   0  0  0  0  0  0  0  0  0  0  0  0
   -3.8181   13.0965  -29.1998 H   0  0  0  0  0  0  0  0  0  0  0  0
   -8.6297    8.2385  -31.6269 H   0  0  0  0  0  0  0  0  0  0  0  0
   -7.5724    8.3403  -30.2145 H   0  0  0  0  0  0  0  0  0  0  0  0
   -8.7193    9.6469  -30.5823 H   0  0  0  0  0  0  0  0  0  0  0  0
   -6.7109    7.8975  -33.1800 H   0  0  0  0  0  0  0  0  0  0  0  0
   -5.4734    8.0444  -31.9139 H   0  0  0  0  0  0  0  0  0  0  0  0
   -5.4392    9.0958  -33.3433 H   0  0  0  0  0  0  0  0  0  0  0  0
   -6.9002   11.5784  -34.1117 H   0  0  0  0  0  0  0  0  0  0  0  0
   -7.3715   10.1519  -34.7533 H   0  0  0  0  0  0  0  0  0  0  0  0
   -7.2380   10.3220  -28.1518 H   0  0  0  0  0  0  0  0  0  0  0  0
  1  3  2  0  0  0  0
  1  5  1  0  0  0  0
  2  5  2  0  0  0  0
  2  6  1  0  0  0  0
  3  4  1  0  0  0  0
  3  9  1  0  0  0  0
  4  6  2  0  0  0  0
  4 11  1  0  0  0  0
  5 13  1  0  0  0  0
  6 14  1  0  0  0  0
  7  9  1  0  0  0  0
  8  9  1  0  0  0  0
  9 12  1  0  0  0  0
 10 12  1  0  0  0  0
  1 15  1  0  0  0  0
  2 16  1  0  0  0  0
  7 17  1  0  0  0  0
  7 18  1  0  0  0  0
  7 19  1  0  0  0  0
  8 20  1  0  0  0  0
  8 21  1  0  0  0  0
  8 22  1  0  0  0  0
 10 23  1  0  0  0  0
 10 24  1  0  0  0  0
 11 25  1  0  0  0  0
M  END
> <id>
EN300-1922573

> <smiles>
CC(C)(ON)C=1C=C(Cl)C=C(Br)C1O

> <IUPAC Name>
2-[2-(aminooxy)propan-2-yl]-6-bromo-4-chlorophenol

> <CAS>
2229471-95-6

> <URL>
https://www.enaminestore.com/catalog/EN300-1922573

> <ROCS_ShapeQuery>
_x1604L0AP1_x0771L0AP1

> <ROCS_TanimotoCombo>
0.990 

> <ROCS_ShapeTanimoto>
0.577 

> <ROCS_ColorTanimoto>
0.413 

> <ROCS_RefTversky>
0.505 

> <ROCS_RefColorTversky>
0.429 

> <ROCS_RefTverskyCombo>
0.935 

> <ROCS_FitTversky>
1.327 

> <ROCS_FitColorTversky>
0.914 

> <ROCS_FitTverskyCombo>
2.241 

> <ROCS_ColorScore>
-4.879

> <ROCS_Overlap>
857.767

> <ROCS_Rank>
13                  

$$$$
untitled-dbase-706_10
  -OEChem-06042309053D

 23 23  0     1  0  0  0  0  0999 V2000
   -4.1007   11.9320  -30.0597 C   0  0  0  0  0  0  0  0  0  0  0  0
   -5.1335   10.9294  -32.0001 C   0  0  0  0  0  0  0  0  0  0  0  0
   -5.0983   11.3907  -29.2490 C   0  0  0  0  0  0  0  0  0  0  0  0
   -6.1135   10.6187  -29.8137 C   0  0  0  0  0  0  0  0  0  0  0  0
   -4.1183   11.7014  -31.4353 C   0  0  0  0  0  0  0  0  0  0  0  0
   -6.1311   10.3880  -31.1893 C   0  0  0  0  0  0  0  0  0  0  0  0
   -6.4756   13.7517  -27.9157 C   0  0  0  0  0  0  0  0  0  0  0  0
   -5.0605   11.6499  -27.7786 C   0  0  0  0  0  0  0  0  0  0  0  0
   -6.3165   12.3809  -27.2701 C   0  0  1  0  0  0  0  0  0  0  0  0
   -7.0825   10.0960  -29.0072 O   0  0  0  0  0  0  0  0  0  0  0  0
   -6.2322   12.5563  -25.8570 O   0  0  0  0  0  0  0  0  0  0  0  0
   -2.8872   12.3698  -32.4354 Cl  0  0  0  0  0  0  0  0  0  0  0  0
   -7.4942    9.3443  -31.9939 Br  0  0  0  0  0  0  0  0  0  0  0  0
   -3.3103   12.5333  -29.6153 H   0  0  0  0  0  0  0  0  0  0  0  0
   -5.1439   10.7523  -33.0733 H   0  0  0  0  0  0  0  0  0  0  0  0
   -5.5947   14.3773  -27.7341 H   0  0  0  0  0  0  0  0  0  0  0  0
   -6.6281   13.6665  -28.9959 H   0  0  0  0  0  0  0  0  0  0  0  0
   -7.3318   14.2802  -27.4826 H   0  0  0  0  0  0  0  0  0  0  0  0
   -4.9399   10.6983  -27.2334 H   0  0  0  0  0  0  0  0  0  0  0  0
   -4.1642   12.2458  -27.5374 H   0  0  0  0  0  0  0  0  0  0  0  0
   -7.2138   11.7858  -27.4725 H   0  0  0  0  0  0  0  0  0  0  0  0
   -7.7157    9.5865  -29.5353 H   0  0  0  0  0  0  0  0  0  0  0  0
   -6.1319   11.6708  -25.4755 H   0  0  0  0  0  0  0  0  0  0  0  0
  1  3  2  0  0  0  0
  1  5  1  0  0  0  0
  2  5  2  0  0  0  0
  2  6  1  0  0  0  0
  3  4  1  0  0  0  0
  3  8  1  0  0  0  0
  4  6  2  0  0  0  0
  4 10  1  0  0  0  0
  5 12  1  0  0  0  0
  6 13  1  0  0  0  0
  7  9  1  1  0  0  0
  8  9  1  0  0  0  0
  9 11  1  0  0  0  0
  1 14  1  0  0  0  0
  2 15  1  0  0  0  0
  7 16  1  0  0  0  0
  7 17  1  0  0  0  0
  7 18  1  0  0  0  0
  8 19  1  0  0  0  0
  8 20  1  0  0  0  0
  9 21  1  0  0  0  0
 10 22  1  0  0  0  0
 11 23  1  0  0  0  0
M  END
> <id>
EN300-1922600

> <smiles>
C[C@H](O)CC=1C=C(Cl)C=C(Br)C1O

> <IUPAC Name>
2-bromo-4-chloro-6-[(2S)-2-hydroxypropyl]phenol

> <CAS>
2227900-00-5

> <URL>
https://www.enaminestore.com/catalog/EN300-1922600

> <ROCS_ShapeQuery>
_x1604L0AP1_x0771L0AP1

> <ROCS_TanimotoCombo>
0.988 

> <ROCS_ShapeTanimoto>
0.424 

> <ROCS_ColorTanimoto>
0.564 

> <ROCS_RefTversky>
0.402 

> <ROCS_RefColorTversky>
0.559 

> <ROCS_RefTverskyCombo>
0.961 

> <ROCS_FitTversky>
1.147 

> <ROCS_FitColorTversky>
1.015 

> <ROCS_FitTverskyCombo>
2.162 

> <ROCS_ColorScore>
-6.380

> <ROCS_Overlap>
681.601

> <ROCS_Rank>
14                  

$$$$
untitled-dbase-1339_10
  -OEChem-06042309053D

 23 23  0     1  0  0  0  0  0999 V2000
   -4.1007   11.9320  -30.0597 C   0  0  0  0  0  0  0  0  0  0  0  0
   -5.1335   10.9294  -32.0001 C   0  0  0  0  0  0  0  0  0  0  0  0
   -5.0983   11.3907  -29.2490 C   0  0  0  0  0  0  0  0  0  0  0  0
   -6.1135   10.6187  -29.8137 C   0  0  0  0  0  0  0  0  0  0  0  0
   -4.1183   11.7014  -31.4353 C   0  0  0  0  0  0  0  0  0  0  0  0
   -6.1311   10.3880  -31.1893 C   0  0  0  0  0  0  0  0  0  0  0  0
   -6.4756   13.7517  -27.9157 C   0  0  0  0  0  0  0  0  0  0  0  0
   -5.0605   11.6499  -27.7786 C   0  0  0  0  0  0  0  0  0  0  0  0
   -6.3165   12.3809  -27.2701 C   0  0  1  0  0  0  0  0  0  0  0  0
   -7.0825   10.0960  -29.0072 O   0  0  0  0  0  0  0  0  0  0  0  0
   -6.2322   12.5563  -25.8570 O   0  0  0  0  0  0  0  0  0  0  0  0
   -2.8872   12.3698  -32.4354 Cl  0  0  0  0  0  0  0  0  0  0  0  0
   -7.4942    9.3443  -31.9939 Br  0  0  0  0  0  0  0  0  0  0  0  0
   -3.3103   12.5333  -29.6153 H   0  0  0  0  0  0  0  0  0  0  0  0
   -5.1439   10.7523  -33.0733 H   0  0  0  0  0  0  0  0  0  0  0  0
   -5.5947   14.3773  -27.7341 H   0  0  0  0  0  0  0  0  0  0  0  0
   -6.6281   13.6665  -28.9959 H   0  0  0  0  0  0  0  0  0  0  0  0
   -7.3318   14.2802  -27.4826 H   0  0  0  0  0  0  0  0  0  0  0  0
   -4.9399   10.6983  -27.2334 H   0  0  0  0  0  0  0  0  0  0  0  0
   -4.1642   12.2458  -27.5374 H   0  0  0  0  0  0  0  0  0  0  0  0
   -7.2138   11.7858  -27.4725 H   0  0  0  0  0  0  0  0  0  0  0  0
   -7.7157    9.5865  -29.5353 H   0  0  0  0  0  0  0  0  0  0  0  0
   -6.1319   11.6708  -25.4755 H   0  0  0  0  0  0  0  0  0  0  0  0
  1  3  2  0  0  0  0
  1  5  1  0  0  0  0
  2  5  2  0  0  0  0
  2  6  1  0  0  0  0
  3  4  1  0  0  0  0
  3  8  1  0  0  0  0
  4  6  2  0  0  0  0
  4 10  1  0  0  0  0
  5 12  1  0  0  0  0
  6 13  1  0  0  0  0
  7  9  1  0  0  0  0
  8  9  1  0  0  0  0
  9 11  1  0  0  0  0
  1 14  1  0  0  0  0
  2 15  1  0  0  0  0
  7 16  1  0  0  0  0
  7 17  1  0  0  0  0
  7 18  1  0  0  0  0
  8 19  1  0  0  0  0
  8 20  1  0  0  0  0
  9 21  1  0  0  0  0
 10 22  1  0  0  0  0
 11 23  1  0  0  0  0
M  END
> <id>
EN300-1922588

> <smiles>
CC(O)CC=1C=C(Cl)C=C(Br)C1O

> <IUPAC Name>
2-bromo-4-chloro-6-(2-hydroxypropyl)phenol

> <CAS>
2228166-53-6

> <URL>
https://www.enaminestore.com/catalog/EN300-1922588

> <ROCS_ShapeQuery>
_x1604L0AP1_x0771L0AP1

> <ROCS_TanimotoCombo>
0.988 

> <ROCS_ShapeTanimoto>
0.424 

> <ROCS_ColorTanimoto>
0.564 

> <ROCS_RefTversky>
0.402 

> <ROCS_RefColorTversky>
0.559 

> <ROCS_RefTverskyCombo>
0.961 

> <ROCS_FitTversky>
1.147 

> <ROCS_FitColorTversky>
1.015 

> <ROCS_FitTverskyCombo>
2.162 

> <ROCS_ColorScore>
-6.380

> <ROCS_Overlap>
681.601

> <ROCS_Rank>
15                  

$$$$
untitled-dbase-2004_0
  -OEChem-06042309053D

 16 16  0     0  0  0  0  0  0999 V2000
   -5.5636   11.7900  -29.1675 C   0  0  0  0  0  0  0  0  0  0  0  0
   -5.0838   11.1219  -31.8333 C   0  0  0  0  0  0  0  0  0  0  0  0
   -4.5938   12.4792  -29.8956 C   0  0  0  0  0  0  0  0  0  0  0  0
   -6.2934   10.7667  -29.7723 C   0  0  0  0  0  0  0  0  0  0  0  0
   -4.3539   12.1452  -31.2284 C   0  0  0  0  0  0  0  0  0  0  0  0
   -6.0536   10.4326  -31.1052 C   0  0  0  0  0  0  0  0  0  0  0  0
   -3.8142   13.5725  -29.2464 C   0  0  0  0  0  0  0  0  0  0  0  0
   -7.2334   10.1119  -29.0333 O   0  0  0  0  0  0  0  0  0  0  0  0
   -3.4220   12.8000  -31.9352 F   0  0  0  0  0  0  0  0  0  0  0  0
   -4.1557   13.7881  -27.9415 F   0  0  0  0  0  0  0  0  0  0  0  0
   -2.4671   13.3477  -29.2294 F   0  0  0  0  0  0  0  0  0  0  0  0
   -3.9768   14.7754  -29.8707 F   0  0  0  0  0  0  0  0  0  0  0  0
   -7.0224    9.0453  -31.9588 Br  0  0  0  0  0  0  0  0  0  0  0  0
   -5.7504   12.0474  -28.1277 H   0  0  0  0  0  0  0  0  0  0  0  0
   -4.8833   10.8759  -32.8729 H   0  0  0  0  0  0  0  0  0  0  0  0
   -7.6645    9.4290  -29.5702 H   0  0  0  0  0  0  0  0  0  0  0  0
  1  3  1  0  0  0  0
  1  4  2  0  0  0  0
  2  5  1  0  0  0  0
  2  6  2  0  0  0  0
  3  5  2  0  0  0  0
  3  7  1  0  0  0  0
  4  6  1  0  0  0  0
  4  8  1  0  0  0  0
  5  9  1  0  0  0  0
  6 13  1  0  0  0  0
  7 10  1  0  0  0  0
  7 11  1  0  0  0  0
  7 12  1  0  0  0  0
  1 14  1  0  0  0  0
  2 15  1  0  0  0  0
  8 16  1  0  0  0  0
M  END
> <id>
EN300-7432603

> <smiles>
OC=1C=C(C(F)=CC1Br)C(F)(F)F

> <MDLNUMBER>
MFCD22414732

> <IUPAC Name>
2-bromo-4-fluoro-5-(trifluoromethyl)phenol

> <CAS>
1805498-61-6

> <Purity>
95

> <URL>
https://www.enaminestore.com/catalog/EN300-7432603

> <ROCS_ShapeQuery>
_x1604L0AP1_x0771L0AP1

> <ROCS_TanimotoCombo>
0.982 

> <ROCS_ShapeTanimoto>
0.532 

> <ROCS_ColorTanimoto>
0.451 

> <ROCS_RefTversky>
0.476 

> <ROCS_RefColorTversky>
0.431 

> <ROCS_RefTverskyCombo>
0.907 

> <ROCS_FitTversky>
1.280 

> <ROCS_FitColorTversky>
1.112 

> <ROCS_FitTverskyCombo>
2.392 

> <ROCS_ColorScore>
-4.877

> <ROCS_Overlap>
807.917

> <ROCS_Rank>
16                  

$$$$
untitled-dbase-923_117
  -OEChem-06042309053D

 21 21  0     0  0  0  0  0  0999 V2000
   -4.3903   11.9324  -31.7005 C   0  0  0  0  0  0  0  0  0  0  0  0
   -4.5238   12.3789  -30.3859 C   0  0  0  0  0  0  0  0  0  0  0  0
   -5.1846   10.8841  -32.1651 C   0  0  0  0  0  0  0  0  0  0  0  0
   -5.4515   11.7771  -29.5357 C   0  0  0  0  0  0  0  0  0  0  0  0
   -6.2458   10.7287  -30.0002 C   0  0  0  0  0  0  0  0  0  0  0  0
   -6.1123   10.2822  -31.3150 C   0  0  0  0  0  0  0  0  0  0  0  0
   -5.5683   12.2655  -28.1678 C   0  0  0  0  0  0  0  0  0  0  0  0
   -6.4097   13.2340  -27.7443 C   0  0  0  0  0  0  0  0  0  0  0  0
   -6.5046   13.6919  -26.3242 C   0  0  0  0  0  0  0  0  0  0  0  0
   -7.1519   10.1426  -29.1628 O   0  0  0  0  0  0  0  0  0  0  0  0
   -6.1535   12.6108  -25.4717 O   0  0  0  0  0  0  0  0  0  0  0  0
   -7.1739    8.8618  -31.9865 Br  0  0  0  0  0  0  0  0  0  0  0  0
   -3.6685   12.4003  -32.3632 H   0  0  0  0  0  0  0  0  0  0  0  0
   -3.8981   13.1983  -30.0397 H   0  0  0  0  0  0  0  0  0  0  0  0
   -5.0667   10.5502  -33.1929 H   0  0  0  0  0  0  0  0  0  0  0  0
   -4.9260   11.7850  -27.4231 H   0  0  0  0  0  0  0  0  0  0  0  0
   -7.0845   13.7164  -28.4463 H   0  0  0  0  0  0  0  0  0  0  0  0
   -5.8027   14.5140  -26.1530 H   0  0  0  0  0  0  0  0  0  0  0  0
   -7.5129   14.0284  -26.0629 H   0  0  0  0  0  0  0  0  0  0  0  0
   -7.6238    9.4356  -29.6276 H   0  0  0  0  0  0  0  0  0  0  0  0
   -5.2434   12.3590  -25.6982 H   0  0  0  0  0  0  0  0  0  0  0  0
  1  2  1  0  0  0  0
  1  3  2  0  0  0  0
  2  4  2  0  0  0  0
  3  6  1  0  0  0  0
  4  5  1  0  0  0  0
  4  7  1  0  0  0  0
  5  6  2  0  0  0  0
  5 10  1  0  0  0  0
  6 12  1  0  0  0  0
  7  8  2  3  0  0  0
  8  9  1  0  0  0  0
  9 11  1  0  0  0  0
  1 13  1  0  0  0  0
  2 14  1  0  0  0  0
  3 15  1  0  0  0  0
  7 16  1  0  0  0  0
  8 17  1  0  0  0  0
  9 18  1  0  0  0  0
  9 19  1  0  0  0  0
 10 20  1  0  0  0  0
 11 21  1  0  0  0  0
M  END
> <id>
EN300-1923404

> <smiles>
OCC=CC=1C=CC=C(Br)C1O

> <IUPAC Name>
2-bromo-6-(3-hydroxyprop-1-en-1-yl)phenol

> <CAS>
2229662-41-1

> <URL>
https://www.enaminestore.com/catalog/EN300-1923404

> <ROCS_ShapeQuery>
_x1604L0AP1_x0771L0AP1

> <ROCS_TanimotoCombo>
0.980 

> <ROCS_ShapeTanimoto>
0.429 

> <ROCS_ColorTanimoto>
0.551 

> <ROCS_RefTversky>
0.399 

> <ROCS_RefColorTversky>
0.551 

> <ROCS_RefTverskyCombo>
0.950 

> <ROCS_FitTversky>
1.205 

> <ROCS_FitColorTversky>
1.000 

> <ROCS_FitTverskyCombo>
2.205 

> <ROCS_ColorScore>
-6.289

> <ROCS_Overlap>
676.024

> <ROCS_Rank>
17                  

$$$$
untitled-dbase-2185_26
  -OEChem-06042309053D

 26 26  0     1  0  0  0  0  0999 V2000
   -4.2951   12.2196  -31.1510 C   0  0  0  0  0  0  0  0  0  0  0  0
   -5.1306   11.3767  -31.8836 C   0  0  0  0  0  0  0  0  0  0  0  0
   -4.4388   12.3131  -29.7667 C   0  0  0  0  0  0  0  0  0  0  0  0
   -6.1101   10.6272  -31.2320 C   0  0  0  0  0  0  0  0  0  0  0  0
   -6.2539   10.7207  -29.8477 C   0  0  0  0  0  0  0  0  0  0  0  0
   -5.4183   11.5636  -29.1151 C   0  0  0  0  0  0  0  0  0  0  0  0
   -7.6230    8.6248  -35.0053 C   0  0  0  0  0  0  0  0  0  0  0  0
   -7.0034    9.7232  -32.0436 C   0  0  0  0  0  0  0  0  0  0  0  0
   -6.2388    8.7035  -32.9001 C   0  0  0  0  0  0  0  0  0  0  0  0
   -7.1373    7.8394  -33.7936 C   0  0  2  0  0  0  0  0  0  0  0  0
   -7.2179    9.9823  -29.2248 O   0  0  0  0  0  0  0  0  0  0  0  0
   -6.4002    6.7069  -34.2446 O   0  0  0  0  0  0  0  0  0  0  0  0
   -5.5812   11.7177  -27.2326 Br  0  0  0  0  0  0  0  0  0  0  0  0
   -3.5321   12.8029  -31.6582 H   0  0  0  0  0  0  0  0  0  0  0  0
   -5.0102   11.3081  -32.9615 H   0  0  0  0  0  0  0  0  0  0  0  0
   -3.7781   12.9750  -29.2125 H   0  0  0  0  0  0  0  0  0  0  0  0
   -6.7788    9.0015  -35.5933 H   0  0  0  0  0  0  0  0  0  0  0  0
   -8.2553    8.0082  -35.6513 H   0  0  0  0  0  0  0  0  0  0  0  0
   -8.1998    9.5002  -34.6878 H   0  0  0  0  0  0  0  0  0  0  0  0
   -7.7155    9.2068  -31.3880 H   0  0  0  0  0  0  0  0  0  0  0  0
   -7.6164   10.3521  -32.7024 H   0  0  0  0  0  0  0  0  0  0  0  0
   -5.6273    8.0570  -32.2587 H   0  0  0  0  0  0  0  0  0  0  0  0
   -5.5469    9.2704  -33.5369 H   0  0  0  0  0  0  0  0  0  0  0  0
   -8.0034    7.4780  -33.2291 H   0  0  0  0  0  0  0  0  0  0  0  0
   -7.1995   10.1488  -28.2701 H   0  0  0  0  0  0  0  0  0  0  0  0
   -7.0082    6.1779  -34.7843 H   0  0  0  0  0  0  0  0  0  0  0  0
  1  2  1  0  0  0  0
  1  3  2  0  0  0  0
  2  4  2  0  0  0  0
  3  6  1  0  0  0  0
  4  5  1  0  0  0  0
  4  8  1  0  0  0  0
  5  6  2  0  0  0  0
  5 11  1  0  0  0  0
  6 13  1  0  0  0  0
  7 10  1  1  0  0  0
  8  9  1  0  0  0  0
  9 10  1  0  0  0  0
 10 12  1  0  0  0  0
  1 14  1  0  0  0  0
  2 15  1  0  0  0  0
  3 16  1  0  0  0  0
  7 17  1  0  0  0  0
  7 18  1  0  0  0  0
  7 19  1  0  0  0  0
  8 20  1  0  0  0  0
  8 21  1  0  0  0  0
  9 22  1  0  0  0  0
  9 23  1  0  0  0  0
 10 24  1  0  0  0  0
 11 25  1  0  0  0  0
 12 26  1  0  0  0  0
M  END
> <id>
EN300-1923416

> <smiles>
C[C@@H](O)CCC=1C=CC=C(Br)C1O

> <IUPAC Name>
2-bromo-6-[(3R)-3-hydroxybutyl]phenol

> <CAS>
2227723-08-0

> <URL>
https://www.enaminestore.com/catalog/EN300-1923416

> <ROCS_ShapeQuery>
_x1604L0AP1_x0771L0AP1

> <ROCS_TanimotoCombo>
0.979 

> <ROCS_ShapeTanimoto>
0.523 

> <ROCS_ColorTanimoto>
0.456 

> <ROCS_RefTversky>
0.464 

> <ROCS_RefColorTversky>
0.486 

> <ROCS_RefTverskyCombo>
0.950 

> <ROCS_FitTversky>
1.318 

> <ROCS_FitColorTversky>
0.882 

> <ROCS_FitTverskyCombo>
2.200 

> <ROCS_ColorScore>
-5.544

> <ROCS_Overlap>
786.877

> <ROCS_Rank>
18                  

$$$$
untitled-dbase-2209_135
  -OEChem-06042309053D

 20 20  0     0  0  0  0  0  0999 V2000
   -4.4564   12.0199  -31.7195 C   0  0  0  0  0  0  0  0  0  0  0  0
   -4.6325   12.5953  -30.4611 C   0  0  0  0  0  0  0  0  0  0  0  0
   -5.1809   10.8817  -32.0736 C   0  0  0  0  0  0  0  0  0  0  0  0
   -5.5330   12.0325  -29.5568 C   0  0  0  0  0  0  0  0  0  0  0  0
   -6.2575   10.8943  -29.9108 C   0  0  0  0  0  0  0  0  0  0  0  0
   -6.0814   10.3189  -31.1692 C   0  0  0  0  0  0  0  0  0  0  0  0
   -6.0829   11.6298  -27.1523 C   0  0  0  0  0  0  0  0  0  0  0  0
   -5.7053   12.6639  -28.2144 C   0  0  0  0  0  0  0  0  0  0  0  0
   -7.1336   10.3543  -29.0144 O   0  0  0  0  0  0  0  0  0  0  0  0
   -6.2157   12.2748  -25.8909 O   0  0  0  0  0  0  0  0  0  0  0  0
   -4.5730   13.3043  -27.7808 F   0  0  0  0  0  0  0  0  0  0  0  0
   -6.6738   13.6345  -28.2061 F   0  0  0  0  0  0  0  0  0  0  0  0
   -7.0478    8.7727  -31.6885 Br  0  0  0  0  0  0  0  0  0  0  0  0
   -3.7556   12.4583  -32.4239 H   0  0  0  0  0  0  0  0  0  0  0  0
   -4.0657   13.4833  -30.1944 H   0  0  0  0  0  0  0  0  0  0  0  0
   -5.0306   10.4477  -33.0589 H   0  0  0  0  0  0  0  0  0  0  0  0
   -5.3086   10.8612  -27.0604 H   0  0  0  0  0  0  0  0  0  0  0  0
   -7.0393   11.1534  -27.3916 H   0  0  0  0  0  0  0  0  0  0  0  0
   -7.5613    9.5730  -29.3966 H   0  0  0  0  0  0  0  0  0  0  0  0
   -6.9154   12.9398  -25.9906 H   0  0  0  0  0  0  0  0  0  0  0  0
  1  2  1  0  0  0  0
  1  3  2  0  0  0  0
  2  4  2  0  0  0  0
  3  6  1  0  0  0  0
  4  5  1  0  0  0  0
  4  8  1  0  0  0  0
  5  6  2  0  0  0  0
  5  9  1  0  0  0  0
  6 13  1  0  0  0  0
  7  8  1  0  0  0  0
  7 10  1  0  0  0  0
  8 11  1  0  0  0  0
  8 12  1  0  0  0  0
  1 14  1  0  0  0  0
  2 15  1  0  0  0  0
  3 16  1  0  0  0  0
  7 17  1  0  0  0  0
  7 18  1  0  0  0  0
  9 19  1  0  0  0  0
 10 20  1  0  0  0  0
M  END
> <id>
EN300-1963233

> <smiles>
OCC(F)(F)C=1C=CC=C(Br)C1O

> <IUPAC Name>
2-bromo-6-(1,1-difluoro-2-hydroxyethyl)phenol

> <CAS>
2228764-48-3

> <URL>
https://www.enaminestore.com/catalog/EN300-1963233

> <ROCS_ShapeQuery>
_x1604L0AP1_x0771L0AP1

> <ROCS_TanimotoCombo>
0.977 

> <ROCS_ShapeTanimoto>
0.423 

> <ROCS_ColorTanimoto>
0.554 

> <ROCS_RefTversky>
0.406 

> <ROCS_RefColorTversky>
0.553 

> <ROCS_RefTverskyCombo>
0.959 

> <ROCS_FitTversky>
1.106 

> <ROCS_FitColorTversky>
1.000 

> <ROCS_FitTverskyCombo>
2.106 

> <ROCS_ColorScore>
-6.312

> <ROCS_Overlap>
688.997

> <ROCS_Rank>
19                  

$$$$
untitled-dbase-884_37
  -OEChem-06042309053D

 18 18  0     0  0  0  0  0  0999 V2000
   -4.6067   12.4938  -29.8542 C   0  0  0  0  0  0  0  0  0  0  0  0
   -4.3577   12.1787  -31.1899 C   0  0  0  0  0  0  0  0  0  0  0  0
   -5.5752   11.7882  -29.1400 C   0  0  0  0  0  0  0  0  0  0  0  0
   -5.0771   11.1582  -31.8116 C   0  0  0  0  0  0  0  0  0  0  0  0
   -6.2946   10.7677  -29.7617 C   0  0  0  0  0  0  0  0  0  0  0  0
   -6.0456   10.4526  -31.0975 C   0  0  0  0  0  0  0  0  0  0  0  0
   -4.7728   10.8598  -33.2446 C   0  0  0  0  0  0  0  0  0  0  0  0
   -6.6792    9.0052  -35.1985 N   0  5  0  0  0  0  0  0  0  0  0  0
   -5.9563   10.9936  -34.1009 N   0  0  0  0  0  0  0  0  0  0  0  0
   -6.3292    9.9541  -34.6710 N   0  3  0  0  0  0  0  0  0  0  0  0
   -7.2337   10.1005  -29.0323 O   0  0  0  0  0  0  0  0  0  0  0  0
   -7.0332    9.0582  -31.9349 Br  0  0  0  0  0  0  0  0  0  0  0  0
   -4.0468   13.2887  -29.3702 H   0  0  0  0  0  0  0  0  0  0  0  0
   -3.6008   12.7351  -31.7370 H   0  0  0  0  0  0  0  0  0  0  0  0
   -5.7639   12.0399  -28.0998 H   0  0  0  0  0  0  0  0  0  0  0  0
   -3.9824   11.5264  -33.6172 H   0  0  0  0  0  0  0  0  0  0  0  0
   -4.3779    9.8398  -33.3484 H   0  0  0  0  0  0  0  0  0  0  0  0
   -7.6590    9.4206  -29.5774 H   0  0  0  0  0  0  0  0  0  0  0  0
  1  2  2  0  0  0  0
  1  3  1  0  0  0  0
  2  4  1  0  0  0  0
  3  5  2  0  0  0  0
  4  6  2  0  0  0  0
  4  7  1  0  0  0  0
  5  6  1  0  0  0  0
  5 11  1  0  0  0  0
  6 12  1  0  0  0  0
  7  9  1  0  0  0  0
  8 10  2  0  0  0  0
  9 10  2  0  0  0  0
  1 13  1  0  0  0  0
  2 14  1  0  0  0  0
  3 15  1  0  0  0  0
  7 16  1  0  0  0  0
  7 17  1  0  0  0  0
 11 18  1  0  0  0  0
M  CHG  2   8  -1  10   1
M  END
> <id>
EN300-1904552

> <smiles>
OC=1C=CC=C(CN=[N+]=[N-])C1Br

> <IUPAC Name>
3-(azidomethyl)-2-bromophenol

> <CAS>
2228616-06-4

> <URL>
https://www.enaminestore.com/catalog/EN300-1904552

> <ROCS_ShapeQuery>
_x1604L0AP1_x0771L0AP1

> <ROCS_TanimotoCombo>
0.975 

> <ROCS_ShapeTanimoto>
0.523 

> <ROCS_ColorTanimoto>
0.451 

> <ROCS_RefTversky>
0.459 

> <ROCS_RefColorTversky>
0.431 

> <ROCS_RefTverskyCombo>
0.890 

> <ROCS_FitTversky>
1.365 

> <ROCS_FitColorTversky>
1.113 

> <ROCS_FitTverskyCombo>
2.478 

> <ROCS_ColorScore>
-4.882

> <ROCS_Overlap>
777.119

> <ROCS_Rank>
20                  

$$$$
untitled-dbase-39_549
  -OEChem-06042309053D

 28 28  0     1  0  0  0  0  0999 V2000
   -4.3253   12.2435  -31.1218 C   0  0  0  0  0  0  0  0  0  0  0  0
   -5.2654   11.4905  -31.8252 C   0  0  0  0  0  0  0  0  0  0  0  0
   -4.3583   12.2744  -29.7276 C   0  0  0  0  0  0  0  0  0  0  0  0
   -6.2386   10.7684  -31.1345 C   0  0  0  0  0  0  0  0  0  0  0  0
   -6.2717   10.7993  -29.7403 C   0  0  0  0  0  0  0  0  0  0  0  0
   -5.3315   11.5523  -29.0369 C   0  0  0  0  0  0  0  0  0  0  0  0
   -5.3258    8.5708  -35.1383 C   0  0  0  0  0  0  0  0  0  0  0  0
   -7.2415    9.9655  -31.9114 C   0  0  0  0  0  0  0  0  0  0  0  0
   -7.4694    8.5302  -33.8216 C   0  0  0  0  0  0  0  0  0  0  0  0
   -6.6481    7.8495  -34.9138 C   0  0  2  0  0  0  0  0  0  0  0  0
   -6.6018    8.9507  -32.7447 N   0  0  0  0  0  0  0  0  0  0  0  0
   -7.2309   10.0888  -29.0789 O   0  0  0  0  0  0  0  0  0  0  0  0
   -6.3737    6.5095  -34.5094 O   0  0  0  0  0  0  0  0  0  0  0  0
   -5.3423   11.6193  -27.1424 Br  0  0  0  0  0  0  0  0  0  0  0  0
   -3.5672   12.8054  -31.6595 H   0  0  0  0  0  0  0  0  0  0  0  0
   -5.2309   11.4701  -32.9112 H   0  0  0  0  0  0  0  0  0  0  0  0
   -3.6171   12.8665  -29.1967 H   0  0  0  0  0  0  0  0  0  0  0  0
   -4.7401    8.6242  -34.2155 H   0  0  0  0  0  0  0  0  0  0  0  0
   -4.7290    8.0656  -35.9059 H   0  0  0  0  0  0  0  0  0  0  0  0
   -5.5016    9.5906  -35.4974 H   0  0  0  0  0  0  0  0  0  0  0  0
   -7.9367    9.4569  -31.2345 H   0  0  0  0  0  0  0  0  0  0  0  0
   -7.8378   10.6093  -32.5665 H   0  0  0  0  0  0  0  0  0  0  0  0
   -7.9877    9.4107  -34.2164 H   0  0  0  0  0  0  0  0  0  0  0  0
   -8.2195    7.8430  -33.4167 H   0  0  0  0  0  0  0  0  0  0  0  0
   -7.2134    7.8104  -35.8520 H   0  0  0  0  0  0  0  0  0  0  0  0
   -6.3632    8.1471  -32.1577 H   0  0  0  0  0  0  0  0  0  0  0  0
   -7.1303   10.2049  -28.1219 H   0  0  0  0  0  0  0  0  0  0  0  0
   -5.8683    6.1028  -35.2299 H   0  0  0  0  0  0  0  0  0  0  0  0
  1  2  1  0  0  0  0
  1  3  2  0  0  0  0
  2  4  2  0  0  0  0
  3  6  1  0  0  0  0
  4  5  1  0  0  0  0
  4  8  1  0  0  0  0
  5  6  2  0  0  0  0
  5 12  1  0  0  0  0
  6 14  1  0  0  0  0
  7 10  1  0  0  0  0
  8 11  1  0  0  0  0
  9 10  1  0  0  0  0
  9 11  1  0  0  0  0
 10 13  1  0  0  0  0
  1 15  1  0  0  0  0
  2 16  1  0  0  0  0
  3 17  1  0  0  0  0
  7 18  1  0  0  0  0
  7 19  1  0  0  0  0
  7 20  1  0  0  0  0
  8 21  1  0  0  0  0
  8 22  1  0  0  0  0
  9 23  1  0  0  0  0
  9 24  1  0  0  0  0
 10 25  1  0  0  0  0
 11 26  1  0  0  0  0
 12 27  1  0  0  0  0
 13 28  1  0  0  0  0
M  END
> <id>
EN300-167852

> <smiles>
CC(O)CNCC=1C=CC=C(Br)C1O

> <MDLNUMBER>
MFCD14656606

> <IUPAC Name>
2-bromo-6-{[(2-hydroxypropyl)amino]methyl}phenol

> <CAS>
1251077-28-7

> <URL>
https://www.enaminestore.com/catalog/EN300-167852

> <ROCS_ShapeQuery>
_x1604L0AP1_x0771L0AP1

> <ROCS_TanimotoCombo>
0.972 

> <ROCS_ShapeTanimoto>
0.546 

> <ROCS_ColorTanimoto>
0.426 

> <ROCS_RefTversky>
0.486 

> <ROCS_RefColorTversky>
0.511 

> <ROCS_RefTverskyCombo>
0.997 

> <ROCS_FitTversky>
1.293 

> <ROCS_FitColorTversky>
0.719 

> <ROCS_FitTverskyCombo>
2.012 

> <ROCS_ColorScore>
-5.883

> <ROCS_Overlap>
824.353

> <ROCS_Rank>
21                  

$$$$
untitled-dbase-1290_63
  -OEChem-06042309053D

 23 23  0     0  0  0  0  0  0999 V2000
   -4.3641   11.9209  -31.4460 C   0  0  0  0  0  0  0  0  0  0  0  0
   -5.1683   10.9105  -31.9733 C   0  0  0  0  0  0  0  0  0  0  0  0
   -4.5241   12.3183  -30.1185 C   0  0  0  0  0  0  0  0  0  0  0  0
   -6.1326   10.2977  -31.1731 C   0  0  0  0  0  0  0  0  0  0  0  0
   -6.2927   10.6952  -29.8457 C   0  0  0  0  0  0  0  0  0  0  0  0
   -5.4884   11.7055  -29.3184 C   0  0  0  0  0  0  0  0  0  0  0  0
   -6.9837    9.2190  -31.7581 C   0  0  0  0  0  0  0  0  0  0  0  0
   -6.2352    8.4106  -32.8258 C   0  0  0  0  0  0  0  0  0  0  0  0
   -7.1166    7.3425  -33.4581 C   0  0  0  0  0  0  0  0  0  0  0  0
   -7.2416   10.0872  -29.0760 O   0  0  0  0  0  0  0  0  0  0  0  0
   -6.3540    6.6286  -34.4212 O   0  0  0  0  0  0  0  0  0  0  0  0
   -5.6742   12.2733  -27.5192 Br  0  0  0  0  0  0  0  0  0  0  0  0
   -3.6129   12.3978  -32.0688 H   0  0  0  0  0  0  0  0  0  0  0  0
   -5.0353   10.6054  -33.0078 H   0  0  0  0  0  0  0  0  0  0  0  0
   -3.8878   13.1071  -29.7251 H   0  0  0  0  0  0  0  0  0  0  0  0
   -7.8968    9.6476  -32.2035 H   0  0  0  0  0  0  0  0  0  0  0  0
   -7.3356    8.5352  -30.9679 H   0  0  0  0  0  0  0  0  0  0  0  0
   -5.3462    7.9361  -32.3901 H   0  0  0  0  0  0  0  0  0  0  0  0
   -5.8544    9.0779  -33.6103 H   0  0  0  0  0  0  0  0  0  0  0  0
   -7.4746    6.6346  -32.7037 H   0  0  0  0  0  0  0  0  0  0  0  0
   -7.9777    7.7941  -33.9609 H   0  0  0  0  0  0  0  0  0  0  0  0
   -7.2373   10.4642  -28.1831 H   0  0  0  0  0  0  0  0  0  0  0  0
   -6.9426    5.9580  -34.8041 H   0  0  0  0  0  0  0  0  0  0  0  0
  1  2  1  0  0  0  0
  1  3  2  0  0  0  0
  2  4  2  0  0  0  0
  3  6  1  0  0  0  0
  4  5  1  0  0  0  0
  4  7  1  0  0  0  0
  5  6  2  0  0  0  0
  5 10  1  0  0  0  0
  6 12  1  0  0  0  0
  7  8  1  0  0  0  0
  8  9  1  0  0  0  0
  9 11  1  0  0  0  0
  1 13  1  0  0  0  0
  2 14  1  0  0  0  0
  3 15  1  0  0  0  0
  7 16  1  0  0  0  0
  7 17  1  0  0  0  0
  8 18  1  0  0  0  0
  8 19  1  0  0  0  0
  9 20  1  0  0  0  0
  9 21  1  0  0  0  0
 10 22  1  0  0  0  0
 11 23  1  0  0  0  0
M  END
> <id>
EN300-1923448

> <smiles>
OCCCC=1C=CC=C(Br)C1O

> <IUPAC Name>
2-bromo-6-(3-hydroxypropyl)phenol

> <CAS>
1891964-74-1

> <URL>
https://www.enaminestore.com/catalog/EN300-1923448

> <ROCS_ShapeQuery>
_x1604L0AP1_x0771L0AP1

> <ROCS_TanimotoCombo>
0.972 

> <ROCS_ShapeTanimoto>
0.487 

> <ROCS_ColorTanimoto>
0.484 

> <ROCS_RefTversky>
0.435 

> <ROCS_RefColorTversky>
0.506 

> <ROCS_RefTverskyCombo>
0.941 

> <ROCS_FitTversky>
1.326 

> <ROCS_FitColorTversky>
0.919 

> <ROCS_FitTverskyCombo>
2.244 

> <ROCS_ColorScore>
-5.773

> <ROCS_Overlap>
736.685

> <ROCS_Rank>
22                  

$$$$
untitled-dbase-1104_6
  -OEChem-06042309053D

 28 28  0     0  0  0  0  0  0999 V2000
   -4.2720   12.3191  -31.0217 C   0  0  0  0  0  0  0  0  0  0  0  0
   -4.9456   11.3212  -31.7260 C   0  0  0  0  0  0  0  0  0  0  0  0
   -4.5869   12.5631  -29.6849 C   0  0  0  0  0  0  0  0  0  0  0  0
   -5.9343   10.5674  -31.0936 C   0  0  0  0  0  0  0  0  0  0  0  0
   -6.2493   10.8114  -29.7568 C   0  0  0  0  0  0  0  0  0  0  0  0
   -5.5756   11.8093  -29.0525 C   0  0  0  0  0  0  0  0  0  0  0  0
   -6.5020    8.0539  -31.2918 C   0  0  0  0  0  0  0  0  0  0  0  0
   -8.1807    9.7818  -31.9031 C   0  0  0  0  0  0  0  0  0  0  0  0
   -6.1548    9.4393  -33.3542 C   0  0  0  0  0  0  0  0  0  0  0  0
   -6.6662    9.4715  -31.8908 C   0  0  0  0  0  0  0  0  0  0  0  0
   -6.3070    8.4741  -35.4570 N   0  0  0  0  0  0  0  0  0  0  0  0
   -7.2201   10.0666  -29.1524 O   0  0  0  0  0  0  0  0  0  0  0  0
   -6.8394    8.4418  -34.1046 O   0  0  0  0  0  0  0  0  0  0  0  0
   -5.9737   12.1708  -27.2346 Br  0  0  0  0  0  0  0  0  0  0  0  0
   -3.5018   12.9057  -31.5139 H   0  0  0  0  0  0  0  0  0  0  0  0
   -4.6923   11.1362  -32.7665 H   0  0  0  0  0  0  0  0  0  0  0  0
   -4.0508   13.3445  -29.1522 H   0  0  0  0  0  0  0  0  0  0  0  0
   -7.0361    7.3028  -31.8858 H   0  0  0  0  0  0  0  0  0  0  0  0
   -5.4466    7.7568  -31.2710 H   0  0  0  0  0  0  0  0  0  0  0  0
   -6.8732    7.9957  -30.2624 H   0  0  0  0  0  0  0  0  0  0  0  0
   -8.7359    9.0203  -32.4636 H   0  0  0  0  0  0  0  0  0  0  0  0
   -8.3812   10.7523  -32.3721 H   0  0  0  0  0  0  0  0  0  0  0  0
   -8.6039    9.8210  -30.8934 H   0  0  0  0  0  0  0  0  0  0  0  0
   -6.3325   10.4044  -33.8432 H   0  0  0  0  0  0  0  0  0  0  0  0
   -5.0809    9.2337  -33.4135 H   0  0  0  0  0  0  0  0  0  0  0  0
   -7.1663    8.5967  -35.9907 H   0  0  0  0  0  0  0  0  0  0  0  0
   -6.0310    7.5000  -35.5702 H   0  0  0  0  0  0  0  0  0  0  0  0
   -7.3289   10.3466  -28.2309 H   0  0  0  0  0  0  0  0  0  0  0  0
  1  2  1  0  0  0  0
  1  3  2  0  0  0  0
  2  4  2  0  0  0  0
  3  6  1  0  0  0  0
  4  5  1  0  0  0  0
  4 10  1  0  0  0  0
  5  6  2  0  0  0  0
  5 12  1  0  0  0  0
  6 14  1  0  0  0  0
  7 10  1  0  0  0  0
  8 10  1  0  0  0  0
  9 10  1  0  0  0  0
  9 13  1  0  0  0  0
 11 13  1  0  0  0  0
  1 15  1  0  0  0  0
  2 16  1  0  0  0  0
  3 17  1  0  0  0  0
  7 18  1  0  0  0  0
  7 19  1  0  0  0  0
  7 20  1  0  0  0  0
  8 21  1  0  0  0  0
  8 22  1  0  0  0  0
  8 23  1  0  0  0  0
  9 24  1  0  0  0  0
  9 25  1  0  0  0  0
 11 26  1  0  0  0  0
 11 27  1  0  0  0  0
 12 28  1  0  0  0  0
M  END
> <id>
EN300-1923138

> <smiles>
CC(C)(CON)C=1C=CC=C(Br)C1O

> <IUPAC Name>
2-[1-(aminooxy)-2-methylpropan-2-yl]-6-bromophenol

> <CAS>
2228527-83-9

> <URL>
https://www.enaminestore.com/catalog/EN300-1923138

> <ROCS_ShapeQuery>
_x1604L0AP1_x0771L0AP1

> <ROCS_TanimotoCombo>
0.969 

> <ROCS_ShapeTanimoto>
0.566 

> <ROCS_ColorTanimoto>
0.403 

> <ROCS_RefTversky>
0.498 

> <ROCS_RefColorTversky>
0.422 

> <ROCS_RefTverskyCombo>
0.921 

> <ROCS_FitTversky>
1.315 

> <ROCS_FitColorTversky>
0.899 

> <ROCS_FitTverskyCombo>
2.214 

> <ROCS_ColorScore>
-4.799

> <ROCS_Overlap>
845.684

> <ROCS_Rank>
23                  

$$$$
untitled-dbase-2169_64
  -OEChem-06042309053D

 25 25  0     1  0  0  0  0  0999 V2000
   -5.1712   11.8432  -31.6407 C   0  0  0  0  0  0  0  0  0  0  0  0
   -4.2619   12.2673  -29.4429 C   0  0  0  0  0  0  0  0  0  0  0  0
   -6.1712   11.0527  -31.0745 C   0  0  0  0  0  0  0  0  0  0  0  0
   -6.2166   10.8695  -29.6924 C   0  0  0  0  0  0  0  0  0  0  0  0
   -4.2165   12.4505  -30.8249 C   0  0  0  0  0  0  0  0  0  0  0  0
   -5.2620   11.4768  -28.8766 C   0  0  0  0  0  0  0  0  0  0  0  0
   -7.2078    8.8792  -31.8040 C   0  0  0  0  0  0  0  0  0  0  0  0
   -6.9878   10.7724  -33.4557 C   0  0  0  0  0  0  0  0  0  0  0  0
   -7.1834   10.4116  -31.9661 C   0  0  2  0  0  0  0  0  0  0  0  0
   -5.7777   10.3580  -35.3898 N   0  0  0  0  0  0  0  0  0  0  0  0
   -7.2012   10.0931  -29.1535 O   0  0  0  0  0  0  0  0  0  0  0  0
   -5.9277    9.9884  -33.9917 O   0  0  0  0  0  0  0  0  0  0  0  0
   -2.9825   13.4257  -31.5242 Cl  0  0  0  0  0  0  0  0  0  0  0  0
   -5.2905   11.2515  -26.9942 Br  0  0  0  0  0  0  0  0  0  0  0  0
   -5.1395   11.9839  -32.7191 H   0  0  0  0  0  0  0  0  0  0  0  0
   -3.5153   12.7423  -28.8102 H   0  0  0  0  0  0  0  0  0  0  0  0
   -6.2402    8.4334  -32.0589 H   0  0  0  0  0  0  0  0  0  0  0  0
   -7.4474    8.5863  -30.7761 H   0  0  0  0  0  0  0  0  0  0  0  0
   -7.9634    8.4367  -32.4627 H   0  0  0  0  0  0  0  0  0  0  0  0
   -6.7143   11.8263  -33.5761 H   0  0  0  0  0  0  0  0  0  0  0  0
   -7.8930   10.5832  -34.0420 H   0  0  0  0  0  0  0  0  0  0  0  0
   -8.1941   10.7689  -31.6890 H   0  0  0  0  0  0  0  0  0  0  0  0
   -5.8603    9.4439  -35.8323 H   0  0  0  0  0  0  0  0  0  0  0  0
   -4.7890   10.6031  -35.4112 H   0  0  0  0  0  0  0  0  0  0  0  0
   -7.1066   10.0575  -28.1896 H   0  0  0  0  0  0  0  0  0  0  0  0
  1  3  2  0  0  0  0
  1  5  1  0  0  0  0
  2  5  2  0  0  0  0
  2  6  1  0  0  0  0
  3  4  1  0  0  0  0
  3  9  1  0  0  0  0
  4  6  2  0  0  0  0
  4 11  1  0  0  0  0
  5 13  1  0  0  0  0
  6 14  1  0  0  0  0
  7  9  1  0  0  0  0
  8  9  1  0  0  0  0
  8 12  1  0  0  0  0
 10 12  1  0  0  0  0
  1 15  1  0  0  0  0
  2 16  1  0  0  0  0
  7 17  1  0  0  0  0
  7 18  1  0  0  0  0
  7 19  1  0  0  0  0
  8 20  1  0  0  0  0
  8 21  1  0  0  0  0
  9 22  1  0  0  0  0
 10 23  1  0  0  0  0
 10 24  1  0  0  0  0
 11 25  1  0  0  0  0
M  END
> <id>
EN300-1922567

> <smiles>
CC(CON)C=1C=C(Cl)C=C(Br)C1O

> <IUPAC Name>
2-[1-(aminooxy)propan-2-yl]-6-bromo-4-chlorophenol

> <CAS>
2229145-15-5

> <URL>
https://www.enaminestore.com/catalog/EN300-1922567

> <ROCS_ShapeQuery>
_x1604L0AP1_x0771L0AP1

> <ROCS_TanimotoCombo>
0.965 

> <ROCS_ShapeTanimoto>
0.571 

> <ROCS_ColorTanimoto>
0.394 

> <ROCS_RefTversky>
0.499 

> <ROCS_RefColorTversky>
0.415 

> <ROCS_RefTverskyCombo>
0.914 

> <ROCS_FitTversky>
1.338 

> <ROCS_FitColorTversky>
0.884 

> <ROCS_FitTverskyCombo>
2.222 

> <ROCS_ColorScore>
-4.718

> <ROCS_Overlap>
846.738

> <ROCS_Rank>
24                  

$$$$
untitled-dbase-1136_68
  -OEChem-06042309053D

 23 23  0     1  0  0  0  0  0999 V2000
   -4.4780   12.0582  -31.6942 C   0  0  0  0  0  0  0  0  0  0  0  0
   -4.7087   12.6549  -30.4547 C   0  0  0  0  0  0  0  0  0  0  0  0
   -5.1539   10.8885  -32.0418 C   0  0  0  0  0  0  0  0  0  0  0  0
   -5.6153   12.0820  -29.5628 C   0  0  0  0  0  0  0  0  0  0  0  0
   -6.2912   10.9124  -29.9103 C   0  0  0  0  0  0  0  0  0  0  0  0
   -6.0604   10.3156  -31.1498 C   0  0  0  0  0  0  0  0  0  0  0  0
   -4.0033   11.8172  -26.7582 C   0  0  0  0  0  0  0  0  0  0  0  0
   -5.8464   12.7367  -28.2406 C   0  0  0  0  0  0  0  0  0  0  0  0
   -5.4980   11.8207  -27.0531 C   0  0  2  0  0  0  0  0  0  0  0  0
   -7.1738   10.3630  -29.0263 O   0  0  0  0  0  0  0  0  0  0  0  0
   -6.1860   12.2651  -25.8852 O   0  0  0  0  0  0  0  0  0  0  0  0
   -6.9597    8.7265  -31.6598 Br  0  0  0  0  0  0  0  0  0  0  0  0
   -3.7725   12.5044  -32.3889 H   0  0  0  0  0  0  0  0  0  0  0  0
   -4.1796   13.5674  -30.1930 H   0  0  0  0  0  0  0  0  0  0  0  0
   -4.9614   10.4382  -33.0123 H   0  0  0  0  0  0  0  0  0  0  0  0
   -3.6401   12.8301  -26.5523 H   0  0  0  0  0  0  0  0  0  0  0  0
   -3.7694   11.1799  -25.9000 H   0  0  0  0  0  0  0  0  0  0  0  0
   -3.4440   11.4527  -27.6267 H   0  0  0  0  0  0  0  0  0  0  0  0
   -5.2573   13.6675  -28.1752 H   0  0  0  0  0  0  0  0  0  0  0  0
   -6.9021   13.0480  -28.1684 H   0  0  0  0  0  0  0  0  0  0  0  0
   -5.8237   10.7940  -27.2534 H   0  0  0  0  0  0  0  0  0  0  0  0
   -7.2137   10.8987  -28.2195 H   0  0  0  0  0  0  0  0  0  0  0  0
   -5.9653   11.6371  -25.1804 H   0  0  0  0  0  0  0  0  0  0  0  0
  1  2  1  0  0  0  0
  1  3  2  0  0  0  0
  2  4  2  0  0  0  0
  3  6  1  0  0  0  0
  4  5  1  0  0  0  0
  4  8  1  0  0  0  0
  5  6  2  0  0  0  0
  5 10  1  0  0  0  0
  6 12  1  0  0  0  0
  7  9  1  6  0  0  0
  8  9  1  0  0  0  0
  9 11  1  0  0  0  0
  1 13  1  0  0  0  0
  2 14  1  0  0  0  0
  3 15  1  0  0  0  0
  7 16  1  0  0  0  0
  7 17  1  0  0  0  0
  7 18  1  0  0  0  0
  8 19  1  0  0  0  0
  8 20  1  0  0  0  0
  9 21  1  0  0  0  0
 10 22  1  0  0  0  0
 11 23  1  0  0  0  0
M  END
> <id>
EN300-1923422

> <smiles>
C[C@@H](O)CC=1C=CC=C(Br)C1O

> <IUPAC Name>
2-bromo-6-[(2R)-2-hydroxypropyl]phenol

> <CAS>
2227725-36-0

> <URL>
https://www.enaminestore.com/catalog/EN300-1923422

> <ROCS_ShapeQuery>
_x1604L0AP1_x0771L0AP1

> <ROCS_TanimotoCombo>
0.965 

> <ROCS_ShapeTanimoto>
0.414 

> <ROCS_ColorTanimoto>
0.550 

> <ROCS_RefTversky>
0.390 

> <ROCS_RefColorTversky>
0.551 

> <ROCS_RefTverskyCombo>
0.940 

> <ROCS_FitTversky>
1.178 

> <ROCS_FitColorTversky>
1.000 

> <ROCS_FitTverskyCombo>
2.178 

> <ROCS_ColorScore>
-6.284

> <ROCS_Overlap>
660.018

> <ROCS_Rank>
25                  

$$$$
untitled-dbase-726_80
  -OEChem-06042309053D

 19 19  0     0  0  0  0  0  0999 V2000
   -4.5930   12.4711  -29.8342 C   0  0  0  0  0  0  0  0  0  0  0  0
   -5.5727   11.7751  -29.1262 C   0  0  0  0  0  0  0  0  0  0  0  0
   -5.0611   11.1372  -31.7935 C   0  0  0  0  0  0  0  0  0  0  0  0
   -4.3372   12.1523  -31.1679 C   0  0  0  0  0  0  0  0  0  0  0  0
   -6.2965   10.7600  -29.7518 C   0  0  0  0  0  0  0  0  0  0  0  0
   -6.0407   10.4411  -31.0855 C   0  0  0  0  0  0  0  0  0  0  0  0
   -3.2895   12.8970  -31.9238 C   0  0  0  0  0  0  0  0  0  0  0  0
   -3.1872   14.8299  -30.6469 N   0  0  0  0  0  0  0  0  0  0  0  0
   -7.2459   10.0977  -29.0318 O   0  0  0  0  0  0  0  0  0  0  0  0
   -2.4708   13.6179  -31.0109 O   0  0  0  0  0  0  0  0  0  0  0  0
   -7.0038    9.0668  -31.9668 Br  0  0  0  0  0  0  0  0  0  0  0  0
   -4.0344   13.2603  -29.3377 H   0  0  0  0  0  0  0  0  0  0  0  0
   -5.7664   12.0291  -28.0875 H   0  0  0  0  0  0  0  0  0  0  0  0
   -4.8551   10.8957  -32.8341 H   0  0  0  0  0  0  0  0  0  0  0  0
   -2.6521   12.2151  -32.5034 H   0  0  0  0  0  0  0  0  0  0  0  0
   -3.7394   13.6073  -32.6309 H   0  0  0  0  0  0  0  0  0  0  0  0
   -2.4894   15.5345  -30.8809 H   0  0  0  0  0  0  0  0  0  0  0  0
   -3.1875   14.7470  -29.6315 H   0  0  0  0  0  0  0  0  0  0  0  0
   -7.6714    9.4218  -29.5818 H   0  0  0  0  0  0  0  0  0  0  0  0
  1  2  1  0  0  0  0
  1  4  2  0  0  0  0
  2  5  2  0  0  0  0
  3  4  1  0  0  0  0
  3  6  2  0  0  0  0
  4  7  1  0  0  0  0
  5  6  1  0  0  0  0
  5  9  1  0  0  0  0
  6 11  1  0  0  0  0
  7 10  1  0  0  0  0
  8 10  1  0  0  0  0
  1 12  1  0  0  0  0
  2 13  1  0  0  0  0
  3 14  1  0  0  0  0
  7 15  1  0  0  0  0
  7 16  1  0  0  0  0
  8 17  1  0  0  0  0
  8 18  1  0  0  0  0
  9 19  1  0  0  0  0
M  END
> <id>
EN300-1915285

> <smiles>
NOCC=1C=CC(O)=C(Br)C1

> <MDLNUMBER>
MFCD24721151

> <IUPAC Name>
4-[(aminooxy)methyl]-2-bromophenol

> <CAS>
1836-79-9

> <URL>
https://www.enaminestore.com/catalog/EN300-1915285

> <ROCS_ShapeQuery>
_x1604L0AP1_x0771L0AP1

> <ROCS_TanimotoCombo>
0.965 

> <ROCS_ShapeTanimoto>
0.514 

> <ROCS_ColorTanimoto>
0.451 

> <ROCS_RefTversky>
0.444 

> <ROCS_RefColorTversky>
0.431 

> <ROCS_RefTverskyCombo>
0.875 

> <ROCS_FitTversky>
1.441 

> <ROCS_FitColorTversky>
1.112 

> <ROCS_FitTverskyCombo>
2.553 

> <ROCS_ColorScore>
-4.878

> <ROCS_Overlap>
750.760

> <ROCS_Rank>
26                  

$$$$
untitled-dbase-337_80
  -OEChem-06042309053D

 19 19  0     0  0  0  0  0  0999 V2000
   -4.3667   12.1674  -31.2102 C   0  0  0  0  0  0  0  0  0  0  0  0
   -5.0876   11.1415  -31.8213 C   0  0  0  0  0  0  0  0  0  0  0  0
   -5.5801   11.7956  -29.1544 C   0  0  0  0  0  0  0  0  0  0  0  0
   -4.6129   12.4944  -29.8767 C   0  0  0  0  0  0  0  0  0  0  0  0
   -6.3011   10.7697  -29.7655 C   0  0  0  0  0  0  0  0  0  0  0  0
   -6.0548   10.4427  -31.0990 C   0  0  0  0  0  0  0  0  0  0  0  0
   -3.8417   13.5904  -29.2228 C   0  0  0  0  0  0  0  0  0  0  0  0
   -1.9849   13.6426  -30.6106 N   0  0  0  0  0  0  0  0  0  0  0  0
   -7.2372   10.1039  -29.0315 O   0  0  0  0  0  0  0  0  0  0  0  0
   -3.1844   14.3649  -30.2185 O   0  0  0  0  0  0  0  0  0  0  0  0
   -7.0150    9.0553  -31.9623 Br  0  0  0  0  0  0  0  0  0  0  0  0
   -3.6134   12.7053  -31.7800 H   0  0  0  0  0  0  0  0  0  0  0  0
   -4.8819   10.9008  -32.8612 H   0  0  0  0  0  0  0  0  0  0  0  0
   -5.7731   12.0494  -28.1146 H   0  0  0  0  0  0  0  0  0  0  0  0
   -4.4988   14.2516  -28.6413 H   0  0  0  0  0  0  0  0  0  0  0  0
   -3.0868   13.1881  -28.5334 H   0  0  0  0  0  0  0  0  0  0  0  0
   -1.2780   14.3598  -30.4556 H   0  0  0  0  0  0  0  0  0  0  0  0
   -2.1244   13.5850  -31.6182 H   0  0  0  0  0  0  0  0  0  0  0  0
   -7.6621    9.4204  -29.5726 H   0  0  0  0  0  0  0  0  0  0  0  0
  1  2  1  0  0  0  0
  1  4  2  0  0  0  0
  2  6  2  0  0  0  0
  3  4  1  0  0  0  0
  3  5  2  0  0  0  0
  4  7  1  0  0  0  0
  5  6  1  0  0  0  0
  5  9  1  0  0  0  0
  6 11  1  0  0  0  0
  7 10  1  0  0  0  0
  8 10  1  0  0  0  0
  1 12  1  0  0  0  0
  2 13  1  0  0  0  0
  3 14  1  0  0  0  0
  7 15  1  0  0  0  0
  7 16  1  0  0  0  0
  8 17  1  0  0  0  0
  8 18  1  0  0  0  0
  9 19  1  0  0  0  0
M  END
> <id>
EN300-211634

> <smiles>
NOCC=1C=CC(Br)=C(O)C1

> <MDLNUMBER>
MFCD00867521

> <IUPAC Name>
5-[(aminooxy)methyl]-2-bromophenol

> <CAS>
555-65-7

> <URL>
https://www.enaminestore.com/catalog/EN300-211634

> <ROCS_ShapeQuery>
_x1604L0AP1_x0771L0AP1

> <ROCS_TanimotoCombo>
0.964 

> <ROCS_ShapeTanimoto>
0.514 

> <ROCS_ColorTanimoto>
0.451 

> <ROCS_RefTversky>
0.444 

> <ROCS_RefColorTversky>
0.431 

> <ROCS_RefTverskyCombo>
0.875 

> <ROCS_FitTversky>
1.440 

> <ROCS_FitColorTversky>
1.112 

> <ROCS_FitTverskyCombo>
2.553 

> <ROCS_ColorScore>
-4.878

> <ROCS_Overlap>
750.529

> <ROCS_Rank>
27                  

$$$$
untitled-dbase-2088_80
  -OEChem-06042309053D

 19 19  0     0  0  0  0  0  0999 V2000
   -4.3667   12.1674  -31.2102 C   0  0  0  0  0  0  0  0  0  0  0  0
   -5.0876   11.1415  -31.8213 C   0  0  0  0  0  0  0  0  0  0  0  0
   -5.5801   11.7956  -29.1544 C   0  0  0  0  0  0  0  0  0  0  0  0
   -4.6129   12.4944  -29.8767 C   0  0  0  0  0  0  0  0  0  0  0  0
   -6.3011   10.7697  -29.7655 C   0  0  0  0  0  0  0  0  0  0  0  0
   -6.0548   10.4427  -31.0990 C   0  0  0  0  0  0  0  0  0  0  0  0
   -3.8417   13.5904  -29.2228 C   0  0  0  0  0  0  0  0  0  0  0  0
   -1.9849   13.6426  -30.6106 N   0  0  0  0  0  0  0  0  0  0  0  0
   -7.2372   10.1039  -29.0315 O   0  0  0  0  0  0  0  0  0  0  0  0
   -3.1844   14.3649  -30.2185 O   0  0  0  0  0  0  0  0  0  0  0  0
   -7.0150    9.0553  -31.9623 Br  0  0  0  0  0  0  0  0  0  0  0  0
   -3.6134   12.7053  -31.7800 H   0  0  0  0  0  0  0  0  0  0  0  0
   -4.8819   10.9008  -32.8612 H   0  0  0  0  0  0  0  0  0  0  0  0
   -5.7731   12.0494  -28.1146 H   0  0  0  0  0  0  0  0  0  0  0  0
   -4.4988   14.2516  -28.6413 H   0  0  0  0  0  0  0  0  0  0  0  0
   -3.0868   13.1881  -28.5334 H   0  0  0  0  0  0  0  0  0  0  0  0
   -1.2780   14.3598  -30.4556 H   0  0  0  0  0  0  0  0  0  0  0  0
   -2.1244   13.5850  -31.6182 H   0  0  0  0  0  0  0  0  0  0  0  0
   -7.6621    9.4204  -29.5726 H   0  0  0  0  0  0  0  0  0  0  0  0
  1  2  1  0  0  0  0
  1  4  2  0  0  0  0
  2  6  2  0  0  0  0
  3  4  1  0  0  0  0
  3  5  2  0  0  0  0
  4  7  1  0  0  0  0
  5  6  1  0  0  0  0
  5  9  1  0  0  0  0
  6 11  1  0  0  0  0
  7 10  1  0  0  0  0
  8 10  1  0  0  0  0
  1 12  1  0  0  0  0
  2 13  1  0  0  0  0
  3 14  1  0  0  0  0
  7 15  1  0  0  0  0
  7 16  1  0  0  0  0
  8 17  1  0  0  0  0
  8 18  1  0  0  0  0
  9 19  1  0  0  0  0
M  END
> <id>
EN300-210717

> <smiles>
Cl.NOCC=1C=CC(Br)=C(O)C1

> <MDLNUMBER>
MFCD28397721

> <IUPAC Name>
5-[(aminooxy)methyl]-2-bromophenol hydrochloride

> <CAS>
91468-63-2

> <Purity>
95

> <URL>
https://www.enaminestore.com/catalog/EN300-210717

> <Saltdate>
Cl

> <ROCS_ShapeQuery>
_x1604L0AP1_x0771L0AP1

> <ROCS_TanimotoCombo>
0.964 

> <ROCS_ShapeTanimoto>
0.514 

> <ROCS_ColorTanimoto>
0.451 

> <ROCS_RefTversky>
0.444 

> <ROCS_RefColorTversky>
0.431 

> <ROCS_RefTverskyCombo>
0.875 

> <ROCS_FitTversky>
1.440 

> <ROCS_FitColorTversky>
1.112 

> <ROCS_FitTverskyCombo>
2.553 

> <ROCS_ColorScore>
-4.878

> <ROCS_Overlap>
750.529

> <ROCS_Rank>
28                  

$$$$
untitled-dbase-1091_23
  -OEChem-06042309053D

 26 26  0     1  0  0  0  0  0999 V2000
   -4.3171   12.1136  -31.2645 C   0  0  0  0  0  0  0  0  0  0  0  0
   -5.1597   11.2226  -31.9291 C   0  0  0  0  0  0  0  0  0  0  0  0
   -4.4496   12.3050  -29.8892 C   0  0  0  0  0  0  0  0  0  0  0  0
   -6.1351   10.5231  -31.2184 C   0  0  0  0  0  0  0  0  0  0  0  0
   -6.2677   10.7146  -29.8430 C   0  0  0  0  0  0  0  0  0  0  0  0
   -5.4250   11.6055  -29.1785 C   0  0  0  0  0  0  0  0  0  0  0  0
   -8.1091    6.7540  -32.6651 C   0  0  0  0  0  0  0  0  0  0  0  0
   -7.0362    9.5658  -31.9569 C   0  0  0  0  0  0  0  0  0  0  0  0
   -6.2799    8.4865  -32.7451 C   0  0  0  0  0  0  0  0  0  0  0  0
   -7.1868    7.5632  -33.5681 C   0  0  1  0  0  0  0  0  0  0  0  0
   -7.2278   10.0241  -29.1619 O   0  0  0  0  0  0  0  0  0  0  0  0
   -6.3799    6.6656  -34.3247 O   0  0  0  0  0  0  0  0  0  0  0  0
   -5.5726   11.8927  -27.3104 Br  0  0  0  0  0  0  0  0  0  0  0  0
   -3.5573   12.6579  -31.8177 H   0  0  0  0  0  0  0  0  0  0  0  0
   -5.0480   11.0777  -33.0003 H   0  0  0  0  0  0  0  0  0  0  0  0
   -3.7835   13.0031  -29.3884 H   0  0  0  0  0  0  0  0  0  0  0  0
   -7.5332    6.1560  -31.9502 H   0  0  0  0  0  0  0  0  0  0  0  0
   -8.7931    7.4037  -32.1108 H   0  0  0  0  0  0  0  0  0  0  0  0
   -8.7029    6.0493  -33.2573 H   0  0  0  0  0  0  0  0  0  0  0  0
   -7.7437    9.0986  -31.2609 H   0  0  0  0  0  0  0  0  0  0  0  0
   -7.6534   10.1478  -32.6537 H   0  0  0  0  0  0  0  0  0  0  0  0
   -5.6643    7.8857  -32.0644 H   0  0  0  0  0  0  0  0  0  0  0  0
   -5.5923    9.0055  -33.4258 H   0  0  0  0  0  0  0  0  0  0  0  0
   -7.7925    8.1479  -34.2687 H   0  0  0  0  0  0  0  0  0  0  0  0
   -7.2015   10.2577  -28.2216 H   0  0  0  0  0  0  0  0  0  0  0  0
   -5.8081    7.2128  -34.8854 H   0  0  0  0  0  0  0  0  0  0  0  0
  1  2  1  0  0  0  0
  1  3  2  0  0  0  0
  2  4  2  0  0  0  0
  3  6  1  0  0  0  0
  4  5  1  0  0  0  0
  4  8  1  0  0  0  0
  5  6  2  0  0  0  0
  5 11  1  0  0  0  0
  6 13  1  0  0  0  0
  7 10  1  0  0  0  0
  8  9  1  0  0  0  0
  9 10  1  0  0  0  0
 10 12  1  0  0  0  0
  1 14  1  0  0  0  0
  2 15  1  0  0  0  0
  3 16  1  0  0  0  0
  7 17  1  0  0  0  0
  7 18  1  0  0  0  0
  7 19  1  0  0  0  0
  8 20  1  0  0  0  0
  8 21  1  0  0  0  0
  9 22  1  0  0  0  0
  9 23  1  0  0  0  0
 10 24  1  0  0  0  0
 11 25  1  0  0  0  0
 12 26  1  0  0  0  0
M  END
> <id>
EN300-1923412

> <smiles>
CC(O)CCC=1C=CC=C(Br)C1O

> <IUPAC Name>
2-bromo-6-(3-hydroxybutyl)phenol

> <CAS>
2228647-79-6

> <URL>
https://www.enaminestore.com/catalog/EN300-1923412

> <ROCS_ShapeQuery>
_x1604L0AP1_x0771L0AP1

> <ROCS_TanimotoCombo>
0.963 

> <ROCS_ShapeTanimoto>
0.488 

> <ROCS_ColorTanimoto>
0.475 

> <ROCS_RefTversky>
0.443 

> <ROCS_RefColorTversky>
0.499 

> <ROCS_RefTverskyCombo>
0.943 

> <ROCS_FitTversky>
1.262 

> <ROCS_FitColorTversky>
0.907 

> <ROCS_FitTverskyCombo>
2.169 

> <ROCS_ColorScore>
-5.701

> <ROCS_Overlap>
750.789

> <ROCS_Rank>
29                  

$$$$
untitled-dbase-602_23
  -OEChem-06042309053D

 26 26  0     1  0  0  0  0  0999 V2000
   -4.3171   12.1136  -31.2645 C   0  0  0  0  0  0  0  0  0  0  0  0
   -5.1597   11.2226  -31.9291 C   0  0  0  0  0  0  0  0  0  0  0  0
   -4.4496   12.3050  -29.8892 C   0  0  0  0  0  0  0  0  0  0  0  0
   -6.1351   10.5231  -31.2184 C   0  0  0  0  0  0  0  0  0  0  0  0
   -6.2677   10.7146  -29.8430 C   0  0  0  0  0  0  0  0  0  0  0  0
   -5.4250   11.6055  -29.1785 C   0  0  0  0  0  0  0  0  0  0  0  0
   -8.1091    6.7540  -32.6651 C   0  0  0  0  0  0  0  0  0  0  0  0
   -7.0362    9.5658  -31.9569 C   0  0  0  0  0  0  0  0  0  0  0  0
   -6.2799    8.4865  -32.7451 C   0  0  0  0  0  0  0  0  0  0  0  0
   -7.1868    7.5632  -33.5681 C   0  0  1  0  0  0  0  0  0  0  0  0
   -7.2278   10.0241  -29.1619 O   0  0  0  0  0  0  0  0  0  0  0  0
   -6.3799    6.6656  -34.3247 O   0  0  0  0  0  0  0  0  0  0  0  0
   -5.5726   11.8927  -27.3104 Br  0  0  0  0  0  0  0  0  0  0  0  0
   -3.5573   12.6579  -31.8177 H   0  0  0  0  0  0  0  0  0  0  0  0
   -5.0480   11.0777  -33.0003 H   0  0  0  0  0  0  0  0  0  0  0  0
   -3.7835   13.0031  -29.3884 H   0  0  0  0  0  0  0  0  0  0  0  0
   -7.5332    6.1560  -31.9502 H   0  0  0  0  0  0  0  0  0  0  0  0
   -8.7931    7.4037  -32.1108 H   0  0  0  0  0  0  0  0  0  0  0  0
   -8.7029    6.0493  -33.2573 H   0  0  0  0  0  0  0  0  0  0  0  0
   -7.7437    9.0986  -31.2609 H   0  0  0  0  0  0  0  0  0  0  0  0
   -7.6534   10.1478  -32.6537 H   0  0  0  0  0  0  0  0  0  0  0  0
   -5.6643    7.8857  -32.0644 H   0  0  0  0  0  0  0  0  0  0  0  0
   -5.5923    9.0055  -33.4258 H   0  0  0  0  0  0  0  0  0  0  0  0
   -7.7925    8.1479  -34.2687 H   0  0  0  0  0  0  0  0  0  0  0  0
   -7.2015   10.2577  -28.2216 H   0  0  0  0  0  0  0  0  0  0  0  0
   -5.8081    7.2128  -34.8854 H   0  0  0  0  0  0  0  0  0  0  0  0
  1  2  1  0  0  0  0
  1  3  2  0  0  0  0
  2  4  2  0  0  0  0
  3  6  1  0  0  0  0
  4  5  1  0  0  0  0
  4  8  1  0  0  0  0
  5  6  2  0  0  0  0
  5 11  1  0  0  0  0
  6 13  1  0  0  0  0
  7 10  1  6  0  0  0
  8  9  1  0  0  0  0
  9 10  1  0  0  0  0
 10 12  1  0  0  0  0
  1 14  1  0  0  0  0
  2 15  1  0  0  0  0
  3 16  1  0  0  0  0
  7 17  1  0  0  0  0
  7 18  1  0  0  0  0
  7 19  1  0  0  0  0
  8 20  1  0  0  0  0
  8 21  1  0  0  0  0
  9 22  1  0  0  0  0
  9 23  1  0  0  0  0
 10 24  1  0  0  0  0
 11 25  1  0  0  0  0
 12 26  1  0  0  0  0
M  END
> <id>
EN300-1923414

> <smiles>
C[C@H](O)CCC=1C=CC=C(Br)C1O

> <IUPAC Name>
2-bromo-6-[(3S)-3-hydroxybutyl]phenol

> <CAS>
2227692-84-2

> <URL>
https://www.enaminestore.com/catalog/EN300-1923414

> <ROCS_ShapeQuery>
_x1604L0AP1_x0771L0AP1

> <ROCS_TanimotoCombo>
0.963 

> <ROCS_ShapeTanimoto>
0.488 

> <ROCS_ColorTanimoto>
0.475 

> <ROCS_RefTversky>
0.443 

> <ROCS_RefColorTversky>
0.499 

> <ROCS_RefTverskyCombo>
0.943 

> <ROCS_FitTversky>
1.262 

> <ROCS_FitColorTversky>
0.907 

> <ROCS_FitTverskyCombo>
2.169 

> <ROCS_ColorScore>
-5.701

> <ROCS_Overlap>
750.789

> <ROCS_Rank>
30                  

$$$$
untitled-dbase-393_72
  -OEChem-06042309053D

 25 25  0     1  0  0  0  0  0999 V2000
   -5.1556   11.1852  -31.9354 C   0  0  0  0  0  0  0  0  0  0  0  0
   -4.4310   12.2749  -29.9044 C   0  0  0  0  0  0  0  0  0  0  0  0
   -6.1383   10.5025  -31.2185 C   0  0  0  0  0  0  0  0  0  0  0  0
   -6.2674   10.7061  -29.8446 C   0  0  0  0  0  0  0  0  0  0  0  0
   -4.3019   12.0713  -31.2783 C   0  0  0  0  0  0  0  0  0  0  0  0
   -5.4138   11.5922  -29.1876 C   0  0  0  0  0  0  0  0  0  0  0  0
   -6.3101    8.4026  -32.6610 C   0  0  0  0  0  0  0  0  0  0  0  0
   -7.1406    7.7254  -33.7463 C   0  0  0  0  0  0  0  0  0  0  0  0
   -7.0544    9.5452  -31.9517 C   0  0  2  0  0  0  0  0  0  0  0  0
   -7.8828   10.2660  -32.8943 N   0  0  0  0  0  0  0  0  0  0  0  0
   -7.2337   10.0306  -29.1572 O   0  0  0  0  0  0  0  0  0  0  0  0
   -6.3717    6.6769  -34.3217 O   0  0  0  0  0  0  0  0  0  0  0  0
   -3.0893   12.9133  -32.1634 Cl  0  0  0  0  0  0  0  0  0  0  0  0
   -5.5580   11.8953  -27.3215 Br  0  0  0  0  0  0  0  0  0  0  0  0
   -5.0585   11.0240  -33.0070 H   0  0  0  0  0  0  0  0  0  0  0  0
   -3.7630   12.9664  -29.3957 H   0  0  0  0  0  0  0  0  0  0  0  0
   -5.3917    8.7950  -33.1195 H   0  0  0  0  0  0  0  0  0  0  0  0
   -5.9622    7.6475  -31.9437 H   0  0  0  0  0  0  0  0  0  0  0  0
   -8.0568    7.2906  -33.3359 H   0  0  0  0  0  0  0  0  0  0  0  0
   -7.4039    8.4360  -34.5360 H   0  0  0  0  0  0  0  0  0  0  0  0
   -7.7606    9.0997  -31.2397 H   0  0  0  0  0  0  0  0  0  0  0  0
   -8.5035    9.6239  -33.3370 H   0  0  0  0  0  0  0  0  0  0  0  0
   -8.4033   10.9595  -32.4028 H   0  0  0  0  0  0  0  0  0  0  0  0
   -7.2041   10.2712  -28.2188 H   0  0  0  0  0  0  0  0  0  0  0  0
   -6.9253    6.2672  -35.0058 H   0  0  0  0  0  0  0  0  0  0  0  0
  1  3  2  0  0  0  0
  1  5  1  0  0  0  0
  2  5  2  0  0  0  0
  2  6  1  0  0  0  0
  3  4  1  0  0  0  0
  3  9  1  0  0  0  0
  4  6  2  0  0  0  0
  4 11  1  0  0  0  0
  5 13  1  0  0  0  0
  6 14  1  0  0  0  0
  7  8  1  0  0  0  0
  7  9  1  0  0  0  0
  8 12  1  0  0  0  0
  9 10  1  0  0  0  0
  1 15  1  0  0  0  0
  2 16  1  0  0  0  0
  7 17  1  0  0  0  0
  7 18  1  0  0  0  0
  8 19  1  0  0  0  0
  8 20  1  0  0  0  0
  9 21  1  0  0  0  0
 10 22  1  0  0  0  0
 10 23  1  0  0  0  0
 11 24  1  0  0  0  0
 12 25  1  0  0  0  0
M  END
> <id>
EN300-1913214

> <smiles>
NC(CCO)C=1C=C(Cl)C=C(Br)C1O

> <MDLNUMBER>
MFCD24395937

> <IUPAC Name>
2-(1-amino-3-hydroxypropyl)-6-bromo-4-chlorophenol

> <CAS>
1337048-28-8

> <URL>
https://www.enaminestore.com/catalog/EN300-1913214

> <ROCS_ShapeQuery>
_x1604L0AP1_x0771L0AP1

> <ROCS_TanimotoCombo>
0.962 

> <ROCS_ShapeTanimoto>
0.555 

> <ROCS_ColorTanimoto>
0.406 

> <ROCS_RefTversky>
0.490 

> <ROCS_RefColorTversky>
0.494 

> <ROCS_RefTverskyCombo>
0.984 

> <ROCS_FitTversky>
1.316 

> <ROCS_FitColorTversky>
0.695 

> <ROCS_FitTverskyCombo>
2.011 

> <ROCS_ColorScore>
-5.693

> <ROCS_Overlap>
831.365

> <ROCS_Rank>
31                  

$$$$
untitled-dbase-493_57
  -OEChem-06042309053D

 20 20  0     0  0  0  0  0  0999 V2000
   -4.9078   11.7408  -31.5530 C   0  0  0  0  0  0  0  0  0  0  0  0
   -4.4389   12.4895  -29.3043 C   0  0  0  0  0  0  0  0  0  0  0  0
   -5.9250   10.9192  -31.0674 C   0  0  0  0  0  0  0  0  0  0  0  0
   -6.1992   10.8827  -29.7002 C   0  0  0  0  0  0  0  0  0  0  0  0
   -4.1647   12.5260  -30.6715 C   0  0  0  0  0  0  0  0  0  0  0  0
   -5.4561   11.6679  -28.8186 C   0  0  0  0  0  0  0  0  0  0  0  0
   -7.2171    8.9180  -31.6414 C   0  0  0  0  0  0  0  0  0  0  0  0
   -6.6844   10.1101  -32.0118 C   0  0  0  0  0  0  0  0  0  0  0  0
   -6.9372   10.6265  -33.4158 C   0  0  0  0  0  0  0  0  0  0  0  0
   -7.1964   10.0762  -29.2303 O   0  0  0  0  0  0  0  0  0  0  0  0
   -2.9096   13.5398  -31.2707 Cl  0  0  0  0  0  0  0  0  0  0  0  0
   -7.0917    9.2702  -34.5591 Cl  0  0  0  0  0  0  0  0  0  0  0  0
   -5.7976   11.6468  -26.9535 Br  0  0  0  0  0  0  0  0  0  0  0  0
   -4.6919   11.7717  -32.6193 H   0  0  0  0  0  0  0  0  0  0  0  0
   -3.8565   13.1034  -28.6200 H   0  0  0  0  0  0  0  0  0  0  0  0
   -7.7840    8.3091  -32.3382 H   0  0  0  0  0  0  0  0  0  0  0  0
   -7.0915    8.5185  -30.6398 H   0  0  0  0  0  0  0  0  0  0  0  0
   -7.8637   11.2058  -33.4893 H   0  0  0  0  0  0  0  0  0  0  0  0
   -6.1280   11.2759  -33.7614 H   0  0  0  0  0  0  0  0  0  0  0  0
   -7.2647   10.1602  -28.2675 H   0  0  0  0  0  0  0  0  0  0  0  0
  1  3  2  0  0  0  0
  1  5  1  0  0  0  0
  2  5  2  0  0  0  0
  2  6  1  0  0  0  0
  3  4  1  0  0  0  0
  3  8  1  0  0  0  0
  4  6  2  0  0  0  0
  4 10  1  0  0  0  0
  5 11  1  0  0  0  0
  6 13  1  0  0  0  0
  7  8  2  0  0  0  0
  8  9  1  0  0  0  0
  9 12  1  0  0  0  0
  1 14  1  0  0  0  0
  2 15  1  0  0  0  0
  7 16  1  0  0  0  0
  7 17  1  0  0  0  0
  9 18  1  0  0  0  0
  9 19  1  0  0  0  0
 10 20  1  0  0  0  0
M  END
> <id>
EN300-1922944

> <smiles>
OC=1C(Br)=CC(Cl)=CC1C(=C)CCl

> <IUPAC Name>
2-bromo-4-chloro-6-(3-chloroprop-1-en-2-yl)phenol

> <CAS>
2228542-26-3

> <URL>
https://www.enaminestore.com/catalog/EN300-1922944

> <ROCS_ShapeQuery>
_x1604L0AP1_x0771L0AP1

> <ROCS_TanimotoCombo>
0.962 

> <ROCS_ShapeTanimoto>
0.585 

> <ROCS_ColorTanimoto>
0.376 

> <ROCS_RefTversky>
0.498 

> <ROCS_RefColorTversky>
0.402 

> <ROCS_RefTverskyCombo>
0.900 

> <ROCS_FitTversky>
1.427 

> <ROCS_FitColorTversky>
0.856 

> <ROCS_FitTverskyCombo>
2.283 

> <ROCS_ColorScore>
-4.567

> <ROCS_Overlap>
843.804

> <ROCS_Rank>
32                  

$$$$
untitled-dbase-79_255
  -OEChem-06042309053D

 31 31  0     0  0  0  0  0  0999 V2000
   -4.2935   12.5678  -30.7202 C   0  0  0  0  0  0  0  0  0  0  0  0
   -4.8127   11.5201  -31.4806 C   0  0  0  0  0  0  0  0  0  0  0  0
   -4.7528   12.7805  -29.4203 C   0  0  0  0  0  0  0  0  0  0  0  0
   -5.7912   10.6851  -30.9413 C   0  0  0  0  0  0  0  0  0  0  0  0
   -6.2505   10.8977  -29.6415 C   0  0  0  0  0  0  0  0  0  0  0  0
   -5.7312   11.9454  -28.8810 C   0  0  0  0  0  0  0  0  0  0  0  0
   -6.7951    9.1742  -35.4742 C   0  0  0  0  0  0  0  0  0  0  0  0
   -8.2969    8.5142  -33.5819 C   0  0  0  0  0  0  0  0  0  0  0  0
   -6.3372    9.5641  -31.7777 C   0  0  0  0  0  0  0  0  0  0  0  0
   -5.9655    7.5401  -33.7653 C   0  0  0  0  0  0  0  0  0  0  0  0
   -6.8425    8.7843  -33.9907 C   0  0  0  0  0  0  0  0  0  0  0  0
   -6.3237    9.8875  -33.1991 N   0  0  0  0  0  0  0  0  0  0  0  0
   -7.2094   10.0732  -29.1284 O   0  0  0  0  0  0  0  0  0  0  0  0
   -6.4102    6.4380  -34.5481 O   0  0  0  0  0  0  0  0  0  0  0  0
   -6.3283   12.2666  -27.1106 Br  0  0  0  0  0  0  0  0  0  0  0  0
   -3.5313   13.2178  -31.1398 H   0  0  0  0  0  0  0  0  0  0  0  0
   -4.4475   11.3602  -32.4916 H   0  0  0  0  0  0  0  0  0  0  0  0
   -4.3359   13.6017  -28.8427 H   0  0  0  0  0  0  0  0  0  0  0  0
   -5.7686    9.3748  -35.8009 H   0  0  0  0  0  0  0  0  0  0  0  0
   -7.2005    8.3757  -36.1065 H   0  0  0  0  0  0  0  0  0  0  0  0
   -7.3916   10.0737  -35.6666 H   0  0  0  0  0  0  0  0  0  0  0  0
   -8.3744    8.2317  -32.5260 H   0  0  0  0  0  0  0  0  0  0  0  0
   -8.7336    7.7073  -34.1806 H   0  0  0  0  0  0  0  0  0  0  0  0
   -8.9162    9.4084  -33.7189 H   0  0  0  0  0  0  0  0  0  0  0  0
   -5.7474    8.6523  -31.6337 H   0  0  0  0  0  0  0  0  0  0  0  0
   -7.3698    9.3314  -31.4971 H   0  0  0  0  0  0  0  0  0  0  0  0
   -4.9261    7.7409  -34.0470 H   0  0  0  0  0  0  0  0  0  0  0  0
   -5.9725    7.2311  -32.7137 H   0  0  0  0  0  0  0  0  0  0  0  0
   -6.8968   10.7170  -33.3578 H   0  0  0  0  0  0  0  0  0  0  0  0
   -7.4278   10.3401  -28.2226 H   0  0  0  0  0  0  0  0  0  0  0  0
   -5.8127    5.6988  -34.3527 H   0  0  0  0  0  0  0  0  0  0  0  0
  1  2  1  0  0  0  0
  1  3  2  0  0  0  0
  2  4  2  0  0  0  0
  3  6  1  0  0  0  0
  4  5  1  0  0  0  0
  4  9  1  0  0  0  0
  5  6  2  0  0  0  0
  5 13  1  0  0  0  0
  6 15  1  0  0  0  0
  7 11  1  0  0  0  0
  8 11  1  0  0  0  0
  9 12  1  0  0  0  0
 10 11  1  0  0  0  0
 10 14  1  0  0  0  0
 11 12  1  0  0  0  0
  1 16  1  0  0  0  0
  2 17  1  0  0  0  0
  3 18  1  0  0  0  0
  7 19  1  0  0  0  0
  7 20  1  0  0  0  0
  7 21  1  0  0  0  0
  8 22  1  0  0  0  0
  8 23  1  0  0  0  0
  8 24  1  0  0  0  0
  9 25  1  0  0  0  0
  9 26  1  0  0  0  0
 10 27  1  0  0  0  0
 10 28  1  0  0  0  0
 12 29  1  0  0  0  0
 13 30  1  0  0  0  0
 14 31  1  0  0  0  0
M  END
> <id>
EN300-167849

> <smiles>
CC(C)(CO)NCC=1C=CC=C(Br)C1O

> <MDLNUMBER>
MFCD14656585

> <IUPAC Name>
2-bromo-6-{[(1-hydroxy-2-methylpropan-2-yl)amino]methyl}phenol

> <CAS>
1249545-88-7

> <URL>
https://www.enaminestore.com/catalog/EN300-167849

> <ROCS_ShapeQuery>
_x1604L0AP1_x0771L0AP1

> <ROCS_TanimotoCombo>
0.960 

> <ROCS_ShapeTanimoto>
0.577 

> <ROCS_ColorTanimoto>
0.383 

> <ROCS_RefTversky>
0.513 

> <ROCS_RefColorTversky>
0.496 

> <ROCS_RefTverskyCombo>
1.009 

> <ROCS_FitTversky>
1.278 

> <ROCS_FitColorTversky>
0.627 

> <ROCS_FitTverskyCombo>
1.905 

> <ROCS_ColorScore>
-5.733

> <ROCS_Overlap>
871.576

> <ROCS_Rank>
33                  

$$$$
untitled-dbase-1998_7
  -OEChem-06042309053D

 23 23  0     0  0  0  0  0  0999 V2000
   -6.9315   10.0357  -33.3371 C   0  0  0  0  0  0  0  0  0  0  0  0
   -5.0101   11.3393  -31.7554 C   0  0  0  0  0  0  0  0  0  0  0  0
   -4.4975   12.4617  -29.6782 C   0  0  0  0  0  0  0  0  0  0  0  0
   -6.0082   10.6066  -31.1132 C   0  0  0  0  0  0  0  0  0  0  0  0
   -6.2511   10.8015  -29.7535 C   0  0  0  0  0  0  0  0  0  0  0  0
   -4.2547   12.2668  -31.0379 C   0  0  0  0  0  0  0  0  0  0  0  0
   -5.4957   11.7290  -29.0360 C   0  0  0  0  0  0  0  0  0  0  0  0
   -8.2696    9.3874  -31.4038 C   0  0  0  0  0  0  0  0  0  0  0  0
   -6.1277    8.2147  -31.8790 C   0  0  0  0  0  0  0  0  0  0  0  0
   -6.8053    9.6186  -31.9001 C   0  0  0  0  0  0  0  0  0  0  0  0
   -7.0140   10.3817  -34.4420 N   0  0  0  0  0  0  0  0  0  0  0  0
   -7.2311   10.0769  -29.1394 O   0  0  0  0  0  0  0  0  0  0  0  0
   -3.0229   13.1705  -31.8308 Cl  0  0  0  0  0  0  0  0  0  0  0  0
   -5.7959   12.0219  -27.1870 Br  0  0  0  0  0  0  0  0  0  0  0  0
   -4.8241   11.1846  -32.8161 H   0  0  0  0  0  0  0  0  0  0  0  0
   -3.9059   13.1857  -29.1222 H   0  0  0  0  0  0  0  0  0  0  0  0
   -8.2831    9.0760  -30.3519 H   0  0  0  0  0  0  0  0  0  0  0  0
   -8.7668    8.6105  -31.9962 H   0  0  0  0  0  0  0  0  0  0  0  0
   -8.8871   10.2921  -31.4730 H   0  0  0  0  0  0  0  0  0  0  0  0
   -6.0013    7.8421  -30.8557 H   0  0  0  0  0  0  0  0  0  0  0  0
   -6.7420    7.4863  -32.4217 H   0  0  0  0  0  0  0  0  0  0  0  0
   -5.1307    8.2180  -32.3367 H   0  0  0  0  0  0  0  0  0  0  0  0
   -7.2848   10.3174  -28.2020 H   0  0  0  0  0  0  0  0  0  0  0  0
  1 10  1  0  0  0  0
  1 11  3  0  0  0  0
  2  4  2  0  0  0  0
  2  6  1  0  0  0  0
  3  6  2  0  0  0  0
  3  7  1  0  0  0  0
  4  5  1  0  0  0  0
  4 10  1  0  0  0  0
  5  7  2  0  0  0  0
  5 12  1  0  0  0  0
  6 13  1  0  0  0  0
  7 14  1  0  0  0  0
  8 10  1  0  0  0  0
  9 10  1  0  0  0  0
  2 15  1  0  0  0  0
  3 16  1  0  0  0  0
  8 17  1  0  0  0  0
  8 18  1  0  0  0  0
  8 19  1  0  0  0  0
  9 20  1  0  0  0  0
  9 21  1  0  0  0  0
  9 22  1  0  0  0  0
 12 23  1  0  0  0  0
M  END
> <id>
EN300-1894037

> <smiles>
CC(C)(C#N)C=1C=C(Cl)C=C(Br)C1O

> <MDLNUMBER>
MFCD19695247

> <IUPAC Name>
2-(3-bromo-5-chloro-2-hydroxyphenyl)-2-methylpropanenitrile

> <CAS>
1314650-10-6

> <URL>
https://www.enaminestore.com/catalog/EN300-1894037

> <ROCS_ShapeQuery>
_x1604L0AP1_x0771L0AP1

> <ROCS_TanimotoCombo>
0.958 

> <ROCS_ShapeTanimoto>
0.582 

> <ROCS_ColorTanimoto>
0.375 

> <ROCS_RefTversky>
0.508 

> <ROCS_RefColorTversky>
0.423 

> <ROCS_RefTverskyCombo>
0.931 

> <ROCS_FitTversky>
1.338 

> <ROCS_FitColorTversky>
0.769 

> <ROCS_FitTverskyCombo>
2.107 

> <ROCS_ColorScore>
-4.831

> <ROCS_Overlap>
861.345

> <ROCS_Rank>
34                  

$$$$
untitled-dbase-875_5
  -OEChem-06042309053D

 24 24  0     0  0  0  0  0  0999 V2000
   -7.0104   10.4016  -34.4802 C   0  0  0  0  0  0  0  0  0  0  0  0
   -6.9253   10.0423  -33.3373 C   0  0  0  0  0  0  0  0  0  0  0  0
   -5.0070   11.3457  -31.7503 C   0  0  0  0  0  0  0  0  0  0  0  0
   -4.4984   12.4662  -29.6711 C   0  0  0  0  0  0  0  0  0  0  0  0
   -6.0054   10.6114  -31.1104 C   0  0  0  0  0  0  0  0  0  0  0  0
   -6.2504   10.8045  -29.7508 C   0  0  0  0  0  0  0  0  0  0  0  0
   -4.2534   12.2731  -31.0306 C   0  0  0  0  0  0  0  0  0  0  0  0
   -5.4969   11.7319  -29.0312 C   0  0  0  0  0  0  0  0  0  0  0  0
   -6.1230    8.2190  -31.8783 C   0  0  0  0  0  0  0  0  0  0  0  0
   -8.2652    9.3900  -31.4041 C   0  0  0  0  0  0  0  0  0  0  0  0
   -6.8233    9.5952  -31.9223 C   0  0  0  0  0  0  0  0  0  0  0  0
   -7.2306   10.0782  -29.1390 O   0  0  0  0  0  0  0  0  0  0  0  0
   -3.0214   13.1788  -31.8207 Cl  0  0  0  0  0  0  0  0  0  0  0  0
   -5.8000   12.0223  -27.1822 Br  0  0  0  0  0  0  0  0  0  0  0  0
   -7.0859   10.7202  -35.4934 H   0  0  0  0  0  0  0  0  0  0  0  0
   -4.8193   11.1925  -32.8110 H   0  0  0  0  0  0  0  0  0  0  0  0
   -3.9083   13.1900  -29.1134 H   0  0  0  0  0  0  0  0  0  0  0  0
   -6.0189    7.8365  -30.8562 H   0  0  0  0  0  0  0  0  0  0  0  0
   -5.1103    8.2741  -32.2965 H   0  0  0  0  0  0  0  0  0  0  0  0
   -6.6821    7.4722  -32.4546 H   0  0  0  0  0  0  0  0  0  0  0  0
   -8.2680    9.0574  -30.3582 H   0  0  0  0  0  0  0  0  0  0  0  0
   -8.8476   10.3176  -31.4501 H   0  0  0  0  0  0  0  0  0  0  0  0
   -8.7980    8.6233  -31.9801 H   0  0  0  0  0  0  0  0  0  0  0  0
   -7.2859   10.3176  -28.2014 H   0  0  0  0  0  0  0  0  0  0  0  0
  1  2  3  0  0  0  0
  2 11  1  0  0  0  0
  3  5  2  0  0  0  0
  3  7  1  0  0  0  0
  4  7  2  0  0  0  0
  4  8  1  0  0  0  0
  5  6  1  0  0  0  0
  5 11  1  0  0  0  0
  6  8  2  0  0  0  0
  6 12  1  0  0  0  0
  7 13  1  0  0  0  0
  8 14  1  0  0  0  0
  9 11  1  0  0  0  0
 10 11  1  0  0  0  0
  1 15  1  0  0  0  0
  3 16  1  0  0  0  0
  4 17  1  0  0  0  0
  9 18  1  0  0  0  0
  9 19  1  0  0  0  0
  9 20  1  0  0  0  0
 10 21  1  0  0  0  0
 10 22  1  0  0  0  0
 10 23  1  0  0  0  0
 12 24  1  0  0  0  0
M  END
> <id>
EN300-1922887

> <smiles>
CC(C)(C#C)C=1C=C(Cl)C=C(Br)C1O

> <IUPAC Name>
2-bromo-4-chloro-6-(2-methylbut-3-yn-2-yl)phenol

> <CAS>
2228245-83-6

> <URL>
https://www.enaminestore.com/catalog/EN300-1922887

> <ROCS_ShapeQuery>
_x1604L0AP1_x0771L0AP1

> <ROCS_TanimotoCombo>
0.957 

> <ROCS_ShapeTanimoto>
0.582 

> <ROCS_ColorTanimoto>
0.375 

> <ROCS_RefTversky>
0.507 

> <ROCS_RefColorTversky>
0.423 

> <ROCS_RefTverskyCombo>
0.930 

> <ROCS_FitTversky>
1.340 

> <ROCS_FitColorTversky>
0.769 

> <ROCS_FitTverskyCombo>
2.109 

> <ROCS_ColorScore>
-4.832

> <ROCS_Overlap>
860.223

> <ROCS_Rank>
35                  

$$$$
untitled-dbase-2103_0
  -OEChem-06042309053D

 37 37  0     0  0  0  0  0  0999 V2000
   -5.0581   11.1771  -31.7716 C   0  0  0  0  0  0  0  0  0  0  0  0
   -4.5917   12.5132  -29.8136 C   0  0  0  0  0  0  0  0  0  0  0  0
   -4.3387   12.1966  -31.1482 C   0  0  0  0  0  0  0  0  0  0  0  0
   -6.0308   10.4744  -31.0604 C   0  0  0  0  0  0  0  0  0  0  0  0
   -6.2838   10.7910  -29.7258 C   0  0  0  0  0  0  0  0  0  0  0  0
   -5.5643   11.8105  -29.1023 C   0  0  0  0  0  0  0  0  0  0  0  0
   -3.9170   13.6681  -33.1489 C   0  0  0  0  0  0  0  0  0  0  0  0
   -2.1778   11.9974  -32.4279 C   0  0  0  0  0  0  0  0  0  0  0  0
   -2.5580   14.0682  -31.1056 C   0  0  0  0  0  0  0  0  0  0  0  0
   -6.3283    9.2255  -33.2278 C   0  0  0  0  0  0  0  0  0  0  0  0
   -8.3201    9.6896  -31.7604 C   0  0  0  0  0  0  0  0  0  0  0  0
   -6.6507    7.9665  -31.1082 C   0  0  0  0  0  0  0  0  0  0  0  0
   -3.2678   12.9725  -31.9328 C   0  0  0  0  0  0  0  0  0  0  0  0
   -6.7903    9.3872  -31.7472 C   0  0  0  0  0  0  0  0  0  0  0  0
   -7.2399   10.0957  -29.0438 O   0  0  0  0  0  0  0  0  0  0  0  0
   -5.8792   12.2706  -27.2902 Br  0  0  0  0  0  0  0  0  0  0  0  0
   -4.8615   10.9317  -32.8127 H   0  0  0  0  0  0  0  0  0  0  0  0
   -4.0254   13.3091  -29.3350 H   0  0  0  0  0  0  0  0  0  0  0  0
   -3.1735   14.2296  -33.7266 H   0  0  0  0  0  0  0  0  0  0  0  0
   -4.3825   12.9530  -33.8360 H   0  0  0  0  0  0  0  0  0  0  0  0
   -4.6946   14.3730  -32.8313 H   0  0  0  0  0  0  0  0  0  0  0  0
   -1.3910   12.5078  -32.9941 H   0  0  0  0  0  0  0  0  0  0  0  0
   -1.6896   11.4903  -31.5874 H   0  0  0  0  0  0  0  0  0  0  0  0
   -2.6049   11.2264  -33.0800 H   0  0  0  0  0  0  0  0  0  0  0  0
   -1.8053   14.5920  -31.7072 H   0  0  0  0  0  0  0  0  0  0  0  0
   -3.2655   14.8246  -30.7461 H   0  0  0  0  0  0  0  0  0  0  0  0
   -2.0389   13.6457  -30.2374 H   0  0  0  0  0  0  0  0  0  0  0  0
   -6.8710    8.4326  -33.7556 H   0  0  0  0  0  0  0  0  0  0  0  0
   -6.4768   10.1490  -33.7983 H   0  0  0  0  0  0  0  0  0  0  0  0
   -5.2599    8.9823  -33.2680 H   0  0  0  0  0  0  0  0  0  0  0  0
   -8.8825    8.8952  -32.2631 H   0  0  0  0  0  0  0  0  0  0  0  0
   -8.7396    9.7902  -30.7525 H   0  0  0  0  0  0  0  0  0  0  0  0
   -8.5179   10.6241  -32.2988 H   0  0  0  0  0  0  0  0  0  0  0  0
   -7.2256    7.2038  -31.6472 H   0  0  0  0  0  0  0  0  0  0  0  0
   -5.6043    7.6396  -31.1075 H   0  0  0  0  0  0  0  0  0  0  0  0
   -7.0091    7.9674  -30.0722 H   0  0  0  0  0  0  0  0  0  0  0  0
   -7.3043   10.4237  -28.1340 H   0  0  0  0  0  0  0  0  0  0  0  0
  1  3  1  0  0  0  0
  1  4  2  0  0  0  0
  2  3  2  0  0  0  0
  2  6  1  0  0  0  0
  3 13  1  0  0  0  0
  4  5  1  0  0  0  0
  4 14  1  0  0  0  0
  5  6  2  0  0  0  0
  5 15  1  0  0  0  0
  6 16  1  0  0  0  0
  7 13  1  0  0  0  0
  8 13  1  0  0  0  0
  9 13  1  0  0  0  0
 10 14  1  0  0  0  0
 11 14  1  0  0  0  0
 12 14  1  0  0  0  0
  1 17  1  0  0  0  0
  2 18  1  0  0  0  0
  7 19  1  0  0  0  0
  7 20  1  0  0  0  0
  7 21  1  0  0  0  0
  8 22  1  0  0  0  0
  8 23  1  0  0  0  0
  8 24  1  0  0  0  0
  9 25  1  0  0  0  0
  9 26  1  0  0  0  0
  9 27  1  0  0  0  0
 10 28  1  0  0  0  0
 10 29  1  0  0  0  0
 10 30  1  0  0  0  0
 11 31  1  0  0  0  0
 11 32  1  0  0  0  0
 11 33  1  0  0  0  0
 12 34  1  0  0  0  0
 12 35  1  0  0  0  0
 12 36  1  0  0  0  0
 15 37  1  0  0  0  0
M  END
> <id>
EN300-62308

> <smiles>
CC(C)(C)C=1C=C(Br)C(O)=C(C1)C(C)(C)C

> <MDLNUMBER>
MFCD00051597

> <IUPAC Name>
2-bromo-4,6-di-tert-butylphenol

> <CAS>
20834-61-1

> <Purity>
95

> <URL>
https://www.enaminestore.com/catalog/EN300-62308

> <ROCS_ShapeQuery>
_x1604L0AP1_x0771L0AP1

> <ROCS_TanimotoCombo>
0.955 

> <ROCS_ShapeTanimoto>
0.575 

> <ROCS_ColorTanimoto>
0.381 

> <ROCS_RefTversky>
0.520 

> <ROCS_RefColorTversky>
0.428 

> <ROCS_RefTverskyCombo>
0.947 

> <ROCS_FitTversky>
1.225 

> <ROCS_FitColorTversky>
0.777 

> <ROCS_FitTverskyCombo>
2.002 

> <ROCS_ColorScore>
-4.881

> <ROCS_Overlap>
884.130

> <ROCS_Rank>
36                  

$$$$
untitled-dbase-1529_6
  -OEChem-06042309053D

 24 24  0     0  0  0  0  0  0999 V2000
   -4.9418   11.2933  -31.7304 C   0  0  0  0  0  0  0  0  0  0  0  0
   -4.5795   12.5511  -29.6997 C   0  0  0  0  0  0  0  0  0  0  0  0
   -5.9342   10.5492  -31.0924 C   0  0  0  0  0  0  0  0  0  0  0  0
   -6.2494   10.8061  -29.7581 C   0  0  0  0  0  0  0  0  0  0  0  0
   -4.2644   12.2943  -31.0340 C   0  0  0  0  0  0  0  0  0  0  0  0
   -5.5720   11.8070  -29.0617 C   0  0  0  0  0  0  0  0  0  0  0  0
   -6.1459    9.3643  -33.3121 C   0  0  0  0  0  0  0  0  0  0  0  0
   -6.5067    8.0337  -31.2990 C   0  0  0  0  0  0  0  0  0  0  0  0
   -8.1732    9.7745  -31.9301 C   0  0  0  0  0  0  0  0  0  0  0  0
   -6.6660    9.4540  -31.8767 C   0  0  0  0  0  0  0  0  0  0  0  0
   -6.6022    9.9968  -34.2605 O   0  0  0  0  0  0  0  0  0  0  0  0
   -7.2227   10.0693  -29.1479 O   0  0  0  0  0  0  0  0  0  0  0  0
   -3.0397   13.2121  -31.8216 Cl  0  0  0  0  0  0  0  0  0  0  0  0
   -5.9718   12.1855  -27.2474 Br  0  0  0  0  0  0  0  0  0  0  0  0
   -4.6993   11.0902  -32.7714 H   0  0  0  0  0  0  0  0  0  0  0  0
   -4.0486   13.3323  -29.1600 H   0  0  0  0  0  0  0  0  0  0  0  0
   -5.2561    8.7256  -33.4571 H   0  0  0  0  0  0  0  0  0  0  0  0
   -7.0481    7.2907  -31.8957 H   0  0  0  0  0  0  0  0  0  0  0  0
   -5.4528    7.7296  -31.2771 H   0  0  0  0  0  0  0  0  0  0  0  0
   -6.8713    7.9765  -30.2662 H   0  0  0  0  0  0  0  0  0  0  0  0
   -8.7228    9.0061  -32.4863 H   0  0  0  0  0  0  0  0  0  0  0  0
   -8.6154    9.8436  -30.9297 H   0  0  0  0  0  0  0  0  0  0  0  0
   -8.3587   10.7383  -32.4194 H   0  0  0  0  0  0  0  0  0  0  0  0
   -7.3314   10.3578  -28.2290 H   0  0  0  0  0  0  0  0  0  0  0  0
  1  3  2  0  0  0  0
  1  5  1  0  0  0  0
  2  5  2  0  0  0  0
  2  6  1  0  0  0  0
  3  4  1  0  0  0  0
  3 10  1  0  0  0  0
  4  6  2  0  0  0  0
  4 12  1  0  0  0  0
  5 13  1  0  0  0  0
  6 14  1  0  0  0  0
  7 10  1  0  0  0  0
  7 11  2  0  0  0  0
  8 10  1  0  0  0  0
  9 10  1  0  0  0  0
  1 15  1  0  0  0  0
  2 16  1  0  0  0  0
  7 17  1  0  0  0  0
  8 18  1  0  0  0  0
  8 19  1  0  0  0  0
  8 20  1  0  0  0  0
  9 21  1  0  0  0  0
  9 22  1  0  0  0  0
  9 23  1  0  0  0  0
 12 24  1  0  0  0  0
M  END
> <id>
EN300-1922596

> <smiles>
CC(C)(C=O)C=1C=C(Cl)C=C(Br)C1O

> <IUPAC Name>
2-(3-bromo-5-chloro-2-hydroxyphenyl)-2-methylpropanal

> <CAS>
2228203-32-3

> <URL>
https://www.enaminestore.com/catalog/EN300-1922596

> <ROCS_ShapeQuery>
_x1604L0AP1_x0771L0AP1

> <ROCS_TanimotoCombo>
0.955 

> <ROCS_ShapeTanimoto>
0.582 

> <ROCS_ColorTanimoto>
0.373 

> <ROCS_RefTversky>
0.508 

> <ROCS_RefColorTversky>
0.421 

> <ROCS_RefTverskyCombo>
0.929 

> <ROCS_FitTversky>
1.338 

> <ROCS_FitColorTversky>
0.765 

> <ROCS_FitTverskyCombo>
2.103 

> <ROCS_ColorScore>
-4.808

> <ROCS_Overlap>
861.232

> <ROCS_Rank>
37                  

$$$$
untitled-dbase-546_97
  -OEChem-06042309053D

 24 24  0     0  0  0  0  0  0999 V2000
   -4.2968   12.3594  -30.9657 C   0  0  0  0  0  0  0  0  0  0  0  0
   -4.9872   11.3774  -31.6760 C   0  0  0  0  0  0  0  0  0  0  0  0
   -4.5885   12.5817  -29.6199 C   0  0  0  0  0  0  0  0  0  0  0  0
   -5.9694   10.6177  -31.0406 C   0  0  0  0  0  0  0  0  0  0  0  0
   -6.2612   10.8401  -29.6948 C   0  0  0  0  0  0  0  0  0  0  0  0
   -5.5708   11.8221  -28.9844 C   0  0  0  0  0  0  0  0  0  0  0  0
   -6.8261    7.2443  -33.7746 C   0  0  0  0  0  0  0  0  0  0  0  0
   -6.7041    9.5626  -31.8273 C   0  0  0  0  0  0  0  0  0  0  0  0
   -7.2361    8.6558  -34.1194 C   0  0  0  0  0  0  0  0  0  0  0  0
   -6.4562    9.7026  -33.3304 C   0  0  0  0  0  0  0  0  0  0  0  0
   -6.3975    6.4242  -34.5793 O   0  0  0  0  0  0  0  0  0  0  0  0
   -7.2260   10.0898  -29.0875 O   0  0  0  0  0  0  0  0  0  0  0  0
   -5.9372   12.1539  -27.1543 Br  0  0  0  0  0  0  0  0  0  0  0  0
   -3.5317   12.9507  -31.4602 H   0  0  0  0  0  0  0  0  0  0  0  0
   -4.7519   11.2092  -32.7235 H   0  0  0  0  0  0  0  0  0  0  0  0
   -4.0397   13.3511  -29.0826 H   0  0  0  0  0  0  0  0  0  0  0  0
   -6.9376    6.9754  -32.7100 H   0  0  0  0  0  0  0  0  0  0  0  0
   -7.7784    9.6306  -31.6136 H   0  0  0  0  0  0  0  0  0  0  0  0
   -6.3911    8.5685  -31.4831 H   0  0  0  0  0  0  0  0  0  0  0  0
   -7.0779    8.7910  -35.1946 H   0  0  0  0  0  0  0  0  0  0  0  0
   -8.3089    8.7453  -33.9174 H   0  0  0  0  0  0  0  0  0  0  0  0
   -5.3844    9.6026  -33.5450 H   0  0  0  0  0  0  0  0  0  0  0  0
   -6.7437   10.7074  -33.6660 H   0  0  0  0  0  0  0  0  0  0  0  0
   -7.3183   10.3543  -28.1596 H   0  0  0  0  0  0  0  0  0  0  0  0
  1  2  1  0  0  0  0
  1  3  2  0  0  0  0
  2  4  2  0  0  0  0
  3  6  1  0  0  0  0
  4  5  1  0  0  0  0
  4  8  1  0  0  0  0
  5  6  2  0  0  0  0
  5 12  1  0  0  0  0
  6 13  1  0  0  0  0
  7  9  1  0  0  0  0
  7 11  2  0  0  0  0
  8 10  1  0  0  0  0
  9 10  1  0  0  0  0
  1 14  1  0  0  0  0
  2 15  1  0  0  0  0
  3 16  1  0  0  0  0
  7 17  1  0  0  0  0
  8 18  1  0  0  0  0
  8 19  1  0  0  0  0
  9 20  1  0  0  0  0
  9 21  1  0  0  0  0
 10 22  1  0  0  0  0
 10 23  1  0  0  0  0
 12 24  1  0  0  0  0
M  END
> <id>
EN300-1923457

> <smiles>
OC=1C(Br)=CC=CC1CCCC=O

> <IUPAC Name>
4-(3-bromo-2-hydroxyphenyl)butanal

> <CAS>
2229006-63-5

> <URL>
https://www.enaminestore.com/catalog/EN300-1923457

> <ROCS_ShapeQuery>
_x1604L0AP1_x0771L0AP1

> <ROCS_TanimotoCombo>
0.954 

> <ROCS_ShapeTanimoto>
0.546 

> <ROCS_ColorTanimoto>
0.409 

> <ROCS_RefTversky>
0.477 

> <ROCS_RefColorTversky>
0.426 

> <ROCS_RefTverskyCombo>
0.904 

> <ROCS_FitTversky>
1.356 

> <ROCS_FitColorTversky>
0.908 

> <ROCS_FitTverskyCombo>
2.264 

> <ROCS_ColorScore>
-4.845

> <ROCS_Overlap>
809.003

> <ROCS_Rank>
38                  

$$$$
untitled-dbase-1208_446
  -OEChem-06042309053D

 25 25  0     0  0  0  0  0  0999 V2000
   -5.0334   11.4106  -31.7077 C   0  0  0  0  0  0  0  0  0  0  0  0
   -4.5447   12.5237  -29.6198 C   0  0  0  0  0  0  0  0  0  0  0  0
   -6.0156   10.6507  -31.0727 C   0  0  0  0  0  0  0  0  0  0  0  0
   -6.2625   10.8273  -29.7112 C   0  0  0  0  0  0  0  0  0  0  0  0
   -4.2978   12.3471  -30.9812 C   0  0  0  0  0  0  0  0  0  0  0  0
   -5.5270   11.7638  -28.9848 C   0  0  0  0  0  0  0  0  0  0  0  0
   -6.3351    8.8949  -34.0080 C   0  0  0  0  0  0  0  0  0  0  0  0
   -6.9847    7.5472  -33.7229 C   0  0  0  0  0  0  0  0  0  0  0  0
   -6.9303   10.0252  -33.1769 C   0  0  0  0  0  0  0  0  0  0  0  0
   -6.4062    6.4826  -34.4962 N   0  0  0  0  0  0  0  0  0  0  0  0
   -7.2274   10.0743  -29.1082 O   0  0  0  0  0  0  0  0  0  0  0  0
   -6.7302    9.7348  -31.7999 O   0  0  0  0  0  0  0  0  0  0  0  0
   -3.0861   13.2848  -31.7654 Cl  0  0  0  0  0  0  0  0  0  0  0  0
   -5.8338   12.0314  -27.1332 Br  0  0  0  0  0  0  0  0  0  0  0  0
   -4.8467   11.2677  -32.7695 H   0  0  0  0  0  0  0  0  0  0  0  0
   -3.9685   13.2549  -29.0568 H   0  0  0  0  0  0  0  0  0  0  0  0
   -5.2597    8.8297  -33.8005 H   0  0  0  0  0  0  0  0  0  0  0  0
   -6.4202    9.1436  -35.0734 H   0  0  0  0  0  0  0  0  0  0  0  0
   -6.8550    7.2827  -32.6689 H   0  0  0  0  0  0  0  0  0  0  0  0
   -8.0574    7.5736  -33.9396 H   0  0  0  0  0  0  0  0  0  0  0  0
   -6.4460   10.9805  -33.4014 H   0  0  0  0  0  0  0  0  0  0  0  0
   -8.0056   10.1186  -33.3594 H   0  0  0  0  0  0  0  0  0  0  0  0
   -5.4361    6.3949  -34.2699 H   0  0  0  0  0  0  0  0  0  0  0  0
   -6.8762    5.6253  -34.2866 H   0  0  0  0  0  0  0  0  0  0  0  0
   -7.6372    9.4788  -29.7541 H   0  0  0  0  0  0  0  0  0  0  0  0
  1  3  2  0  0  0  0
  1  5  1  0  0  0  0
  2  5  2  0  0  0  0
  2  6  1  0  0  0  0
  3  4  1  0  0  0  0
  3 12  1  0  0  0  0
  4  6  2  0  0  0  0
  4 11  1  0  0  0  0
  5 13  1  0  0  0  0
  6 14  1  0  0  0  0
  7  8  1  0  0  0  0
  7  9  1  0  0  0  0
  8 10  1  0  0  0  0
  9 12  1  0  0  0  0
  1 15  1  0  0  0  0
  2 16  1  0  0  0  0
  7 17  1  0  0  0  0
  7 18  1  0  0  0  0
  8 19  1  0  0  0  0
  8 20  1  0  0  0  0
  9 21  1  0  0  0  0
  9 22  1  0  0  0  0
 10 23  1  0  0  0  0
 10 24  1  0  0  0  0
 11 25  1  0  0  0  0
M  END
> <id>
EN300-1922921

> <smiles>
NCCCOC=1C=C(Cl)C=C(Br)C1O

> <IUPAC Name>
2-(3-aminopropoxy)-6-bromo-4-chlorophenol

> <CAS>
2228220-52-6

> <URL>
https://www.enaminestore.com/catalog/EN300-1922921

> <ROCS_ShapeQuery>
_x1604L0AP1_x0771L0AP1

> <ROCS_TanimotoCombo>
0.954 

> <ROCS_ShapeTanimoto>
0.604 

> <ROCS_ColorTanimoto>
0.351 

> <ROCS_RefTversky>
0.517 

> <ROCS_RefColorTversky>
0.423 

> <ROCS_RefTverskyCombo>
0.940 

> <ROCS_FitTversky>
1.385 

> <ROCS_FitColorTversky>
0.671 

> <ROCS_FitTverskyCombo>
2.056 

> <ROCS_ColorScore>
-4.854

> <ROCS_Overlap>
876.962

> <ROCS_Rank>
39                  

$$$$
untitled-dbase-2223_466
  -OEChem-06042309053D

 22 22  0     1  0  0  0  0  0999 V2000
   -4.4776   12.0625  -31.6842 C   0  0  0  0  0  0  0  0  0  0  0  0
   -4.7153   12.6574  -30.4452 C   0  0  0  0  0  0  0  0  0  0  0  0
   -5.1484   10.8910  -32.0356 C   0  0  0  0  0  0  0  0  0  0  0  0
   -5.6237   12.0807  -29.5575 C   0  0  0  0  0  0  0  0  0  0  0  0
   -6.2944   10.9092  -29.9088 C   0  0  0  0  0  0  0  0  0  0  0  0
   -6.0567   10.3143  -31.1479 C   0  0  0  0  0  0  0  0  0  0  0  0
   -5.5273   11.8068  -27.0560 C   0  0  0  0  0  0  0  0  0  0  0  0
   -5.8623   12.7335  -28.2357 C   0  0  2  0  0  0  0  0  0  0  0  0
   -8.6904   12.7392  -29.9367 N   0  5  0  0  0  0  0  0  0  0  0  0
   -7.2683   13.1688  -28.0801 N   0  0  0  0  0  0  0  0  0  0  0  0
   -7.9998   12.9408  -29.0516 N   0  3  0  0  0  0  0  0  0  0  0  0
   -7.1789   10.3562  -29.0289 O   0  0  0  0  0  0  0  0  0  0  0  0
   -6.1784   12.2711  -25.8782 O   0  0  0  0  0  0  0  0  0  0  0  0
   -6.9487    8.7228  -31.6629 Br  0  0  0  0  0  0  0  0  0  0  0  0
   -3.7707   12.5116  -32.3757 H   0  0  0  0  0  0  0  0  0  0  0  0
   -4.1902   13.5713  -30.1805 H   0  0  0  0  0  0  0  0  0  0  0  0
   -4.9504   10.4421  -33.0057 H   0  0  0  0  0  0  0  0  0  0  0  0
   -5.8491   10.7767  -27.2453 H   0  0  0  0  0  0  0  0  0  0  0  0
   -4.4491   11.8068  -26.8619 H   0  0  0  0  0  0  0  0  0  0  0  0
   -5.2457   13.6439  -28.1360 H   0  0  0  0  0  0  0  0  0  0  0  0
   -7.5652    9.5516  -29.4069 H   0  0  0  0  0  0  0  0  0  0  0  0
   -7.1305   12.2595  -26.0642 H   0  0  0  0  0  0  0  0  0  0  0  0
  1  2  1  0  0  0  0
  1  3  2  0  0  0  0
  2  4  2  0  0  0  0
  3  6  1  0  0  0  0
  4  5  1  0  0  0  0
  4  8  1  0  0  0  0
  5  6  2  0  0  0  0
  5 12  1  0  0  0  0
  6 14  1  0  0  0  0
  7  8  1  0  0  0  0
  7 13  1  0  0  0  0
  8 10  1  0  0  0  0
  9 11  2  0  0  0  0
 10 11  2  0  0  0  0
  1 15  1  0  0  0  0
  2 16  1  0  0  0  0
  3 17  1  0  0  0  0
  7 18  1  0  0  0  0
  7 19  1  0  0  0  0
  8 20  1  0  0  0  0
 12 21  1  0  0  0  0
 13 22  1  0  0  0  0
M  CHG  2   9  -1  11   1
M  END
> <id>
EN300-1923148

> <smiles>
OCC(N=[N+]=[N-])C=1C=CC=C(Br)C1O

> <IUPAC Name>
2-(1-azido-2-hydroxyethyl)-6-bromophenol

> <CAS>
2228645-26-7

> <URL>
https://www.enaminestore.com/catalog/EN300-1923148

> <ROCS_ShapeQuery>
_x1604L0AP1_x0771L0AP1

> <ROCS_TanimotoCombo>
0.954 

> <ROCS_ShapeTanimoto>
0.401 

> <ROCS_ColorTanimoto>
0.553 

> <ROCS_RefTversky>
0.396 

> <ROCS_RefColorTversky>
0.552 

> <ROCS_RefTverskyCombo>
0.948 

> <ROCS_FitTversky>
1.031 

> <ROCS_FitColorTversky>
1.000 

> <ROCS_FitTverskyCombo>
2.031 

> <ROCS_ColorScore>
-6.304

> <ROCS_Overlap>
672.337

> <ROCS_Rank>
40                  

$$$$
untitled-dbase-450_3
  -OEChem-06042309053D

 27 27  0     0  0  0  0  0  0999 V2000
   -4.3434   12.1397  -31.2119 C   0  0  0  0  0  0  0  0  0  0  0  0
   -5.0736   11.1201  -31.8224 C   0  0  0  0  0  0  0  0  0  0  0  0
   -5.5614   11.7812  -29.1564 C   0  0  0  0  0  0  0  0  0  0  0  0
   -4.5873   12.4703  -29.8789 C   0  0  0  0  0  0  0  0  0  0  0  0
   -6.2916   10.7616  -29.7669 C   0  0  0  0  0  0  0  0  0  0  0  0
   -6.0477   10.4310  -31.1000 C   0  0  0  0  0  0  0  0  0  0  0  0
   -3.4468   15.2735  -30.8686 C   0  0  0  0  0  0  0  0  0  0  0  0
   -3.4326   12.9162  -26.9453 C   0  0  0  0  0  0  0  0  0  0  0  0
   -2.8353   14.2238  -30.0043 C   0  0  0  0  0  0  0  0  0  0  0  0
   -4.1045   13.8622  -27.8814 C   0  0  0  0  0  0  0  0  0  0  0  0
   -3.8491   13.5017  -29.2619 N   0  0  0  0  0  0  0  0  0  0  0  0
   -7.2364   10.1073  -29.0337 O   0  0  0  0  0  0  0  0  0  0  0  0
   -7.0206    9.0517  -31.9620 Br  0  0  0  0  0  0  0  0  0  0  0  0
   -3.5876   12.6713  -31.7844 H   0  0  0  0  0  0  0  0  0  0  0  0
   -4.8691   10.8767  -32.8619 H   0  0  0  0  0  0  0  0  0  0  0  0
   -5.7531   12.0368  -28.1168 H   0  0  0  0  0  0  0  0  0  0  0  0
   -4.0032   15.9864  -30.2424 H   0  0  0  0  0  0  0  0  0  0  0  0
   -2.6544   15.8061  -31.4147 H   0  0  0  0  0  0  0  0  0  0  0  0
   -4.1341   14.8023  -31.5867 H   0  0  0  0  0  0  0  0  0  0  0  0
   -2.3470   12.9341  -27.1216 H   0  0  0  0  0  0  0  0  0  0  0  0
   -3.6405   13.2174  -25.9080 H   0  0  0  0  0  0  0  0  0  0  0  0
   -3.8148   11.8988  -27.1153 H   0  0  0  0  0  0  0  0  0  0  0  0
   -2.2811   13.5154  -30.6376 H   0  0  0  0  0  0  0  0  0  0  0  0
   -2.1428   14.7011  -29.2953 H   0  0  0  0  0  0  0  0  0  0  0  0
   -5.1889   13.8384  -27.6989 H   0  0  0  0  0  0  0  0  0  0  0  0
   -3.7242   14.8782  -27.6994 H   0  0  0  0  0  0  0  0  0  0  0  0
   -7.6671    9.4271  -29.5743 H   0  0  0  0  0  0  0  0  0  0  0  0
  1  2  1  0  0  0  0
  1  4  2  0  0  0  0
  2  6  2  0  0  0  0
  3  4  1  0  0  0  0
  3  5  2  0  0  0  0
  4 11  1  0  0  0  0
  5  6  1  0  0  0  0
  5 12  1  0  0  0  0
  6 13  1  0  0  0  0
  7  9  1  0  0  0  0
  8 10  1  0  0  0  0
  9 11  1  0  0  0  0
 10 11  1  0  0  0  0
  1 14  1  0  0  0  0
  2 15  1  0  0  0  0
  3 16  1  0  0  0  0
  7 17  1  0  0  0  0
  7 18  1  0  0  0  0
  7 19  1  0  0  0  0
  8 20  1  0  0  0  0
  8 21  1  0  0  0  0
  8 22  1  0  0  0  0
  9 23  1  0  0  0  0
  9 24  1  0  0  0  0
 10 25  1  0  0  0  0
 10 26  1  0  0  0  0
 12 27  1  0  0  0  0
M  END
> <id>
EN300-1926804

> <smiles>
CCN(CC)C=1C=CC(Br)=C(O)C1

> <IUPAC Name>
2-bromo-5-(diethylamino)phenol

> <CAS>
2229002-72-4

> <URL>
https://www.enaminestore.com/catalog/EN300-1926804

> <ROCS_ShapeQuery>
_x1604L0AP1_x0771L0AP1

> <ROCS_TanimotoCombo>
0.954 

> <ROCS_ShapeTanimoto>
0.503 

> <ROCS_ColorTanimoto>
0.451 

> <ROCS_RefTversky>
0.454 

> <ROCS_RefColorTversky>
0.431 

> <ROCS_RefTverskyCombo>
0.885 

> <ROCS_FitTversky>
1.278 

> <ROCS_FitColorTversky>
1.113 

> <ROCS_FitTverskyCombo>
2.390 

> <ROCS_ColorScore>
-4.878

> <ROCS_Overlap>
768.588

> <ROCS_Rank>
41                  

$$$$
untitled-dbase-549_200
  -OEChem-06042309053D

 29 29  0     0  0  0  0  0  0999 V2000
   -4.3460   12.3519  -31.0677 C   0  0  0  0  0  0  0  0  0  0  0  0
   -5.1531   11.5117  -31.8347 C   0  0  0  0  0  0  0  0  0  0  0  0
   -4.4993   12.3918  -29.6818 C   0  0  0  0  0  0  0  0  0  0  0  0
   -6.1135   10.7115  -31.2159 C   0  0  0  0  0  0  0  0  0  0  0  0
   -6.2668   10.7514  -29.8301 C   0  0  0  0  0  0  0  0  0  0  0  0
   -5.4597   11.5916  -29.0630 C   0  0  0  0  0  0  0  0  0  0  0  0
   -5.0480    8.2244  -32.1686 C   0  0  0  0  0  0  0  0  0  0  0  0
   -5.6765    9.4613  -34.2422 C   0  0  0  0  0  0  0  0  0  0  0  0
   -6.9780    9.8095  -32.0662 C   0  0  0  0  0  0  0  0  0  0  0  0
   -7.1467    7.6114  -33.4084 C   0  0  0  0  0  0  0  0  0  0  0  0
   -6.2391    8.7851  -32.9786 C   0  0  0  0  0  0  0  0  0  0  0  0
   -7.2120    9.9638  -29.2395 O   0  0  0  0  0  0  0  0  0  0  0  0
   -6.4393    6.6935  -34.2317 O   0  0  0  0  0  0  0  0  0  0  0  0
   -5.6363   11.6737  -27.1773 Br  0  0  0  0  0  0  0  0  0  0  0  0
   -3.5979   12.9747  -31.5494 H   0  0  0  0  0  0  0  0  0  0  0  0
   -5.0254   11.4851  -32.9136 H   0  0  0  0  0  0  0  0  0  0  0  0
   -3.8608   13.0524  -29.1006 H   0  0  0  0  0  0  0  0  0  0  0  0
   -5.3897    7.7289  -31.2527 H   0  0  0  0  0  0  0  0  0  0  0  0
   -4.3504    9.0174  -31.8770 H   0  0  0  0  0  0  0  0  0  0  0  0
   -4.4854    7.4875  -32.7533 H   0  0  0  0  0  0  0  0  0  0  0  0
   -6.4796    9.8797  -34.8590 H   0  0  0  0  0  0  0  0  0  0  0  0
   -5.1056    8.7587  -34.8579 H   0  0  0  0  0  0  0  0  0  0  0  0
   -4.9994   10.2827  -33.9803 H   0  0  0  0  0  0  0  0  0  0  0  0
   -7.6623    9.2688  -31.3969 H   0  0  0  0  0  0  0  0  0  0  0  0
   -7.6362   10.4426  -32.6775 H   0  0  0  0  0  0  0  0  0  0  0  0
   -7.5335    7.0684  -32.5399 H   0  0  0  0  0  0  0  0  0  0  0  0
   -8.0080    7.9793  -33.9780 H   0  0  0  0  0  0  0  0  0  0  0  0
   -7.2031   10.0966  -28.2794 H   0  0  0  0  0  0  0  0  0  0  0  0
   -7.0634    5.9870  -34.4636 H   0  0  0  0  0  0  0  0  0  0  0  0
  1  2  1  0  0  0  0
  1  3  2  0  0  0  0
  2  4  2  0  0  0  0
  3  6  1  0  0  0  0
  4  5  1  0  0  0  0
  4  9  1  0  0  0  0
  5  6  2  0  0  0  0
  5 12  1  0  0  0  0
  6 14  1  0  0  0  0
  7 11  1  0  0  0  0
  8 11  1  0  0  0  0
  9 11  1  0  0  0  0
 10 11  1  0  0  0  0
 10 13  1  0  0  0  0
  1 15  1  0  0  0  0
  2 16  1  0  0  0  0
  3 17  1  0  0  0  0
  7 18  1  0  0  0  0
  7 19  1  0  0  0  0
  7 20  1  0  0  0  0
  8 21  1  0  0  0  0
  8 22  1  0  0  0  0
  8 23  1  0  0  0  0
  9 24  1  0  0  0  0
  9 25  1  0  0  0  0
 10 26  1  0  0  0  0
 10 27  1  0  0  0  0
 12 28  1  0  0  0  0
 13 29  1  0  0  0  0
M  END
> <id>
EN300-1923475

> <smiles>
CC(C)(CO)CC=1C=CC=C(Br)C1O

> <IUPAC Name>
2-bromo-6-(3-hydroxy-2,2-dimethylpropyl)phenol

> <CAS>
2229231-88-1

> <URL>
https://www.enaminestore.com/catalog/EN300-1923475

> <ROCS_ShapeQuery>
_x1604L0AP1_x0771L0AP1

> <ROCS_TanimotoCombo>
0.953 

> <ROCS_ShapeTanimoto>
0.533 

> <ROCS_ColorTanimoto>
0.420 

> <ROCS_RefTversky>
0.478 

> <ROCS_RefColorTversky>
0.483 

> <ROCS_RefTverskyCombo>
0.961 

> <ROCS_FitTversky>
1.271 

> <ROCS_FitColorTversky>
0.765 

> <ROCS_FitTverskyCombo>
2.036 

> <ROCS_ColorScore>
-5.534

> <ROCS_Overlap>
811.476

> <ROCS_Rank>
42                  

$$$$
untitled-dbase-227_0
  -OEChem-06042309053D

 17 17  0     0  0  0  0  0  0999 V2000
   -5.8632   12.0878  -27.5848 C   0  0  0  0  0  0  0  0  0  0  0  0
   -4.6006   12.5116  -29.6239 C   0  0  0  0  0  0  0  0  0  0  0  0
   -5.0256   11.2405  -31.6341 C   0  0  0  0  0  0  0  0  0  0  0  0
   -5.5908   11.7894  -28.9579 C   0  0  0  0  0  0  0  0  0  0  0  0
   -4.3180   12.2372  -30.9620 C   0  0  0  0  0  0  0  0  0  0  0  0
   -6.2984   10.7928  -29.6300 C   0  0  0  0  0  0  0  0  0  0  0  0
   -6.0158   10.5183  -30.9681 C   0  0  0  0  0  0  0  0  0  0  0  0
   -3.2594   13.0100  -31.6738 C   0  0  0  0  0  0  0  0  0  0  0  0
   -6.0840   12.3298  -26.4715 N   0  0  0  0  0  0  0  0  0  0  0  0
   -7.2687   10.0902  -28.9736 O   0  0  0  0  0  0  0  0  0  0  0  0
   -6.9529    9.1705  -31.9171 Br  0  0  0  0  0  0  0  0  0  0  0  0
   -4.0456   13.2918  -29.1063 H   0  0  0  0  0  0  0  0  0  0  0  0
   -4.7974   11.0331  -32.6772 H   0  0  0  0  0  0  0  0  0  0  0  0
   -2.2869   12.5144  -31.5657 H   0  0  0  0  0  0  0  0  0  0  0  0
   -3.4855   13.1030  -32.7439 H   0  0  0  0  0  0  0  0  0  0  0  0
   -3.1762   14.0302  -31.2770 H   0  0  0  0  0  0  0  0  0  0  0  0
   -7.6664    9.4381  -29.5697 H   0  0  0  0  0  0  0  0  0  0  0  0
  1  4  1  0  0  0  0
  1  9  3  0  0  0  0
  2  4  2  0  0  0  0
  2  5  1  0  0  0  0
  3  5  2  0  0  0  0
  3  7  1  0  0  0  0
  4  6  1  0  0  0  0
  5  8  1  0  0  0  0
  6  7  2  0  0  0  0
  6 10  1  0  0  0  0
  7 11  1  0  0  0  0
  2 12  1  0  0  0  0
  3 13  1  0  0  0  0
  8 14  1  0  0  0  0
  8 15  1  0  0  0  0
  8 16  1  0  0  0  0
 10 17  1  0  0  0  0
M  END
> <id>
EN300-1615109

> <smiles>
CC=1C=C(Br)C(O)=C(C#N)C1

> <MDLNUMBER>
MFCD08457443

> <IUPAC Name>
3-bromo-2-hydroxy-5-methylbenzonitrile

> <CAS>
1032506-48-1

> <URL>
https://www.enaminestore.com/catalog/EN300-1615109

> <ROCS_ShapeQuery>
_x1604L0AP1_x0771L0AP1

> <ROCS_TanimotoCombo>
0.953 

> <ROCS_ShapeTanimoto>
0.462 

> <ROCS_ColorTanimoto>
0.491 

> <ROCS_RefTversky>
0.415 

> <ROCS_RefColorTversky>
0.484 

> <ROCS_RefTverskyCombo>
0.899 

> <ROCS_FitTversky>
1.327 

> <ROCS_FitColorTversky>
1.030 

> <ROCS_FitTverskyCombo>
2.357 

> <ROCS_ColorScore>
-5.497

> <ROCS_Overlap>
701.412

> <ROCS_Rank>
43                  

$$$$
untitled-dbase-38_340
  -OEChem-06042309053D

 25 25  0     0  0  0  0  0  0999 V2000
   -4.3135   12.5179  -30.8056 C   0  0  0  0  0  0  0  0  0  0  0  0
   -4.8449   11.4363  -31.5080 C   0  0  0  0  0  0  0  0  0  0  0  0
   -4.7573   12.7957  -29.5127 C   0  0  0  0  0  0  0  0  0  0  0  0
   -5.8203   10.6327  -30.9177 C   0  0  0  0  0  0  0  0  0  0  0  0
   -6.2642   10.9106  -29.6248 C   0  0  0  0  0  0  0  0  0  0  0  0
   -5.7327   11.9921  -28.9223 C   0  0  0  0  0  0  0  0  0  0  0  0
   -6.3766    9.4806  -31.6880 C   0  0  0  0  0  0  0  0  0  0  0  0
   -6.9191    8.5828  -33.8467 C   0  0  0  0  0  0  0  0  0  0  0  0
   -5.8595    7.5015  -33.9558 C   0  0  0  0  0  0  0  0  0  0  0  0
   -6.3809    9.7242  -33.1074 N   0  0  0  0  0  0  0  0  0  0  0  0
   -7.2202   10.1161  -29.0614 O   0  0  0  0  0  0  0  0  0  0  0  0
   -6.3984    6.3800  -34.6441 O   0  0  0  0  0  0  0  0  0  0  0  0
   -6.3087   12.4021  -27.1633 Br  0  0  0  0  0  0  0  0  0  0  0  0
   -3.5537   13.1434  -31.2650 H   0  0  0  0  0  0  0  0  0  0  0  0
   -4.4917   11.2256  -32.5139 H   0  0  0  0  0  0  0  0  0  0  0  0
   -4.3311   13.6426  -28.9807 H   0  0  0  0  0  0  0  0  0  0  0  0
   -5.7915    8.5683  -31.5100 H   0  0  0  0  0  0  0  0  0  0  0  0
   -7.4098    9.2599  -31.3890 H   0  0  0  0  0  0  0  0  0  0  0  0
   -7.2331    8.9319  -34.8355 H   0  0  0  0  0  0  0  0  0  0  0  0
   -7.7925    8.2068  -33.3054 H   0  0  0  0  0  0  0  0  0  0  0  0
   -5.5567    7.1715  -32.9573 H   0  0  0  0  0  0  0  0  0  0  0  0
   -4.9767    7.8562  -34.4976 H   0  0  0  0  0  0  0  0  0  0  0  0
   -6.9525   10.5479  -33.3214 H   0  0  0  0  0  0  0  0  0  0  0  0
   -7.4274   10.4280  -28.1674 H   0  0  0  0  0  0  0  0  0  0  0  0
   -5.6923    5.7157  -34.6918 H   0  0  0  0  0  0  0  0  0  0  0  0
  1  2  1  0  0  0  0
  1  3  2  0  0  0  0
  2  4  2  0  0  0  0
  3  6  1  0  0  0  0
  4  5  1  0  0  0  0
  4  7  1  0  0  0  0
  5  6  2  0  0  0  0
  5 11  1  0  0  0  0
  6 13  1  0  0  0  0
  7 10  1  0  0  0  0
  8  9  1  0  0  0  0
  8 10  1  0  0  0  0
  9 12  1  0  0  0  0
  1 14  1  0  0  0  0
  2 15  1  0  0  0  0
  3 16  1  0  0  0  0
  7 17  1  0  0  0  0
  7 18  1  0  0  0  0
  8 19  1  0  0  0  0
  8 20  1  0  0  0  0
  9 21  1  0  0  0  0
  9 22  1  0  0  0  0
 10 23  1  0  0  0  0
 11 24  1  0  0  0  0
 12 25  1  0  0  0  0
M  END
> <id>
EN300-167851

> <smiles>
OCCNCC=1C=CC=C(Br)C1O

> <MDLNUMBER>
MFCD14656593

> <IUPAC Name>
2-bromo-6-{[(2-hydroxyethyl)amino]methyl}phenol

> <CAS>
1167416-80-9

> <URL>
https://www.enaminestore.com/catalog/EN300-167851

> <ROCS_ShapeQuery>
_x1604L0AP1_x0771L0AP1

> <ROCS_TanimotoCombo>
0.951 

> <ROCS_ShapeTanimoto>
0.542 

> <ROCS_ColorTanimoto>
0.409 

> <ROCS_RefTversky>
0.475 

> <ROCS_RefColorTversky>
0.497 

> <ROCS_RefTverskyCombo>
0.972 

> <ROCS_FitTversky>
1.347 

> <ROCS_FitColorTversky>
0.699 

> <ROCS_FitTverskyCombo>
2.045 

> <ROCS_ColorScore>
-5.720

> <ROCS_Overlap>
805.581

> <ROCS_Rank>
44                  

$$$$
untitled-dbase-515_32
  -OEChem-06042309053D

 25 25  0     0  0  0  0  0  0999 V2000
   -4.2976   12.2201  -31.1176 C   0  0  0  0  0  0  0  0  0  0  0  0
   -5.1138   11.3222  -31.8054 C   0  0  0  0  0  0  0  0  0  0  0  0
   -4.4662   12.4057  -29.7454 C   0  0  0  0  0  0  0  0  0  0  0  0
   -6.0988   10.6100  -31.1210 C   0  0  0  0  0  0  0  0  0  0  0  0
   -6.2674   10.7957  -29.7489 C   0  0  0  0  0  0  0  0  0  0  0  0
   -5.4511   11.6935  -29.0611 C   0  0  0  0  0  0  0  0  0  0  0  0
   -8.0223    8.9177  -31.0201 C   0  0  0  0  0  0  0  0  0  0  0  0
   -6.1011    8.6067  -32.6158 C   0  0  0  0  0  0  0  0  0  0  0  0
   -6.9625    9.6546  -31.8770 C   0  0  0  0  0  0  0  0  0  0  0  0
   -6.8316   10.5623  -34.0067 N   0  0  0  0  0  0  0  0  0  0  0  0
   -7.2365   10.0928  -29.0937 O   0  0  0  0  0  0  0  0  0  0  0  0
   -7.7244   10.3547  -32.8866 O   0  0  0  0  0  0  0  0  0  0  0  0
   -5.6480   11.9732  -27.1964 Br  0  0  0  0  0  0  0  0  0  0  0  0
   -3.5303   12.7743  -31.6502 H   0  0  0  0  0  0  0  0  0  0  0  0
   -4.9741   11.1819  -32.8739 H   0  0  0  0  0  0  0  0  0  0  0  0
   -3.8202   13.1094  -29.2264 H   0  0  0  0  0  0  0  0  0  0  0  0
   -8.6288    8.2296  -31.6214 H   0  0  0  0  0  0  0  0  0  0  0  0
   -7.5682    8.3360  -30.2118 H   0  0  0  0  0  0  0  0  0  0  0  0
   -8.7200    9.6389  -30.5780 H   0  0  0  0  0  0  0  0  0  0  0  0
   -6.7131    7.8927  -33.1791 H   0  0  0  0  0  0  0  0  0  0  0  0
   -5.4728    8.0446  -31.9164 H   0  0  0  0  0  0  0  0  0  0  0  0
   -5.4453    9.0946  -33.3469 H   0  0  0  0  0  0  0  0  0  0  0  0
   -6.9158   11.5720  -34.1141 H   0  0  0  0  0  0  0  0  0  0  0  0
   -7.3845   10.1434  -34.7529 H   0  0  0  0  0  0  0  0  0  0  0  0
   -7.2360   10.3236  -28.1523 H   0  0  0  0  0  0  0  0  0  0  0  0
  1  2  1  0  0  0  0
  1  3  2  0  0  0  0
  2  4  2  0  0  0  0
  3  6  1  0  0  0  0
  4  5  1  0  0  0  0
  4  9  1  0  0  0  0
  5  6  2  0  0  0  0
  5 11  1  0  0  0  0
  6 13  1  0  0  0  0
  7  9  1  0  0  0  0
  8  9  1  0  0  0  0
  9 12  1  0  0  0  0
 10 12  1  0  0  0  0
  1 14  1  0  0  0  0
  2 15  1  0  0  0  0
  3 16  1  0  0  0  0
  7 17  1  0  0  0  0
  7 18  1  0  0  0  0
  7 19  1  0  0  0  0
  8 20  1  0  0  0  0
  8 21  1  0  0  0  0
  8 22  1  0  0  0  0
 10 23  1  0  0  0  0
 10 24  1  0  0  0  0
 11 25  1  0  0  0  0
M  END
> <id>
EN300-1923139

> <smiles>
CC(C)(ON)C=1C=CC=C(Br)C1O

> <IUPAC Name>
2-[2-(aminooxy)propan-2-yl]-6-bromophenol

> <CAS>
2229364-70-7

> <URL>
https://www.enaminestore.com/catalog/EN300-1923139

> <ROCS_ShapeQuery>
_x1604L0AP1_x0771L0AP1

> <ROCS_TanimotoCombo>
0.951 

> <ROCS_ShapeTanimoto>
0.538 

> <ROCS_ColorTanimoto>
0.413 

> <ROCS_RefTversky>
0.476 

> <ROCS_RefColorTversky>
0.429 

> <ROCS_RefTverskyCombo>
0.905 

> <ROCS_FitTversky>
1.317 

> <ROCS_FitColorTversky>
0.914 

> <ROCS_FitTverskyCombo>
2.232 

> <ROCS_ColorScore>
-4.879

> <ROCS_Overlap>
807.250

> <ROCS_Rank>
45                  

$$$$
untitled-dbase-1428_1
  -OEChem-06042309053D

 16 16  0     0  0  0  0  0  0999 V2000
   -4.5787   12.4753  -29.8329 C   0  0  0  0  0  0  0  0  0  0  0  0
   -5.0544   11.1343  -31.7854 C   0  0  0  0  0  0  0  0  0  0  0  0
   -6.2878   10.7702  -29.7402 C   0  0  0  0  0  0  0  0  0  0  0  0
   -4.3261   12.1497  -31.1655 C   0  0  0  0  0  0  0  0  0  0  0  0
   -5.5596   11.7855  -29.1202 C   0  0  0  0  0  0  0  0  0  0  0  0
   -6.0353   10.4446  -31.0728 C   0  0  0  0  0  0  0  0  0  0  0  0
   -3.4023   12.8869  -33.4684 O   0  0  0  0  0  0  0  0  0  0  0  0
   -2.9010   14.2964  -31.4131 O   0  0  0  0  0  0  0  0  0  0  0  0
   -7.2477   10.0979  -29.0396 O   0  0  0  0  0  0  0  0  0  0  0  0
   -1.7275   12.2320  -31.8556 F   0  0  0  0  0  0  0  0  0  0  0  0
   -3.0969   13.0117  -32.0564 S   0  0  0  0  0  0  0  0  0  0  0  0
   -5.8458   12.2109  -27.4726 Cl  0  0  0  0  0  0  0  0  0  0  0  0
   -7.0036    9.0715  -31.9520 Br  0  0  0  0  0  0  0  0  0  0  0  0
   -4.0081   13.2680  -29.3544 H   0  0  0  0  0  0  0  0  0  0  0  0
   -4.8521   10.8860  -32.8250 H   0  0  0  0  0  0  0  0  0  0  0  0
   -7.3002   10.4412  -28.1349 H   0  0  0  0  0  0  0  0  0  0  0  0
  1  4  2  0  0  0  0
  1  5  1  0  0  0  0
  2  4  1  0  0  0  0
  2  6  2  0  0  0  0
  3  5  2  0  0  0  0
  3  6  1  0  0  0  0
  3  9  1  0  0  0  0
  4 11  1  0  0  0  0
  5 12  1  0  0  0  0
  6 13  1  0  0  0  0
  7 11  2  0  0  0  0
  8 11  2  0  0  0  0
 10 11  1  0  0  0  0
  1 14  1  0  0  0  0
  2 15  1  0  0  0  0
  9 16  1  0  0  0  0
M  END
> <id>
EN300-36596275

> <smiles>
OC=1C(Cl)=CC(=CC1Br)S(=O)(=O)F

> <IUPAC Name>
3-bromo-5-chloro-4-hydroxybenzene-1-sulfonyl fluoride

> <CAS>
2757906-45-7

> <URL>
https://www.enaminestore.com/catalog/EN300-36596275

> <ROCS_ShapeQuery>
_x1604L0AP1_x0771L0AP1

> <ROCS_TanimotoCombo>
0.950 

> <ROCS_ShapeTanimoto>
0.499 

> <ROCS_ColorTanimoto>
0.451 

> <ROCS_RefTversky>
0.449 

> <ROCS_RefColorTversky>
0.431 

> <ROCS_RefTverskyCombo>
0.881 

> <ROCS_FitTversky>
1.288 

> <ROCS_FitColorTversky>
1.113 

> <ROCS_FitTverskyCombo>
2.401 

> <ROCS_ColorScore>
-4.881

> <ROCS_Overlap>
760.933

> <ROCS_Rank>
46                  

$$$$
untitled-dbase-1094_113
  -OEChem-06042309053D

 22 22  0     0  0  0  0  0  0999 V2000
   -4.3602   12.1879  -31.1775 C   0  0  0  0  0  0  0  0  0  0  0  0
   -4.6123   12.5040  -29.8425 C   0  0  0  0  0  0  0  0  0  0  0  0
   -5.0760   11.1648  -31.7992 C   0  0  0  0  0  0  0  0  0  0  0  0
   -5.5802   11.7969  -29.1292 C   0  0  0  0  0  0  0  0  0  0  0  0
   -6.2960   10.7737  -29.7509 C   0  0  0  0  0  0  0  0  0  0  0  0
   -6.0439   10.4576  -31.0859 C   0  0  0  0  0  0  0  0  0  0  0  0
   -5.0386   13.1761  -27.2691 C   0  0  0  0  0  0  0  0  0  0  0  0
   -4.7686   10.8665  -33.2316 C   0  0  0  0  0  0  0  0  0  0  0  0
   -6.6666    9.0053  -35.1874 N   0  5  0  0  0  0  0  0  0  0  0  0
   -5.9513   10.9964  -34.0896 N   0  0  0  0  0  0  0  0  0  0  0  0
   -6.3203    9.9554  -34.6598 N   0  3  0  0  0  0  0  0  0  0  0  0
   -7.2380   10.0966  -29.0321 O   0  0  0  0  0  0  0  0  0  0  0  0
   -5.8151   12.1174  -27.8260 O   0  0  0  0  0  0  0  0  0  0  0  0
   -7.0316    9.0661  -31.9291 Br  0  0  0  0  0  0  0  0  0  0  0  0
   -3.6041   12.7457  -31.7240 H   0  0  0  0  0  0  0  0  0  0  0  0
   -4.0519   13.3030  -29.3647 H   0  0  0  0  0  0  0  0  0  0  0  0
   -5.3251   13.3291  -26.2257 H   0  0  0  0  0  0  0  0  0  0  0  0
   -5.2054   14.0918  -27.8419 H   0  0  0  0  0  0  0  0  0  0  0  0
   -3.9813   12.9054  -27.3182 H   0  0  0  0  0  0  0  0  0  0  0  0
   -3.9797   11.5354  -33.6034 H   0  0  0  0  0  0  0  0  0  0  0  0
   -4.3705    9.8477  -33.3343 H   0  0  0  0  0  0  0  0  0  0  0  0
   -7.2809   10.4449  -28.1286 H   0  0  0  0  0  0  0  0  0  0  0  0
  1  2  1  0  0  0  0
  1  3  2  0  0  0  0
  2  4  2  0  0  0  0
  3  6  1  0  0  0  0
  3  8  1  0  0  0  0
  4  5  1  0  0  0  0
  4 13  1  0  0  0  0
  5  6  2  0  0  0  0
  5 12  1  0  0  0  0
  6 14  1  0  0  0  0
  7 13  1  0  0  0  0
  8 10  1  0  0  0  0
  9 11  2  0  0  0  0
 10 11  2  0  0  0  0
  1 15  1  0  0  0  0
  2 16  1  0  0  0  0
  7 17  1  0  0  0  0
  7 18  1  0  0  0  0
  7 19  1  0  0  0  0
  8 20  1  0  0  0  0
  8 21  1  0  0  0  0
 12 22  1  0  0  0  0
M  CHG  2   9  -1  11   1
M  END
> <id>
EN300-1935945

> <smiles>
COC=1C=CC(CN=[N+]=[N-])=C(Br)C1O

> <IUPAC Name>
3-(azidomethyl)-2-bromo-6-methoxyphenol

> <CAS>
2229478-92-4

> <URL>
https://www.enaminestore.com/catalog/EN300-1935945

> <ROCS_ShapeQuery>
_x1604L0AP1_x0771L0AP1

> <ROCS_TanimotoCombo>
0.950 

> <ROCS_ShapeTanimoto>
0.535 

> <ROCS_ColorTanimoto>
0.415 

> <ROCS_RefTversky>
0.483 

> <ROCS_RefColorTversky>
0.431 

> <ROCS_RefTverskyCombo>
0.914 

> <ROCS_FitTversky>
1.250 

> <ROCS_FitColorTversky>
0.919 

> <ROCS_FitTverskyCombo>
2.169 

> <ROCS_ColorScore>
-4.901

> <ROCS_Overlap>
820.193

> <ROCS_Rank>
47                  

$$$$
untitled-dbase-965_68
  -OEChem-06042309053D

 23 23  0     1  0  0  0  0  0999 V2000
   -4.2640   11.8545  -31.6096 C   0  0  0  0  0  0  0  0  0  0  0  0
   -4.1904   12.1565  -30.2499 C   0  0  0  0  0  0  0  0  0  0  0  0
   -5.2485   10.9846  -32.0786 C   0  0  0  0  0  0  0  0  0  0  0  0
   -5.1011   11.5885  -29.3590 C   0  0  0  0  0  0  0  0  0  0  0  0
   -6.0855   10.7185  -29.8280 C   0  0  0  0  0  0  0  0  0  0  0  0
   -6.1592   10.4166  -31.1878 C   0  0  0  0  0  0  0  0  0  0  0  0
   -6.3227   14.0798  -27.6757 C   0  0  0  0  0  0  0  0  0  0  0  0
   -5.0036   11.9244  -27.9072 C   0  0  0  0  0  0  0  0  0  0  0  0
   -6.2809   12.5895  -27.3624 C   0  0  1  0  0  0  0  0  0  0  0  0
   -6.9683   10.1695  -28.9438 O   0  0  0  0  0  0  0  0  0  0  0  0
   -6.3427   12.4256  -25.9467 O   0  0  0  0  0  0  0  0  0  0  0  0
   -7.4827    9.2401  -31.8645 Br  0  0  0  0  0  0  0  0  0  0  0  0
   -3.5553   12.2971  -32.3034 H   0  0  0  0  0  0  0  0  0  0  0  0
   -3.4218   12.8371  -29.8934 H   0  0  0  0  0  0  0  0  0  0  0  0
   -5.2905   10.7616  -33.1418 H   0  0  0  0  0  0  0  0  0  0  0  0
   -5.4453   14.5930  -27.2669 H   0  0  0  0  0  0  0  0  0  0  0  0
   -6.3614   14.2577  -28.7547 H   0  0  0  0  0  0  0  0  0  0  0  0
   -7.2016   14.5424  -27.2137 H   0  0  0  0  0  0  0  0  0  0  0  0
   -4.7842   11.0128  -27.3254 H   0  0  0  0  0  0  0  0  0  0  0  0
   -4.1421   12.5940  -27.7458 H   0  0  0  0  0  0  0  0  0  0  0  0
   -7.1714   12.1118  -27.7857 H   0  0  0  0  0  0  0  0  0  0  0  0
   -6.7773   10.4812  -28.0461 H   0  0  0  0  0  0  0  0  0  0  0  0
   -7.1782   12.8248  -25.6599 H   0  0  0  0  0  0  0  0  0  0  0  0
  1  2  1  0  0  0  0
  1  3  2  0  0  0  0
  2  4  2  0  0  0  0
  3  6  1  0  0  0  0
  4  5  1  0  0  0  0
  4  8  1  0  0  0  0
  5  6  2  0  0  0  0
  5 10  1  0  0  0  0
  6 12  1  0  0  0  0
  7  9  1  1  0  0  0
  8  9  1  0  0  0  0
  9 11  1  0  0  0  0
  1 13  1  0  0  0  0
  2 14  1  0  0  0  0
  3 15  1  0  0  0  0
  7 16  1  0  0  0  0
  7 17  1  0  0  0  0
  7 18  1  0  0  0  0
  8 19  1  0  0  0  0
  8 20  1  0  0  0  0
  9 21  1  0  0  0  0
 10 22  1  0  0  0  0
 11 23  1  0  0  0  0
M  END
> <id>
EN300-1923419

> <smiles>
C[C@H](O)CC=1C=CC=C(Br)C1O

> <IUPAC Name>
2-bromo-6-[(2S)-2-hydroxypropyl]phenol

> <CAS>
2227723-97-7

> <URL>
https://www.enaminestore.com/catalog/EN300-1923419

> <ROCS_ShapeQuery>
_x1604L0AP1_x0771L0AP1

> <ROCS_TanimotoCombo>
0.950 

> <ROCS_ShapeTanimoto>
0.410 

> <ROCS_ColorTanimoto>
0.541 

> <ROCS_RefTversky>
0.387 

> <ROCS_RefColorTversky>
0.544 

> <ROCS_RefTverskyCombo>
0.931 

> <ROCS_FitTversky>
1.168 

> <ROCS_FitColorTversky>
0.988 

> <ROCS_FitTverskyCombo>
2.156 

> <ROCS_ColorScore>
-6.211

> <ROCS_Overlap>
654.608

> <ROCS_Rank>
48                  

$$$$
untitled-dbase-1431_68
  -OEChem-06042309053D

 23 23  0     1  0  0  0  0  0999 V2000
   -4.2640   11.8545  -31.6096 C   0  0  0  0  0  0  0  0  0  0  0  0
   -4.1904   12.1565  -30.2499 C   0  0  0  0  0  0  0  0  0  0  0  0
   -5.2485   10.9846  -32.0786 C   0  0  0  0  0  0  0  0  0  0  0  0
   -5.1011   11.5885  -29.3590 C   0  0  0  0  0  0  0  0  0  0  0  0
   -6.0855   10.7185  -29.8280 C   0  0  0  0  0  0  0  0  0  0  0  0
   -6.1592   10.4166  -31.1878 C   0  0  0  0  0  0  0  0  0  0  0  0
   -6.3227   14.0798  -27.6757 C   0  0  0  0  0  0  0  0  0  0  0  0
   -5.0036   11.9244  -27.9072 C   0  0  0  0  0  0  0  0  0  0  0  0
   -6.2809   12.5895  -27.3624 C   0  0  1  0  0  0  0  0  0  0  0  0
   -6.9683   10.1695  -28.9438 O   0  0  0  0  0  0  0  0  0  0  0  0
   -6.3427   12.4256  -25.9467 O   0  0  0  0  0  0  0  0  0  0  0  0
   -7.4827    9.2401  -31.8645 Br  0  0  0  0  0  0  0  0  0  0  0  0
   -3.5553   12.2971  -32.3034 H   0  0  0  0  0  0  0  0  0  0  0  0
   -3.4218   12.8371  -29.8934 H   0  0  0  0  0  0  0  0  0  0  0  0
   -5.2905   10.7616  -33.1418 H   0  0  0  0  0  0  0  0  0  0  0  0
   -5.4453   14.5930  -27.2669 H   0  0  0  0  0  0  0  0  0  0  0  0
   -6.3614   14.2577  -28.7547 H   0  0  0  0  0  0  0  0  0  0  0  0
   -7.2016   14.5424  -27.2137 H   0  0  0  0  0  0  0  0  0  0  0  0
   -4.7842   11.0128  -27.3254 H   0  0  0  0  0  0  0  0  0  0  0  0
   -4.1421   12.5940  -27.7458 H   0  0  0  0  0  0  0  0  0  0  0  0
   -7.1714   12.1118  -27.7857 H   0  0  0  0  0  0  0  0  0  0  0  0
   -6.7773   10.4812  -28.0461 H   0  0  0  0  0  0  0  0  0  0  0  0
   -7.1782   12.8248  -25.6599 H   0  0  0  0  0  0  0  0  0  0  0  0
  1  2  1  0  0  0  0
  1  3  2  0  0  0  0
  2  4  2  0  0  0  0
  3  6  1  0  0  0  0
  4  5  1  0  0  0  0
  4  8  1  0  0  0  0
  5  6  2  0  0  0  0
  5 10  1  0  0  0  0
  6 12  1  0  0  0  0
  7  9  1  0  0  0  0
  8  9  1  0  0  0  0
  9 11  1  0  0  0  0
  1 13  1  0  0  0  0
  2 14  1  0  0  0  0
  3 15  1  0  0  0  0
  7 16  1  0  0  0  0
  7 17  1  0  0  0  0
  7 18  1  0  0  0  0
  8 19  1  0  0  0  0
  8 20  1  0  0  0  0
  9 21  1  0  0  0  0
 10 22  1  0  0  0  0
 11 23  1  0  0  0  0
M  END
> <id>
EN300-1923125

> <smiles>
CC(O)CC=1C=CC=C(Br)C1O

> <IUPAC Name>
2-bromo-6-(2-hydroxypropyl)phenol

> <CAS>
1517312-54-7

> <URL>
https://www.enaminestore.com/catalog/EN300-1923125

> <ROCS_ShapeQuery>
_x1604L0AP1_x0771L0AP1

> <ROCS_TanimotoCombo>
0.950 

> <ROCS_ShapeTanimoto>
0.410 

> <ROCS_ColorTanimoto>
0.541 

> <ROCS_RefTversky>
0.387 

> <ROCS_RefColorTversky>
0.544 

> <ROCS_RefTverskyCombo>
0.931 

> <ROCS_FitTversky>
1.168 

> <ROCS_FitColorTversky>
0.988 

> <ROCS_FitTverskyCombo>
2.156 

> <ROCS_ColorScore>
-6.211

> <ROCS_Overlap>
654.608

> <ROCS_Rank>
49                  

$$$$
untitled-dbase-112_3
  -OEChem-06042309053D

 16 16  0     0  0  0  0  0  0999 V2000
   -4.3552   12.1474  -31.2292 C   0  0  0  0  0  0  0  0  0  0  0  0
   -5.0835   11.1228  -31.8337 C   0  0  0  0  0  0  0  0  0  0  0  0
   -5.5660   11.7926  -29.1689 C   0  0  0  0  0  0  0  0  0  0  0  0
   -4.5964   12.4823  -29.8968 C   0  0  0  0  0  0  0  0  0  0  0  0
   -6.2943   10.7680  -29.7733 C   0  0  0  0  0  0  0  0  0  0  0  0
   -6.0530   10.4331  -31.1057 C   0  0  0  0  0  0  0  0  0  0  0  0
   -3.8173   13.5770  -29.2500 C   0  0  0  0  0  0  0  0  0  0  0  0
   -7.2326   10.1112  -29.0339 O   0  0  0  0  0  0  0  0  0  0  0  0
   -4.4288   14.7774  -29.4296 F   0  0  0  0  0  0  0  0  0  0  0  0
   -2.5830   13.6865  -29.8081 F   0  0  0  0  0  0  0  0  0  0  0  0
   -7.0233    9.0472  -31.9601 Br  0  0  0  0  0  0  0  0  0  0  0  0
   -3.6001   12.6781  -31.8034 H   0  0  0  0  0  0  0  0  0  0  0  0
   -4.8817   10.8758  -32.8729 H   0  0  0  0  0  0  0  0  0  0  0  0
   -5.7550   12.0526  -28.1298 H   0  0  0  0  0  0  0  0  0  0  0  0
   -3.6884   13.4227  -28.1769 H   0  0  0  0  0  0  0  0  0  0  0  0
   -7.6626    9.4276  -29.5707 H   0  0  0  0  0  0  0  0  0  0  0  0
  1  2  1  0  0  0  0
  1  4  2  0  0  0  0
  2  6  2  0  0  0  0
  3  4  1  0  0  0  0
  3  5  2  0  0  0  0
  4  7  1  0  0  0  0
  5  6  1  0  0  0  0
  5  8  1  0  0  0  0
  6 11  1  0  0  0  0
  7  9  1  0  0  0  0
  7 10  1  0  0  0  0
  1 12  1  0  0  0  0
  2 13  1  0  0  0  0
  3 14  1  0  0  0  0
  7 15  1  0  0  0  0
  8 16  1  0  0  0  0
M  END
> <id>
EN300-382862

> <smiles>
OC=1C=C(C=CC1Br)C(F)F

> <MDLNUMBER>
MFCD18391147

> <IUPAC Name>
2-bromo-5-(difluoromethyl)phenol

> <CAS>
1261760-40-0

> <Purity>
95

> <URL>
https://www.enaminestore.com/catalog/EN300-382862

> <ROCS_ShapeQuery>
_x1604L0AP1_x0771L0AP1

> <ROCS_TanimotoCombo>
0.949 

> <ROCS_ShapeTanimoto>
0.498 

> <ROCS_ColorTanimoto>
0.451 

> <ROCS_RefTversky>
0.437 

> <ROCS_RefColorTversky>
0.431 

> <ROCS_RefTverskyCombo>
0.868 

> <ROCS_FitTversky>
1.389 

> <ROCS_FitColorTversky>
1.112 

> <ROCS_FitTverskyCombo>
2.501 

> <ROCS_ColorScore>
-4.877

> <ROCS_Overlap>
739.028

> <ROCS_Rank>
50                  

$$$$
untitled-dbase-2193_88
  -OEChem-06042309053D

 27 28  0     0  0  0  0  0  0999 V2000
   -4.3215   12.1207  -31.2606 C   0  0  0  0  0  0  0  0  0  0  0  0
   -5.1372   11.1987  -31.9165 C   0  0  0  0  0  0  0  0  0  0  0  0
   -4.4801   12.3429  -29.8926 C   0  0  0  0  0  0  0  0  0  0  0  0
   -6.1115   10.4991  -31.2046 C   0  0  0  0  0  0  0  0  0  0  0  0
   -6.2702   10.7214  -29.8367 C   0  0  0  0  0  0  0  0  0  0  0  0
   -5.4545   11.6433  -29.1808 C   0  0  0  0  0  0  0  0  0  0  0  0
   -8.0446    6.6158  -32.4866 C   0  0  0  0  0  0  0  0  0  0  0  0
   -8.5012    7.6482  -33.4797 C   0  0  0  0  0  0  0  0  0  0  0  0
   -7.0318    7.3845  -33.2913 C   0  0  0  0  0  0  0  0  0  0  0  0
   -6.9831    9.5080  -31.9338 C   0  0  0  0  0  0  0  0  0  0  0  0
   -6.1659    8.4006  -32.6273 C   0  0  0  0  0  0  0  0  0  0  0  0
   -7.2290   10.0303  -29.1543 O   0  0  0  0  0  0  0  0  0  0  0  0
   -6.3778    6.6544  -34.3425 O   0  0  0  0  0  0  0  0  0  0  0  0
   -5.6380   11.9729  -27.3229 Br  0  0  0  0  0  0  0  0  0  0  0  0
   -3.5625   12.6651  -31.8147 H   0  0  0  0  0  0  0  0  0  0  0  0
   -5.0052   11.0300  -32.9820 H   0  0  0  0  0  0  0  0  0  0  0  0
   -3.8348   13.0649  -29.3986 H   0  0  0  0  0  0  0  0  0  0  0  0
   -8.1548    6.8483  -31.4342 H   0  0  0  0  0  0  0  0  0  0  0  0
   -8.2102    5.5737  -32.7320 H   0  0  0  0  0  0  0  0  0  0  0  0
   -8.9729    7.2974  -34.3898 H   0  0  0  0  0  0  0  0  0  0  0  0
   -8.9158    8.5703  -33.0904 H   0  0  0  0  0  0  0  0  0  0  0  0
   -7.6909    9.0495  -31.2310 H   0  0  0  0  0  0  0  0  0  0  0  0
   -7.5928   10.0305  -32.6823 H   0  0  0  0  0  0  0  0  0  0  0  0
   -5.4827    8.8683  -33.3619 H   0  0  0  0  0  0  0  0  0  0  0  0
   -5.5079    7.9202  -31.8782 H   0  0  0  0  0  0  0  0  0  0  0  0
   -7.2224   10.2870  -28.2197 H   0  0  0  0  0  0  0  0  0  0  0  0
   -5.9248    5.9182  -33.9105 H   0  0  0  0  0  0  0  0  0  0  0  0
  1  2  1  0  0  0  0
  1  3  2  0  0  0  0
  2  4  2  0  0  0  0
  3  6  1  0  0  0  0
  4  5  1  0  0  0  0
  4 10  1  0  0  0  0
  5  6  2  0  0  0  0
  5 12  1  0  0  0  0
  6 14  1  0  0  0  0
  7  8  1  0  0  0  0
  7  9  1  0  0  0  0
  8  9  1  0  0  0  0
  9 11  1  0  0  0  0
  9 13  1  0  0  0  0
 10 11  1  0  0  0  0
  1 15  1  0  0  0  0
  2 16  1  0  0  0  0
  3 17  1  0  0  0  0
  7 18  1  0  0  0  0
  7 19  1  0  0  0  0
  8 20  1  0  0  0  0
  8 21  1  0  0  0  0
 10 22  1  0  0  0  0
 10 23  1  0  0  0  0
 11 24  1  0  0  0  0
 11 25  1  0  0  0  0
 12 26  1  0  0  0  0
 13 27  1  0  0  0  0
M  END
> <id>
EN300-1923483

> <smiles>
OC=1C(Br)=CC=CC1CCC2(O)CC2

> <IUPAC Name>
2-bromo-6-[2-(1-hydroxycyclopropyl)ethyl]phenol

> <CAS>
2229005-31-4

> <URL>
https://www.enaminestore.com/catalog/EN300-1923483

> <ROCS_ShapeQuery>
_x1604L0AP1_x0771L0AP1

> <ROCS_TanimotoCombo>
0.948 

> <ROCS_ShapeTanimoto>
0.470 

> <ROCS_ColorTanimoto>
0.479 

> <ROCS_RefTversky>
0.443 

> <ROCS_RefColorTversky>
0.502 

> <ROCS_RefTverskyCombo>
0.944 

> <ROCS_FitTversky>
1.151 

> <ROCS_FitColorTversky>
0.912 

> <ROCS_FitTverskyCombo>
2.063 

> <ROCS_ColorScore>
-5.729

> <ROCS_Overlap>
751.221

> <ROCS_Rank>
51                  

$$$$
untitled-dbase-1970_0
  -OEChem-06042309053D

 18 18  0     0  0  0  0  0  0999 V2000
   -4.7112   12.4973  -29.4092 C   0  0  0  0  0  0  0  0  0  0  0  0
   -4.9926   11.3259  -31.5034 C   0  0  0  0  0  0  0  0  0  0  0  0
   -5.7200   11.7208  -28.8393 C   0  0  0  0  0  0  0  0  0  0  0  0
   -4.3475   12.2999  -30.7414 C   0  0  0  0  0  0  0  0  0  0  0  0
   -6.3652   10.7468  -29.6014 C   0  0  0  0  0  0  0  0  0  0  0  0
   -6.0015   10.5493  -30.9335 C   0  0  0  0  0  0  0  0  0  0  0  0
   -6.0810   11.9459  -27.4463 C   0  0  0  0  0  0  0  0  0  0  0  0
   -3.2691   13.1306  -31.3506 C   0  0  0  0  0  0  0  0  0  0  0  0
   -5.5343   12.7956  -26.7397 O   0  0  0  0  0  0  0  0  0  0  0  0
   -7.3506    9.9931  -29.0319 O   0  0  0  0  0  0  0  0  0  0  0  0
   -2.7277   14.0423  -30.4894 F   0  0  0  0  0  0  0  0  0  0  0  0
   -2.2093   12.4006  -31.8085 F   0  0  0  0  0  0  0  0  0  0  0  0
   -3.7057   13.8541  -32.4224 F   0  0  0  0  0  0  0  0  0  0  0  0
   -6.8535    9.2347  -32.0015 Br  0  0  0  0  0  0  0  0  0  0  0  0
   -4.2057   13.2574  -28.8174 H   0  0  0  0  0  0  0  0  0  0  0  0
   -4.7026   11.1790  -32.5415 H   0  0  0  0  0  0  0  0  0  0  0  0
   -6.8878   11.3122  -27.0204 H   0  0  0  0  0  0  0  0  0  0  0  0
   -7.7031    9.3633  -29.6787 H   0  0  0  0  0  0  0  0  0  0  0  0
  1  3  2  0  0  0  0
  1  4  1  0  0  0  0
  2  4  2  0  0  0  0
  2  6  1  0  0  0  0
  3  5  1  0  0  0  0
  3  7  1  0  0  0  0
  4  8  1  0  0  0  0
  5  6  2  0  0  0  0
  5 10  1  0  0  0  0
  6 14  1  0  0  0  0
  7  9  2  0  0  0  0
  8 11  1  0  0  0  0
  8 12  1  0  0  0  0
  8 13  1  0  0  0  0
  1 15  1  0  0  0  0
  2 16  1  0  0  0  0
  7 17  1  0  0  0  0
 10 18  1  0  0  0  0
M  END
> <id>
EN300-3529444

> <smiles>
OC=1C(Br)=CC(=CC1C=O)C(F)(F)F

> <MDLNUMBER>
MFCD04039295

> <IUPAC Name>
3-bromo-2-hydroxy-5-(trifluoromethyl)benzaldehyde

> <CAS>
886762-43-2

> <Purity>
95

> <URL>
https://www.enaminestore.com/catalog/EN300-3529444

> <ROCS_ShapeQuery>
_x1604L0AP1_x0771L0AP1

> <ROCS_TanimotoCombo>
0.947 

> <ROCS_ShapeTanimoto>
0.522 

> <ROCS_ColorTanimoto>
0.425 

> <ROCS_RefTversky>
0.478 

> <ROCS_RefColorTversky>
0.438 

> <ROCS_RefTverskyCombo>
0.916 

> <ROCS_FitTversky>
1.213 

> <ROCS_FitColorTversky>
0.933 

> <ROCS_FitTverskyCombo>
2.146 

> <ROCS_ColorScore>
-4.979

> <ROCS_Overlap>
812.044

> <ROCS_Rank>
52                  

$$$$
untitled-dbase-575_51
  -OEChem-06042309053D

 21 21  0     0  0  0  0  0  0999 V2000
   -5.0261   11.1149  -31.8455 C   0  0  0  0  0  0  0  0  0  0  0  0
   -4.5729   12.4541  -29.8864 C   0  0  0  0  0  0  0  0  0  0  0  0
   -6.0069   10.4166  -31.1414 C   0  0  0  0  0  0  0  0  0  0  0  0
   -6.2708   10.7371  -29.8097 C   0  0  0  0  0  0  0  0  0  0  0  0
   -4.3090   12.1336  -31.2180 C   0  0  0  0  0  0  0  0  0  0  0  0
   -5.5538   11.7558  -29.1822 C   0  0  0  0  0  0  0  0  0  0  0  0
   -6.8758    7.8454  -33.8851 C   0  0  0  0  0  0  0  0  0  0  0  0
   -6.7629    9.3296  -31.8323 C   0  0  0  0  0  0  0  0  0  0  0  0
   -6.1203    8.9361  -33.1648 C   0  0  0  0  0  0  0  0  0  0  0  0
   -6.3982    6.7660  -34.2175 O   0  0  0  0  0  0  0  0  0  0  0  0
   -7.2335   10.0446  -29.1342 O   0  0  0  0  0  0  0  0  0  0  0  0
   -3.0986   12.9949  -32.0874 Cl  0  0  0  0  0  0  0  0  0  0  0  0
   -5.8835   12.2203  -27.3738 Br  0  0  0  0  0  0  0  0  0  0  0  0
   -4.8236   10.8622  -32.8842 H   0  0  0  0  0  0  0  0  0  0  0  0
   -4.0112   13.2489  -29.4006 H   0  0  0  0  0  0  0  0  0  0  0  0
   -7.9309    8.0808  -34.1078 H   0  0  0  0  0  0  0  0  0  0  0  0
   -6.8359    8.4441  -31.1799 H   0  0  0  0  0  0  0  0  0  0  0  0
   -7.8064    9.6417  -32.0015 H   0  0  0  0  0  0  0  0  0  0  0  0
   -5.0968    8.5778  -33.0065 H   0  0  0  0  0  0  0  0  0  0  0  0
   -6.0710    9.8004  -33.8370 H   0  0  0  0  0  0  0  0  0  0  0  0
   -7.6310    9.3767  -29.7132 H   0  0  0  0  0  0  0  0  0  0  0  0
  1  3  2  0  0  0  0
  1  5  1  0  0  0  0
  2  5  2  0  0  0  0
  2  6  1  0  0  0  0
  3  4  1  0  0  0  0
  3  8  1  0  0  0  0
  4  6  2  0  0  0  0
  4 11  1  0  0  0  0
  5 12  1  0  0  0  0
  6 13  1  0  0  0  0
  7  9  1  0  0  0  0
  7 10  2  0  0  0  0
  8  9  1  0  0  0  0
  1 14  1  0  0  0  0
  2 15  1  0  0  0  0
  7 16  1  0  0  0  0
  8 17  1  0  0  0  0
  8 18  1  0  0  0  0
  9 19  1  0  0  0  0
  9 20  1  0  0  0  0
 11 21  1  0  0  0  0
M  END
> <id>
EN300-1922924

> <smiles>
OC=1C(Br)=CC(Cl)=CC1CCC=O

> <IUPAC Name>
3-(3-bromo-5-chloro-2-hydroxyphenyl)propanal

> <CAS>
1783491-41-7

> <URL>
https://www.enaminestore.com/catalog/EN300-1922924

> <ROCS_ShapeQuery>
_x1604L0AP1_x0771L0AP1

> <ROCS_TanimotoCombo>
0.945 

> <ROCS_ShapeTanimoto>
0.553 

> <ROCS_ColorTanimoto>
0.393 

> <ROCS_RefTversky>
0.481 

> <ROCS_RefColorTversky>
0.414 

> <ROCS_RefTverskyCombo>
0.895 

> <ROCS_FitTversky>
1.370 

> <ROCS_FitColorTversky>
0.882 

> <ROCS_FitTverskyCombo>
2.253 

> <ROCS_ColorScore>
-4.708

> <ROCS_Overlap>
815.046

> <ROCS_Rank>
53                  

$$$$
untitled-dbase-1417_525
  -OEChem-06042309053D

 26 26  0     0  0  0  0  0  0999 V2000
   -4.6007   12.4860  -29.8269 C   0  0  0  0  0  0  0  0  0  0  0  0
   -5.0653   11.1505  -31.7859 C   0  0  0  0  0  0  0  0  0  0  0  0
   -4.3447   12.1682  -31.1607 C   0  0  0  0  0  0  0  0  0  0  0  0
   -5.5773   11.7862  -29.1182 C   0  0  0  0  0  0  0  0  0  0  0  0
   -6.2978   10.7685  -29.7434 C   0  0  0  0  0  0  0  0  0  0  0  0
   -6.0418   10.4507  -31.0772 C   0  0  0  0  0  0  0  0  0  0  0  0
   -5.0346   13.1614  -27.2554 C   0  0  0  0  0  0  0  0  0  0  0  0
   -3.3012   12.9173  -31.9183 C   0  0  0  0  0  0  0  0  0  0  0  0
   -3.1293   14.3606  -31.4402 C   0  0  0  0  0  0  0  0  0  0  0  0
   -1.2861   14.1039  -30.0569 N   0  0  0  0  0  0  0  0  0  0  0  0
   -7.2497   10.0961  -29.0338 O   0  0  0  0  0  0  0  0  0  0  0  0
   -5.8163   12.1086  -27.8163 O   0  0  0  0  0  0  0  0  0  0  0  0
   -2.7162   14.3671  -30.0796 O   0  0  0  0  0  0  0  0  0  0  0  0
   -7.0006    9.0743  -31.9606 Br  0  0  0  0  0  0  0  0  0  0  0  0
   -4.0406   13.2792  -29.3375 H   0  0  0  0  0  0  0  0  0  0  0  0
   -4.8586   10.9102  -32.8265 H   0  0  0  0  0  0  0  0  0  0  0  0
   -5.3252   13.3167  -26.2135 H   0  0  0  0  0  0  0  0  0  0  0  0
   -5.1913   14.0782  -27.8292 H   0  0  0  0  0  0  0  0  0  0  0  0
   -3.9791   12.8824  -27.2991 H   0  0  0  0  0  0  0  0  0  0  0  0
   -2.3339   12.3960  -31.8457 H   0  0  0  0  0  0  0  0  0  0  0  0
   -3.5609   12.9322  -32.9880 H   0  0  0  0  0  0  0  0  0  0  0  0
   -2.3540   14.8624  -32.0281 H   0  0  0  0  0  0  0  0  0  0  0  0
   -4.0613   14.9285  -31.5290 H   0  0  0  0  0  0  0  0  0  0  0  0
   -1.2551   13.3041  -29.4264 H   0  0  0  0  0  0  0  0  0  0  0  0
   -0.9582   14.9075  -29.5234 H   0  0  0  0  0  0  0  0  0  0  0  0
   -7.2976   10.4423  -28.1296 H   0  0  0  0  0  0  0  0  0  0  0  0
  1  3  1  0  0  0  0
  1  4  2  0  0  0  0
  2  3  2  0  0  0  0
  2  6  1  0  0  0  0
  3  8  1  0  0  0  0
  4  5  1  0  0  0  0
  4 12  1  0  0  0  0
  5  6  2  0  0  0  0
  5 11  1  0  0  0  0
  6 14  1  0  0  0  0
  7 12  1  0  0  0  0
  8  9  1  0  0  0  0
  9 13  1  0  0  0  0
 10 13  1  0  0  0  0
  1 15  1  0  0  0  0
  2 16  1  0  0  0  0
  7 17  1  0  0  0  0
  7 18  1  0  0  0  0
  7 19  1  0  0  0  0
  8 20  1  0  0  0  0
  8 21  1  0  0  0  0
  9 22  1  0  0  0  0
  9 23  1  0  0  0  0
 10 24  1  0  0  0  0
 10 25  1  0  0  0  0
 11 26  1  0  0  0  0
M  END
> <id>
EN300-1926996

> <smiles>
COC=1C=C(CCON)C=C(Br)C1O

> <IUPAC Name>
4-[2-(aminooxy)ethyl]-2-bromo-6-methoxyphenol

> <CAS>
2228419-19-8

> <URL>
https://www.enaminestore.com/catalog/EN300-1926996

> <ROCS_ShapeQuery>
_x1604L0AP1_x0771L0AP1

> <ROCS_TanimotoCombo>
0.944 

> <ROCS_ShapeTanimoto>
0.529 

> <ROCS_ColorTanimoto>
0.415 

> <ROCS_RefTversky>
0.477 

> <ROCS_RefColorTversky>
0.431 

> <ROCS_RefTverskyCombo>
0.908 

> <ROCS_FitTversky>
1.258 

> <ROCS_FitColorTversky>
0.918 

> <ROCS_FitTverskyCombo>
2.176 

> <ROCS_ColorScore>
-4.898

> <ROCS_Overlap>
810.224

> <ROCS_Rank>
54                  

$$$$
untitled-dbase-1060_5
  -OEChem-06042309053D

 21 21  0     1  0  0  0  0  0999 V2000
   -4.7844   12.6650  -30.2851 C   0  0  0  0  0  0  0  0  0  0  0  0
   -5.0658   10.9372  -31.9502 C   0  0  0  0  0  0  0  0  0  0  0  0
   -5.7348   12.0410  -29.4770 C   0  0  0  0  0  0  0  0  0  0  0  0
   -6.3507   10.8651  -29.9055 C   0  0  0  0  0  0  0  0  0  0  0  0
   -4.4499   12.1131  -31.5217 C   0  0  0  0  0  0  0  0  0  0  0  0
   -6.0162   10.3132  -31.1421 C   0  0  0  0  0  0  0  0  0  0  0  0
   -5.7502   11.7352  -26.9668 C   0  0  0  0  0  0  0  0  0  0  0  0
   -6.0782   12.6488  -28.1567 C   0  0  1  0  0  0  0  0  0  0  0  0
   -7.2788   10.2666  -29.1036 O   0  0  0  0  0  0  0  0  0  0  0  0
   -6.0848   12.3937  -25.7534 O   0  0  0  0  0  0  0  0  0  0  0  0
   -5.3661   13.8817  -28.0002 O   0  0  0  0  0  0  0  0  0  0  0  0
   -3.2771   12.8835  -32.5185 Cl  0  0  0  0  0  0  0  0  0  0  0  0
   -6.8315    8.7165  -31.7591 Br  0  0  0  0  0  0  0  0  0  0  0  0
   -4.3060   13.5818  -29.9470 H   0  0  0  0  0  0  0  0  0  0  0  0
   -4.8024   10.5103  -32.9154 H   0  0  0  0  0  0  0  0  0  0  0  0
   -6.2978   10.7880  -27.0238 H   0  0  0  0  0  0  0  0  0  0  0  0
   -4.6819   11.4926  -26.9439 H   0  0  0  0  0  0  0  0  0  0  0  0
   -7.1514   12.9026  -28.1227 H   0  0  0  0  0  0  0  0  0  0  0  0
   -7.6185    9.4648  -29.5290 H   0  0  0  0  0  0  0  0  0  0  0  0
   -5.8621   11.7832  -25.0318 H   0  0  0  0  0  0  0  0  0  0  0  0
   -5.6220   14.2322  -27.1352 H   0  0  0  0  0  0  0  0  0  0  0  0
  1  3  2  0  0  0  0
  1  5  1  0  0  0  0
  2  5  2  0  0  0  0
  2  6  1  0  0  0  0
  3  4  1  0  0  0  0
  3  8  1  0  0  0  0
  4  6  2  0  0  0  0
  4  9  1  0  0  0  0
  5 12  1  0  0  0  0
  6 13  1  0  0  0  0
  7  8  1  0  0  0  0
  7 10  1  0  0  0  0
  8 11  1  0  0  0  0
  1 14  1  0  0  0  0
  2 15  1  0  0  0  0
  7 16  1  0  0  0  0
  7 17  1  0  0  0  0
  8 18  1  0  0  0  0
  9 19  1  0  0  0  0
 10 20  1  0  0  0  0
 11 21  1  0  0  0  0
M  END
> <id>
EN300-1922900

> <smiles>
OCC(O)C=1C=C(Cl)C=C(Br)C1O

> <MDLNUMBER>
MFCD32488160

> <IUPAC Name>
1-(3-bromo-5-chloro-2-hydroxyphenyl)ethane-1,2-diol

> <CAS>
2229636-95-5

> <URL>
https://www.enaminestore.com/catalog/EN300-1922900

> <ROCS_ShapeQuery>
_x1604L0AP1_x0771L0AP1

> <ROCS_TanimotoCombo>
0.943 

> <ROCS_ShapeTanimoto>
0.449 

> <ROCS_ColorTanimoto>
0.493 

> <ROCS_RefTversky>
0.420 

> <ROCS_RefColorTversky>
0.565 

> <ROCS_RefTverskyCombo>
0.985 

> <ROCS_FitTversky>
1.188 

> <ROCS_FitColorTversky>
0.795 

> <ROCS_FitTverskyCombo>
1.983 

> <ROCS_ColorScore>
-6.508

> <ROCS_Overlap>
710.945

> <ROCS_Rank>
55                  

$$$$
untitled-dbase-1158_46
  -OEChem-06042309053D

 27 28  0     0  0  0  0  0  0999 V2000
   -4.4025   11.7863  -31.5970 C   0  0  0  0  0  0  0  0  0  0  0  0
   -5.2911   10.8306  -32.0894 C   0  0  0  0  0  0  0  0  0  0  0  0
   -4.4633   12.1706  -30.2574 C   0  0  0  0  0  0  0  0  0  0  0  0
   -6.2405   10.2590  -31.2423 C   0  0  0  0  0  0  0  0  0  0  0  0
   -6.3013   10.6432  -29.9027 C   0  0  0  0  0  0  0  0  0  0  0  0
   -5.4127   11.5990  -29.4103 C   0  0  0  0  0  0  0  0  0  0  0  0
   -5.2494    7.5278  -31.7087 C   0  0  0  0  0  0  0  0  0  0  0  0
   -6.5237    6.7332  -31.6788 C   0  0  0  0  0  0  0  0  0  0  0  0
   -6.4791    8.0538  -32.4114 C   0  0  0  0  0  0  0  0  0  0  0  0
   -7.1951    9.2253  -31.7975 C   0  0  0  0  0  0  0  0  0  0  0  0
   -6.4980    8.0269  -33.9149 C   0  0  0  0  0  0  0  0  0  0  0  0
   -7.2369   10.0762  -29.0869 O   0  0  0  0  0  0  0  0  0  0  0  0
   -6.3480    6.6855  -34.3653 O   0  0  0  0  0  0  0  0  0  0  0  0
   -5.4625   12.1471  -27.5962 Br  0  0  0  0  0  0  0  0  0  0  0  0
   -3.6629   12.2311  -32.2563 H   0  0  0  0  0  0  0  0  0  0  0  0
   -5.2352   10.5353  -33.1338 H   0  0  0  0  0  0  0  0  0  0  0  0
   -3.7622   12.9165  -29.8916 H   0  0  0  0  0  0  0  0  0  0  0  0
   -4.9329    8.0054  -30.7890 H   0  0  0  0  0  0  0  0  0  0  0  0
   -4.4322    7.1454  -32.3087 H   0  0  0  0  0  0  0  0  0  0  0  0
   -6.5597    5.8186  -32.2588 H   0  0  0  0  0  0  0  0  0  0  0  0
   -7.0604    6.6786  -30.7390 H   0  0  0  0  0  0  0  0  0  0  0  0
   -7.8665    8.8892  -30.9900 H   0  0  0  0  0  0  0  0  0  0  0  0
   -7.8533    9.7087  -32.5385 H   0  0  0  0  0  0  0  0  0  0  0  0
   -5.6762    8.6248  -34.3297 H   0  0  0  0  0  0  0  0  0  0  0  0
   -7.4468    8.4182  -34.3040 H   0  0  0  0  0  0  0  0  0  0  0  0
   -7.1601   10.4379  -28.1909 H   0  0  0  0  0  0  0  0  0  0  0  0
   -5.4957    6.3709  -34.0242 H   0  0  0  0  0  0  0  0  0  0  0  0
  1  2  1  0  0  0  0
  1  3  2  0  0  0  0
  2  4  2  0  0  0  0
  3  6  1  0  0  0  0
  4  5  1  0  0  0  0
  4 10  1  0  0  0  0
  5  6  2  0  0  0  0
  5 12  1  0  0  0  0
  6 14  1  0  0  0  0
  7  8  1  0  0  0  0
  7  9  1  0  0  0  0
  8  9  1  0  0  0  0
  9 10  1  0  0  0  0
  9 11  1  0  0  0  0
 11 13  1  0  0  0  0
  1 15  1  0  0  0  0
  2 16  1  0  0  0  0
  3 17  1  0  0  0  0
  7 18  1  0  0  0  0
  7 19  1  0  0  0  0
  8 20  1  0  0  0  0
  8 21  1  0  0  0  0
 10 22  1  0  0  0  0
 10 23  1  0  0  0  0
 11 24  1  0  0  0  0
 11 25  1  0  0  0  0
 12 26  1  0  0  0  0
 13 27  1  0  0  0  0
M  END
> <id>
EN300-1923478

> <smiles>
OCC1(CC=2C=CC=C(Br)C2O)CC1

> <IUPAC Name>
2-bromo-6-{[1-(hydroxymethyl)cyclopropyl]methyl}phenol

> <CAS>
2229283-04-7

> <URL>
https://www.enaminestore.com/catalog/EN300-1923478

> <ROCS_ShapeQuery>
_x1604L0AP1_x0771L0AP1

> <ROCS_TanimotoCombo>
0.941 

> <ROCS_ShapeTanimoto>
0.474 

> <ROCS_ColorTanimoto>
0.466 

> <ROCS_RefTversky>
0.446 

> <ROCS_RefColorTversky>
0.493 

> <ROCS_RefTverskyCombo>
0.939 

> <ROCS_FitTversky>
1.158 

> <ROCS_FitColorTversky>
0.896 

> <ROCS_FitTverskyCombo>
2.054 

> <ROCS_ColorScore>
-5.630

> <ROCS_Overlap>
756.255

> <ROCS_Rank>
56                  

$$$$
untitled-dbase-1289_326
  -OEChem-06042309053D

 31 31  0     0  0  0  0  0  0999 V2000
   -4.3141   12.2625  -31.0830 C   0  0  0  0  0  0  0  0  0  0  0  0
   -5.2446   11.5041  -31.7933 C   0  0  0  0  0  0  0  0  0  0  0  0
   -4.3610   12.2977  -29.6894 C   0  0  0  0  0  0  0  0  0  0  0  0
   -6.2222   10.7809  -31.1099 C   0  0  0  0  0  0  0  0  0  0  0  0
   -6.2692   10.8161  -29.7162 C   0  0  0  0  0  0  0  0  0  0  0  0
   -5.3386   11.5746  -29.0060 C   0  0  0  0  0  0  0  0  0  0  0  0
   -5.2889    8.5258  -35.1530 C   0  0  0  0  0  0  0  0  0  0  0  0
   -7.4247    7.7952  -36.2402 C   0  0  0  0  0  0  0  0  0  0  0  0
   -7.2147    9.9722  -31.8941 C   0  0  0  0  0  0  0  0  0  0  0  0
   -7.4077    8.5325  -33.8049 C   0  0  0  0  0  0  0  0  0  0  0  0
   -6.6347    7.8297  -34.9308 C   0  0  0  0  0  0  0  0  0  0  0  0
   -6.5624    8.9553  -32.7190 N   0  0  0  0  0  0  0  0  0  0  0  0
   -7.2326   10.1046  -29.0620 O   0  0  0  0  0  0  0  0  0  0  0  0
   -6.3705    6.4784  -34.5463 O   0  0  0  0  0  0  0  0  0  0  0  0
   -5.3684   11.6475  -27.1118 Br  0  0  0  0  0  0  0  0  0  0  0  0
   -3.5526   12.8252  -31.6150 H   0  0  0  0  0  0  0  0  0  0  0  0
   -5.1993   11.4804  -32.8788 H   0  0  0  0  0  0  0  0  0  0  0  0
   -3.6271   12.8940  -29.1530 H   0  0  0  0  0  0  0  0  0  0  0  0
   -4.7088    8.5595  -34.2237 H   0  0  0  0  0  0  0  0  0  0  0  0
   -4.6925    8.0163  -35.9170 H   0  0  0  0  0  0  0  0  0  0  0  0
   -5.4334    9.5669  -35.4640 H   0  0  0  0  0  0  0  0  0  0  0  0
   -8.3939    7.3014  -36.1090 H   0  0  0  0  0  0  0  0  0  0  0  0
   -6.8900    7.2138  -37.0004 H   0  0  0  0  0  0  0  0  0  0  0  0
   -7.5961    8.8024  -36.6337 H   0  0  0  0  0  0  0  0  0  0  0  0
   -7.9149    9.4634  -31.2225 H   0  0  0  0  0  0  0  0  0  0  0  0
   -7.8066   10.6119  -32.5571 H   0  0  0  0  0  0  0  0  0  0  0  0
   -7.8982    9.4386  -34.1769 H   0  0  0  0  0  0  0  0  0  0  0  0
   -8.1729    7.8727  -33.3821 H   0  0  0  0  0  0  0  0  0  0  0  0
   -6.3285    8.1552  -32.1220 H   0  0  0  0  0  0  0  0  0  0  0  0
   -7.1418   10.2240  -28.1044 H   0  0  0  0  0  0  0  0  0  0  0  0
   -5.8509    6.5246  -33.7303 H   0  0  0  0  0  0  0  0  0  0  0  0
  1  2  1  0  0  0  0
  1  3  2  0  0  0  0
  2  4  2  0  0  0  0
  3  6  1  0  0  0  0
  4  5  1  0  0  0  0
  4  9  1  0  0  0  0
  5  6  2  0  0  0  0
  5 13  1  0  0  0  0
  6 15  1  0  0  0  0
  7 11  1  0  0  0  0
  8 11  1  0  0  0  0
  9 12  1  0  0  0  0
 10 11  1  0  0  0  0
 10 12  1  0  0  0  0
 11 14  1  0  0  0  0
  1 16  1  0  0  0  0
  2 17  1  0  0  0  0
  3 18  1  0  0  0  0
  7 19  1  0  0  0  0
  7 20  1  0  0  0  0
  7 21  1  0  0  0  0
  8 22  1  0  0  0  0
  8 23  1  0  0  0  0
  8 24  1  0  0  0  0
  9 25  1  0  0  0  0
  9 26  1  0  0  0  0
 10 27  1  0  0  0  0
 10 28  1  0  0  0  0
 12 29  1  0  0  0  0
 13 30  1  0  0  0  0
 14 31  1  0  0  0  0
M  END
> <id>
EN300-161415

> <smiles>
CC(C)(O)CNCC=1C=CC=C(Br)C1O

> <MDLNUMBER>
MFCD21106561

> <IUPAC Name>
2-bromo-6-{[(2-hydroxy-2-methylpropyl)amino]methyl}phenol

> <CAS>
1479988-93-6

> <URL>
https://www.enaminestore.com/catalog/EN300-161415

> <ROCS_ShapeQuery>
_x1604L0AP1_x0771L0AP1

> <ROCS_TanimotoCombo>
0.941 

> <ROCS_ShapeTanimoto>
0.544 

> <ROCS_ColorTanimoto>
0.397 

> <ROCS_RefTversky>
0.493 

> <ROCS_RefColorTversky>
0.508 

> <ROCS_RefTverskyCombo>
1.002 

> <ROCS_FitTversky>
1.233 

> <ROCS_FitColorTversky>
0.643 

> <ROCS_FitTverskyCombo>
1.876 

> <ROCS_ColorScore>
-5.878

> <ROCS_Overlap>
838.154

> <ROCS_Rank>
57                  

$$$$
untitled-dbase-1017_951
  -OEChem-06042309053D

 25 25  0     0  0  0  0  0  0999 V2000
   -4.5915   12.4721  -29.8063 C   0  0  0  0  0  0  0  0  0  0  0  0
   -5.0515   11.1430  -31.7706 C   0  0  0  0  0  0  0  0  0  0  0  0
   -4.3295   12.1557  -31.1393 C   0  0  0  0  0  0  0  0  0  0  0  0
   -5.5754   11.7756  -29.1045 C   0  0  0  0  0  0  0  0  0  0  0  0
   -6.2975   10.7628  -29.7358 C   0  0  0  0  0  0  0  0  0  0  0  0
   -6.0356   10.4465  -31.0689 C   0  0  0  0  0  0  0  0  0  0  0  0
   -5.1981   12.9087  -25.6387 C   0  0  0  0  0  0  0  0  0  0  0  0
   -3.2781   12.9013  -31.8894 C   0  0  0  0  0  0  0  0  0  0  0  0
   -4.7237   12.5998  -27.0427 C   0  0  0  0  0  0  0  0  0  0  0  0
   -3.2100   15.8966  -30.5056 N   0  5  0  0  0  0  0  0  0  0  0  0
   -2.4245   13.7026  -31.0034 N   0  0  0  0  0  0  0  0  0  0  0  0
   -2.8387   14.8455  -30.7473 N   0  3  0  0  0  0  0  0  0  0  0  0
   -7.2567   10.0937  -29.0330 O   0  0  0  0  0  0  0  0  0  0  0  0
   -5.8202   12.0966  -27.8033 O   0  0  0  0  0  0  0  0  0  0  0  0
   -6.9961    9.0767  -31.9605 Br  0  0  0  0  0  0  0  0  0  0  0  0
   -4.0301   13.2615  -29.3120 H   0  0  0  0  0  0  0  0  0  0  0  0
   -4.8403   10.9038  -32.8106 H   0  0  0  0  0  0  0  0  0  0  0  0
   -5.9895   13.6633  -25.6514 H   0  0  0  0  0  0  0  0  0  0  0  0
   -5.5792   12.0048  -25.1524 H   0  0  0  0  0  0  0  0  0  0  0  0
   -4.3698   13.2759  -25.0237 H   0  0  0  0  0  0  0  0  0  0  0  0
   -2.6449   12.2081  -32.4635 H   0  0  0  0  0  0  0  0  0  0  0  0
   -3.7344   13.5711  -32.6331 H   0  0  0  0  0  0  0  0  0  0  0  0
   -3.9324   11.8446  -27.0229 H   0  0  0  0  0  0  0  0  0  0  0  0
   -4.3441   13.5042  -27.5275 H   0  0  0  0  0  0  0  0  0  0  0  0
   -7.3079   10.4383  -28.1284 H   0  0  0  0  0  0  0  0  0  0  0  0
  1  3  1  0  0  0  0
  1  4  2  0  0  0  0
  2  3  2  0  0  0  0
  2  6  1  0  0  0  0
  3  8  1  0  0  0  0
  4  5  1  0  0  0  0
  4 14  1  0  0  0  0
  5  6  2  0  0  0  0
  5 13  1  0  0  0  0
  6 15  1  0  0  0  0
  7  9  1  0  0  0  0
  8 11  1  0  0  0  0
  9 14  1  0  0  0  0
 10 12  2  0  0  0  0
 11 12  2  0  0  0  0
  1 16  1  0  0  0  0
  2 17  1  0  0  0  0
  7 18  1  0  0  0  0
  7 19  1  0  0  0  0
  7 20  1  0  0  0  0
  8 21  1  0  0  0  0
  8 22  1  0  0  0  0
  9 23  1  0  0  0  0
  9 24  1  0  0  0  0
 13 25  1  0  0  0  0
M  CHG  2  10  -1  12   1
M  END
> <id>
EN300-1920269

> <smiles>
CCOC=1C=C(CN=[N+]=[N-])C=C(Br)C1O

> <IUPAC Name>
4-(azidomethyl)-2-bromo-6-ethoxyphenol

> <CAS>
2229349-97-5

> <URL>
https://www.enaminestore.com/catalog/EN300-1920269

> <ROCS_ShapeQuery>
_x1604L0AP1_x0771L0AP1

> <ROCS_TanimotoCombo>
0.941 

> <ROCS_ShapeTanimoto>
0.526 

> <ROCS_ColorTanimoto>
0.415 

> <ROCS_RefTversky>
0.485 

> <ROCS_RefColorTversky>
0.431 

> <ROCS_RefTverskyCombo>
0.916 

> <ROCS_FitTversky>
1.191 

> <ROCS_FitColorTversky>
0.918 

> <ROCS_FitTverskyCombo>
2.109 

> <ROCS_ColorScore>
-4.898

> <ROCS_Overlap>
823.872

> <ROCS_Rank>
58                  

$$$$
untitled-dbase-2283_0
  -OEChem-06042309053D

 27 27  0     0  0  0  0  0  0999 V2000
   -5.0473   11.1610  -31.7727 C   0  0  0  0  0  0  0  0  0  0  0  0
   -4.5709   12.4961  -29.8163 C   0  0  0  0  0  0  0  0  0  0  0  0
   -4.3194   12.1751  -31.1503 C   0  0  0  0  0  0  0  0  0  0  0  0
   -6.0267   10.4680  -31.0613 C   0  0  0  0  0  0  0  0  0  0  0  0
   -6.2781   10.7889  -29.7273 C   0  0  0  0  0  0  0  0  0  0  0  0
   -5.5502   11.8030  -29.1048 C   0  0  0  0  0  0  0  0  0  0  0  0
   -3.2981   12.8974  -31.8926 C   0  0  0  0  0  0  0  0  0  0  0  0
   -6.3323    9.2183  -33.2271 C   0  0  0  0  0  0  0  0  0  0  0  0
   -8.3218    9.7018  -31.7628 C   0  0  0  0  0  0  0  0  0  0  0  0
   -6.6680    7.9655  -31.1059 C   0  0  0  0  0  0  0  0  0  0  0  0
   -6.8174    9.3543  -31.7675 C   0  0  0  0  0  0  0  0  0  0  0  0
   -2.6214   13.8038  -31.3995 O   0  0  0  0  0  0  0  0  0  0  0  0
   -7.2392   10.1018  -29.0443 O   0  0  0  0  0  0  0  0  0  0  0  0
   -5.8626   12.2675  -27.2934 Br  0  0  0  0  0  0  0  0  0  0  0  0
   -4.8518   10.9096  -32.8127 H   0  0  0  0  0  0  0  0  0  0  0  0
   -3.9991   13.2881  -29.3374 H   0  0  0  0  0  0  0  0  0  0  0  0
   -3.1340   12.6054  -32.9527 H   0  0  0  0  0  0  0  0  0  0  0  0
   -6.8813    8.4292  -33.7542 H   0  0  0  0  0  0  0  0  0  0  0  0
   -6.4730   10.1423  -33.7986 H   0  0  0  0  0  0  0  0  0  0  0  0
   -5.2659    8.9664  -33.2665 H   0  0  0  0  0  0  0  0  0  0  0  0
   -8.9264    8.9336  -32.2572 H   0  0  0  0  0  0  0  0  0  0  0  0
   -8.7020    9.7986  -30.7390 H   0  0  0  0  0  0  0  0  0  0  0  0
   -8.5091   10.6507  -32.2792 H   0  0  0  0  0  0  0  0  0  0  0  0
   -7.2488    7.2068  -31.6443 H   0  0  0  0  0  0  0  0  0  0  0  0
   -5.6245    7.6296  -31.1034 H   0  0  0  0  0  0  0  0  0  0  0  0
   -7.0277    7.9711  -30.0703 H   0  0  0  0  0  0  0  0  0  0  0  0
   -7.3016   10.4320  -28.1351 H   0  0  0  0  0  0  0  0  0  0  0  0
  1  3  1  0  0  0  0
  1  4  2  0  0  0  0
  2  3  2  0  0  0  0
  2  6  1  0  0  0  0
  3  7  1  0  0  0  0
  4  5  1  0  0  0  0
  4 11  1  0  0  0  0
  5  6  2  0  0  0  0
  5 13  1  0  0  0  0
  6 14  1  0  0  0  0
  7 12  2  0  0  0  0
  8 11  1  0  0  0  0
  9 11  1  0  0  0  0
 10 11  1  0  0  0  0
  1 15  1  0  0  0  0
  2 16  1  0  0  0  0
  7 17  1  0  0  0  0
  8 18  1  0  0  0  0
  8 19  1  0  0  0  0
  8 20  1  0  0  0  0
  9 21  1  0  0  0  0
  9 22  1  0  0  0  0
  9 23  1  0  0  0  0
 10 24  1  0  0  0  0
 10 25  1  0  0  0  0
 10 26  1  0  0  0  0
 13 27  1  0  0  0  0
M  END
> <id>
EN300-22838980

> <smiles>
CC(C)(C)C=1C=C(C=O)C=C(Br)C1O

> <MDLNUMBER>
MFCD31652800

> <IUPAC Name>
3-bromo-5-tert-butyl-4-hydroxybenzaldehyde

> <CAS>
65678-06-0

> <Purity>
95

> <URL>
https://www.enaminestore.com/catalog/EN300-22838980

> <MP>
126-128

> <ROCS_ShapeQuery>
_x1604L0AP1_x0771L0AP1

> <ROCS_TanimotoCombo>
0.940 

> <ROCS_ShapeTanimoto>
0.559 

> <ROCS_ColorTanimoto>
0.381 

> <ROCS_RefTversky>
0.496 

> <ROCS_RefColorTversky>
0.428 

> <ROCS_RefTverskyCombo>
0.923 

> <ROCS_FitTversky>
1.297 

> <ROCS_FitColorTversky>
0.777 

> <ROCS_FitTverskyCombo>
2.073 

> <ROCS_ColorScore>
-4.881

> <ROCS_Overlap>
841.270

> <ROCS_Rank>
59                  

$$$$
untitled-dbase-1564_34
  -OEChem-06042309053D

 22 22  0     1  0  0  0  0  0999 V2000
   -4.7701   12.6601  -30.3180 C   0  0  0  0  0  0  0  0  0  0  0  0
   -5.0794   10.9247  -31.9702 C   0  0  0  0  0  0  0  0  0  0  0  0
   -5.7143   12.0455  -29.4956 C   0  0  0  0  0  0  0  0  0  0  0  0
   -6.3409   10.8703  -29.9104 C   0  0  0  0  0  0  0  0  0  0  0  0
   -4.4527   12.0998  -31.5553 C   0  0  0  0  0  0  0  0  0  0  0  0
   -6.0235   10.3099  -31.1477 C   0  0  0  0  0  0  0  0  0  0  0  0
   -5.7340   11.7372  -26.9836 C   0  0  0  0  0  0  0  0  0  0  0  0
   -6.0393   12.6622  -28.1748 C   0  0  1  0  0  0  0  0  0  0  0  0
   -5.3584   13.9354  -27.9987 N   0  0  0  0  0  0  0  0  0  0  0  0
   -7.2626   10.2809  -29.0945 O   0  0  0  0  0  0  0  0  0  0  0  0
   -6.0992   12.3784  -25.7658 O   0  0  0  0  0  0  0  0  0  0  0  0
   -3.2877   12.8589  -32.5699 Cl  0  0  0  0  0  0  0  0  0  0  0  0
   -6.8538    8.7141  -31.7465 Br  0  0  0  0  0  0  0  0  0  0  0  0
   -4.2833   13.5764  -29.9905 H   0  0  0  0  0  0  0  0  0  0  0  0
   -4.8293   10.4912  -32.9360 H   0  0  0  0  0  0  0  0  0  0  0  0
   -6.3160   10.8120  -27.0583 H   0  0  0  0  0  0  0  0  0  0  0  0
   -4.6705   11.4796  -26.9310 H   0  0  0  0  0  0  0  0  0  0  0  0
   -7.1110   12.9235  -28.1253 H   0  0  0  0  0  0  0  0  0  0  0  0
   -5.6360   14.5468  -28.7320 H   0  0  0  0  0  0  0  0  0  0  0  0
   -5.6177   14.3128  -27.1160 H   0  0  0  0  0  0  0  0  0  0  0  0
   -7.6112    9.4785  -29.5116 H   0  0  0  0  0  0  0  0  0  0  0  0
   -7.0503   12.5610  -25.8228 H   0  0  0  0  0  0  0  0  0  0  0  0
  1  3  2  0  0  0  0
  1  5  1  0  0  0  0
  2  5  2  0  0  0  0
  2  6  1  0  0  0  0
  3  4  1  0  0  0  0
  3  8  1  0  0  0  0
  4  6  2  0  0  0  0
  4 10  1  0  0  0  0
  5 12  1  0  0  0  0
  6 13  1  0  0  0  0
  7  8  1  0  0  0  0
  7 11  1  0  0  0  0
  8  9  1  1  0  0  0
  1 14  1  0  0  0  0
  2 15  1  0  0  0  0
  7 16  1  0  0  0  0
  7 17  1  0  0  0  0
  8 18  1  0  0  0  0
  9 19  1  0  0  0  0
  9 20  1  0  0  0  0
 10 21  1  0  0  0  0
 11 22  1  0  0  0  0
M  END
> <id>
EN300-1912084

> <smiles>
N[C@H](CO)C=1C=C(Cl)C=C(Br)C1O

> <MDLNUMBER>
MFCD09253943

> <IUPAC Name>
2-[(1S)-1-amino-2-hydroxyethyl]-6-bromo-4-chlorophenol

> <CAS>
1213032-67-7

> <URL>
https://www.enaminestore.com/catalog/EN300-1912084

> <ROCS_ShapeQuery>
_x1604L0AP1_x0771L0AP1

> <ROCS_TanimotoCombo>
0.940 

> <ROCS_ShapeTanimoto>
0.448 

> <ROCS_ColorTanimoto>
0.491 

> <ROCS_RefTversky>
0.419 

> <ROCS_RefColorTversky>
0.564 

> <ROCS_RefTverskyCombo>
0.983 

> <ROCS_FitTversky>
1.186 

> <ROCS_FitColorTversky>
0.793 

> <ROCS_FitTverskyCombo>
1.979 

> <ROCS_ColorScore>
-6.492

> <ROCS_Overlap>
709.713

> <ROCS_Rank>
60                  

$$$$
untitled-dbase-1746_34
  -OEChem-06042309053D

 22 22  0     1  0  0  0  0  0999 V2000
   -4.7701   12.6601  -30.3180 C   0  0  0  0  0  0  0  0  0  0  0  0
   -5.0794   10.9247  -31.9702 C   0  0  0  0  0  0  0  0  0  0  0  0
   -5.7143   12.0455  -29.4956 C   0  0  0  0  0  0  0  0  0  0  0  0
   -6.3409   10.8703  -29.9104 C   0  0  0  0  0  0  0  0  0  0  0  0
   -4.4527   12.0998  -31.5553 C   0  0  0  0  0  0  0  0  0  0  0  0
   -6.0235   10.3099  -31.1477 C   0  0  0  0  0  0  0  0  0  0  0  0
   -5.7340   11.7372  -26.9836 C   0  0  0  0  0  0  0  0  0  0  0  0
   -6.0393   12.6622  -28.1748 C   0  0  1  0  0  0  0  0  0  0  0  0
   -5.3584   13.9354  -27.9987 N   0  0  0  0  0  0  0  0  0  0  0  0
   -7.2626   10.2809  -29.0945 O   0  0  0  0  0  0  0  0  0  0  0  0
   -6.0992   12.3784  -25.7658 O   0  0  0  0  0  0  0  0  0  0  0  0
   -3.2877   12.8589  -32.5699 Cl  0  0  0  0  0  0  0  0  0  0  0  0
   -6.8538    8.7141  -31.7465 Br  0  0  0  0  0  0  0  0  0  0  0  0
   -4.2833   13.5764  -29.9905 H   0  0  0  0  0  0  0  0  0  0  0  0
   -4.8293   10.4912  -32.9360 H   0  0  0  0  0  0  0  0  0  0  0  0
   -6.3160   10.8120  -27.0583 H   0  0  0  0  0  0  0  0  0  0  0  0
   -4.6705   11.4796  -26.9310 H   0  0  0  0  0  0  0  0  0  0  0  0
   -7.1110   12.9235  -28.1253 H   0  0  0  0  0  0  0  0  0  0  0  0
   -5.6360   14.5468  -28.7320 H   0  0  0  0  0  0  0  0  0  0  0  0
   -5.6177   14.3128  -27.1160 H   0  0  0  0  0  0  0  0  0  0  0  0
   -7.6112    9.4785  -29.5116 H   0  0  0  0  0  0  0  0  0  0  0  0
   -7.0503   12.5610  -25.8228 H   0  0  0  0  0  0  0  0  0  0  0  0
  1  3  2  0  0  0  0
  1  5  1  0  0  0  0
  2  5  2  0  0  0  0
  2  6  1  0  0  0  0
  3  4  1  0  0  0  0
  3  8  1  0  0  0  0
  4  6  2  0  0  0  0
  4 10  1  0  0  0  0
  5 12  1  0  0  0  0
  6 13  1  0  0  0  0
  7  8  1  0  0  0  0
  7 11  1  0  0  0  0
  8  9  1  0  0  0  0
  1 14  1  0  0  0  0
  2 15  1  0  0  0  0
  7 16  1  0  0  0  0
  7 17  1  0  0  0  0
  8 18  1  0  0  0  0
  9 19  1  0  0  0  0
  9 20  1  0  0  0  0
 10 21  1  0  0  0  0
 11 22  1  0  0  0  0
M  END
> <id>
EN300-1897165

> <smiles>
NC(CO)C=1C=C(Cl)C=C(Br)C1O

> <MDLNUMBER>
MFCD24521116

> <IUPAC Name>
2-(1-amino-2-hydroxyethyl)-6-bromo-4-chlorophenol

> <CAS>
1337256-91-3

> <URL>
https://www.enaminestore.com/catalog/EN300-1897165

> <ROCS_ShapeQuery>
_x1604L0AP1_x0771L0AP1

> <ROCS_TanimotoCombo>
0.940 

> <ROCS_ShapeTanimoto>
0.448 

> <ROCS_ColorTanimoto>
0.491 

> <ROCS_RefTversky>
0.419 

> <ROCS_RefColorTversky>
0.564 

> <ROCS_RefTverskyCombo>
0.983 

> <ROCS_FitTversky>
1.186 

> <ROCS_FitColorTversky>
0.793 

> <ROCS_FitTverskyCombo>
1.979 

> <ROCS_ColorScore>
-6.492

> <ROCS_Overlap>
709.713

> <ROCS_Rank>
61                  

$$$$
untitled-dbase-920_122
  -OEChem-06042309053D

 25 25  0     1  0  0  0  0  0999 V2000
   -5.1147   11.3462  -31.8794 C   0  0  0  0  0  0  0  0  0  0  0  0
   -4.4757   12.3513  -29.7774 C   0  0  0  0  0  0  0  0  0  0  0  0
   -6.0922   10.5974  -31.2242 C   0  0  0  0  0  0  0  0  0  0  0  0
   -6.2615   10.7256  -29.8456 C   0  0  0  0  0  0  0  0  0  0  0  0
   -4.3064   12.2232  -31.1560 C   0  0  0  0  0  0  0  0  0  0  0  0
   -5.4533   11.6025  -29.1222 C   0  0  0  0  0  0  0  0  0  0  0  0
   -6.9565    9.6538  -32.0268 C   0  0  0  0  0  0  0  0  0  0  0  0
   -6.9704    7.9547  -33.8889 C   0  0  0  0  0  0  0  0  0  0  0  0
   -6.1485    8.5670  -32.7532 C   0  0  2  0  0  0  0  0  0  0  0  0
   -5.7346    7.5322  -31.8285 N   0  0  0  0  0  0  0  0  0  0  0  0
   -7.2222    9.9859  -29.2190 O   0  0  0  0  0  0  0  0  0  0  0  0
   -6.4066    6.7014  -34.2586 O   0  0  0  0  0  0  0  0  0  0  0  0
   -3.1001   13.1468  -31.9650 Cl  0  0  0  0  0  0  0  0  0  0  0  0
   -5.6530   11.8041  -27.2475 Br  0  0  0  0  0  0  0  0  0  0  0  0
   -4.9861   11.2437  -32.9549 H   0  0  0  0  0  0  0  0  0  0  0  0
   -3.8430   13.0360  -29.2168 H   0  0  0  0  0  0  0  0  0  0  0  0
   -7.7060    9.1929  -31.3697 H   0  0  0  0  0  0  0  0  0  0  0  0
   -7.5223   10.2505  -32.7544 H   0  0  0  0  0  0  0  0  0  0  0  0
   -6.9526    8.6014  -34.7723 H   0  0  0  0  0  0  0  0  0  0  0  0
   -8.0114    7.7928  -33.5889 H   0  0  0  0  0  0  0  0  0  0  0  0
   -5.2219    8.9830  -33.1667 H   0  0  0  0  0  0  0  0  0  0  0  0
   -6.0712    7.7589  -30.9185 H   0  0  0  0  0  0  0  0  0  0  0  0
   -6.1166    6.6617  -32.1270 H   0  0  0  0  0  0  0  0  0  0  0  0
   -7.2234   10.1785  -28.2691 H   0  0  0  0  0  0  0  0  0  0  0  0
   -5.4974    6.8796  -34.5469 H   0  0  0  0  0  0  0  0  0  0  0  0
  1  3  2  0  0  0  0
  1  5  1  0  0  0  0
  2  5  2  0  0  0  0
  2  6  1  0  0  0  0
  3  4  1  0  0  0  0
  3  7  1  0  0  0  0
  4  6  2  0  0  0  0
  4 11  1  0  0  0  0
  5 13  1  0  0  0  0
  6 14  1  0  0  0  0
  7  9  1  0  0  0  0
  8  9  1  0  0  0  0
  8 12  1  0  0  0  0
  9 10  1  0  0  0  0
  1 15  1  0  0  0  0
  2 16  1  0  0  0  0
  7 17  1  0  0  0  0
  7 18  1  0  0  0  0
  8 19  1  0  0  0  0
  8 20  1  0  0  0  0
  9 21  1  0  0  0  0
 10 22  1  0  0  0  0
 10 23  1  0  0  0  0
 11 24  1  0  0  0  0
 12 25  1  0  0  0  0
M  END
> <id>
EN300-1922879

> <smiles>
NC(CO)CC=1C=C(Cl)C=C(Br)C1O

> <IUPAC Name>
2-(2-amino-3-hydroxypropyl)-6-bromo-4-chlorophenol

> <CAS>
1380141-03-6

> <URL>
https://www.enaminestore.com/catalog/EN300-1922879

> <ROCS_ShapeQuery>
_x1604L0AP1_x0771L0AP1

> <ROCS_TanimotoCombo>
0.940 

> <ROCS_ShapeTanimoto>
0.546 

> <ROCS_ColorTanimoto>
0.394 

> <ROCS_RefTversky>
0.485 

> <ROCS_RefColorTversky>
0.484 

> <ROCS_RefTverskyCombo>
0.968 

> <ROCS_FitTversky>
1.299 

> <ROCS_FitColorTversky>
0.680 

> <ROCS_FitTverskyCombo>
1.979 

> <ROCS_ColorScore>
-5.569

> <ROCS_Overlap>
822.279

> <ROCS_Rank>
62                  

$$$$
untitled-dbase-1941_156
  -OEChem-06042309053D

 22 22  0     0  0  0  0  0  0999 V2000
   -4.5648   12.4449  -29.7793 C   0  0  0  0  0  0  0  0  0  0  0  0
   -5.0237   11.1294  -31.7531 C   0  0  0  0  0  0  0  0  0  0  0  0
   -4.2948   12.1306  -31.1112 C   0  0  0  0  0  0  0  0  0  0  0  0
   -5.5636   11.7578  -29.0893 C   0  0  0  0  0  0  0  0  0  0  0  0
   -6.2924   10.7566  -29.7312 C   0  0  0  0  0  0  0  0  0  0  0  0
   -6.0224   10.4424  -31.0631 C   0  0  0  0  0  0  0  0  0  0  0  0
   -6.7891   13.0908  -27.5475 C   0  0  0  0  0  0  0  0  0  0  0  0
   -3.2276   12.8661  -31.8488 C   0  0  0  0  0  0  0  0  0  0  0  0
   -3.1349   15.8548  -30.4521 N   0  5  0  0  0  0  0  0  0  0  0  0
   -2.3721   13.6532  -30.9519 N   0  0  0  0  0  0  0  0  0  0  0  0
   -2.7745   14.8001  -30.6949 N   0  3  0  0  0  0  0  0  0  0  0  0
   -7.2660   10.0965  -29.0397 O   0  0  0  0  0  0  0  0  0  0  0  0
   -5.8160   12.0765  -27.7889 O   0  0  0  0  0  0  0  0  0  0  0  0
   -6.9918    9.0882  -31.9690 Br  0  0  0  0  0  0  0  0  0  0  0  0
   -3.9983   13.2252  -29.2768 H   0  0  0  0  0  0  0  0  0  0  0  0
   -4.8060   10.8918  -32.7921 H   0  0  0  0  0  0  0  0  0  0  0  0
   -6.8940   13.2473  -26.4711 H   0  0  0  0  0  0  0  0  0  0  0  0
   -7.7471   12.7876  -27.9775 H   0  0  0  0  0  0  0  0  0  0  0  0
   -6.4585   14.0198  -28.0180 H   0  0  0  0  0  0  0  0  0  0  0  0
   -2.5979   12.1675  -32.4201 H   0  0  0  0  0  0  0  0  0  0  0  0
   -3.6689   13.5446  -32.5938 H   0  0  0  0  0  0  0  0  0  0  0  0
   -7.3211   10.4381  -28.1342 H   0  0  0  0  0  0  0  0  0  0  0  0
  1  3  1  0  0  0  0
  1  4  2  0  0  0  0
  2  3  2  0  0  0  0
  2  6  1  0  0  0  0
  3  8  1  0  0  0  0
  4  5  1  0  0  0  0
  4 13  1  0  0  0  0
  5  6  2  0  0  0  0
  5 12  1  0  0  0  0
  6 14  1  0  0  0  0
  7 13  1  0  0  0  0
  8 10  1  0  0  0  0
  9 11  2  0  0  0  0
 10 11  2  0  0  0  0
  1 15  1  0  0  0  0
  2 16  1  0  0  0  0
  7 17  1  0  0  0  0
  7 18  1  0  0  0  0
  7 19  1  0  0  0  0
  8 20  1  0  0  0  0
  8 21  1  0  0  0  0
 12 22  1  0  0  0  0
M  CHG  2   9  -1  11   1
M  END
> <id>
EN300-2004352

> <smiles>
COC=1C=C(CN=[N+]=[N-])C=C(Br)C1O

> <IUPAC Name>
4-(azidomethyl)-2-bromo-6-methoxyphenol

> <CAS>
2228518-45-2

> <URL>
https://www.enaminestore.com/catalog/EN300-2004352

> <ROCS_ShapeQuery>
_x1604L0AP1_x0771L0AP1

> <ROCS_TanimotoCombo>
0.940 

> <ROCS_ShapeTanimoto>
0.525 

> <ROCS_ColorTanimoto>
0.415 

> <ROCS_RefTversky>
0.477 

> <ROCS_RefColorTversky>
0.431 

> <ROCS_RefTverskyCombo>
0.908 

> <ROCS_FitTversky>
1.237 

> <ROCS_FitColorTversky>
0.917 

> <ROCS_FitTverskyCombo>
2.154 

> <ROCS_ColorScore>
-4.895

> <ROCS_Overlap>
809.721

> <ROCS_Rank>
63                  

$$$$
untitled-dbase-149_0
  -OEChem-06042309053D

 18 18  0     0  0  0  0  0  0999 V2000
   -5.0495   11.1262  -31.7907 C   0  0  0  0  0  0  0  0  0  0  0  0
   -5.5641   11.7720  -29.1260 C   0  0  0  0  0  0  0  0  0  0  0  0
   -4.3217   12.1386  -31.1654 C   0  0  0  0  0  0  0  0  0  0  0  0
   -6.2919   10.7596  -29.7513 C   0  0  0  0  0  0  0  0  0  0  0  0
   -4.5790   12.4615  -29.8330 C   0  0  0  0  0  0  0  0  0  0  0  0
   -6.0346   10.4367  -31.0837 C   0  0  0  0  0  0  0  0  0  0  0  0
   -3.2964   12.8563  -31.9064 C   0  0  0  0  0  0  0  0  0  0  0  0
   -3.0339   14.2833  -31.5219 C   0  0  0  0  0  0  0  0  0  0  0  0
   -2.6300   12.3829  -32.8292 O   0  0  0  0  0  0  0  0  0  0  0  0
   -7.2475   10.1048  -29.0327 O   0  0  0  0  0  0  0  0  0  0  0  0
   -3.8867   13.4338  -29.2225 F   0  0  0  0  0  0  0  0  0  0  0  0
   -7.0053    9.0685  -31.9658 Br  0  0  0  0  0  0  0  0  0  0  0  0
   -4.8441   10.8801  -32.8303 H   0  0  0  0  0  0  0  0  0  0  0  0
   -5.7586   12.0286  -28.0882 H   0  0  0  0  0  0  0  0  0  0  0  0
   -2.2625   14.4020  -30.7446 H   0  0  0  0  0  0  0  0  0  0  0  0
   -3.9357   14.8114  -31.1754 H   0  0  0  0  0  0  0  0  0  0  0  0
   -2.6590   14.8982  -32.3595 H   0  0  0  0  0  0  0  0  0  0  0  0
   -7.6752    9.4300  -29.5824 H   0  0  0  0  0  0  0  0  0  0  0  0
  1  3  2  0  0  0  0
  1  6  1  0  0  0  0
  2  4  1  0  0  0  0
  2  5  2  0  0  0  0
  3  5  1  0  0  0  0
  3  7  1  0  0  0  0
  4  6  2  0  0  0  0
  4 10  1  0  0  0  0
  5 11  1  0  0  0  0
  6 12  1  0  0  0  0
  7  8  1  0  0  0  0
  7  9  2  0  0  0  0
  1 13  1  0  0  0  0
  2 14  1  0  0  0  0
  8 15  1  0  0  0  0
  8 16  1  0  0  0  0
  8 17  1  0  0  0  0
 10 18  1  0  0  0  0
M  END
> <id>
EN300-1276899

> <smiles>
CC(=O)C=1C=C(Br)C(O)=CC1F

> <MDLNUMBER>
MFCD24122855

> <IUPAC Name>
1-(5-bromo-2-fluoro-4-hydroxyphenyl)ethan-1-one

> <CAS>
1503357-95-6

> <URL>
https://www.enaminestore.com/catalog/EN300-1276899

> <ROCS_ShapeQuery>
_x1604L0AP1_x0771L0AP1

> <ROCS_TanimotoCombo>
0.940 

> <ROCS_ShapeTanimoto>
0.527 

> <ROCS_ColorTanimoto>
0.413 

> <ROCS_RefTversky>
0.463 

> <ROCS_RefColorTversky>
0.429 

> <ROCS_RefTverskyCombo>
0.892 

> <ROCS_FitTversky>
1.357 

> <ROCS_FitColorTversky>
0.914 

> <ROCS_FitTverskyCombo>
2.271 

> <ROCS_ColorScore>
-4.878

> <ROCS_Overlap>
783.673

> <ROCS_Rank>
64                  

$$$$
untitled-dbase-949_38
  -OEChem-06042309053D

 26 27  0     0  0  0  0  0  0999 V2000
   -4.6114   12.4974  -29.8513 C   0  0  0  0  0  0  0  0  0  0  0  0
   -4.3560   12.1790  -31.1851 C   0  0  0  0  0  0  0  0  0  0  0  0
   -5.5810   11.7914  -29.1391 C   0  0  0  0  0  0  0  0  0  0  0  0
   -5.0701   11.1547  -31.8068 C   0  0  0  0  0  0  0  0  0  0  0  0
   -6.2951   10.7671  -29.7608 C   0  0  0  0  0  0  0  0  0  0  0  0
   -6.0397   10.4487  -31.0946 C   0  0  0  0  0  0  0  0  0  0  0  0
   -4.2731    9.4582  -33.5757 C   0  0  0  0  0  0  0  0  0  0  0  0
   -3.3143   10.6068  -33.6119 C   0  0  0  0  0  0  0  0  0  0  0  0
   -4.7627   10.8526  -33.2379 C   0  0  0  0  0  0  0  0  0  0  0  0
   -5.6407   11.5537  -34.2341 C   0  0  0  0  0  0  0  0  0  0  0  0
   -6.6525    9.7180  -35.2256 N   0  0  0  0  0  0  0  0  0  0  0  0
   -7.2367   10.1014  -29.0332 O   0  0  0  0  0  0  0  0  0  0  0  0
   -6.8768   10.8570  -34.3504 O   0  0  0  0  0  0  0  0  0  0  0  0
   -7.0264    9.0523  -31.9316 Br  0  0  0  0  0  0  0  0  0  0  0  0
   -4.0548   13.2948  -29.3678 H   0  0  0  0  0  0  0  0  0  0  0  0
   -3.5971   12.7352  -31.7296 H   0  0  0  0  0  0  0  0  0  0  0  0
   -5.7741   12.0459  -28.1006 H   0  0  0  0  0  0  0  0  0  0  0  0
   -4.5718    9.0216  -34.5217 H   0  0  0  0  0  0  0  0  0  0  0  0
   -4.1608    8.7343  -32.7766 H   0  0  0  0  0  0  0  0  0  0  0  0
   -2.5573   10.6533  -32.8373 H   0  0  0  0  0  0  0  0  0  0  0  0
   -2.9681   10.9442  -34.5820 H   0  0  0  0  0  0  0  0  0  0  0  0
   -5.1686   11.5846  -35.2254 H   0  0  0  0  0  0  0  0  0  0  0  0
   -5.8547   12.5837  -33.9179 H   0  0  0  0  0  0  0  0  0  0  0  0
   -7.3772    9.8766  -35.9241 H   0  0  0  0  0  0  0  0  0  0  0  0
   -6.9832    8.9600  -34.6306 H   0  0  0  0  0  0  0  0  0  0  0  0
   -7.6581    9.4184  -29.5775 H   0  0  0  0  0  0  0  0  0  0  0  0
  1  2  1  0  0  0  0
  1  3  2  0  0  0  0
  2  4  2  0  0  0  0
  3  5  1  0  0  0  0
  4  6  1  0  0  0  0
  4  9  1  0  0  0  0
  5  6  2  0  0  0  0
  5 12  1  0  0  0  0
  6 14  1  0  0  0  0
  7  8  1  0  0  0  0
  7  9  1  0  0  0  0
  8  9  1  0  0  0  0
  9 10  1  0  0  0  0
 10 13  1  0  0  0  0
 11 13  1  0  0  0  0
  1 15  1  0  0  0  0
  2 16  1  0  0  0  0
  3 17  1  0  0  0  0
  7 18  1  0  0  0  0
  7 19  1  0  0  0  0
  8 20  1  0  0  0  0
  8 21  1  0  0  0  0
 10 22  1  0  0  0  0
 10 23  1  0  0  0  0
 11 24  1  0  0  0  0
 11 25  1  0  0  0  0
 12 26  1  0  0  0  0
M  END
> <id>
EN300-1904527

> <smiles>
NOCC1(CC1)C=2C=CC=C(O)C2Br

> <IUPAC Name>
3-{1-[(aminooxy)methyl]cyclopropyl}-2-bromophenol

> <CAS>
2228963-77-5

> <URL>
https://www.enaminestore.com/catalog/EN300-1904527

> <ROCS_ShapeQuery>
_x1604L0AP1_x0771L0AP1

> <ROCS_TanimotoCombo>
0.939 

> <ROCS_ShapeTanimoto>
0.488 

> <ROCS_ColorTanimoto>
0.451 

> <ROCS_RefTversky>
0.454 

> <ROCS_RefColorTversky>
0.432 

> <ROCS_RefTverskyCombo>
0.886 

> <ROCS_FitTversky>
1.180 

> <ROCS_FitColorTversky>
1.113 

> <ROCS_FitTverskyCombo>
2.293 

> <ROCS_ColorScore>
-4.883

> <ROCS_Overlap>
771.134

> <ROCS_Rank>
65                  

$$$$
untitled-dbase-666_6
  -OEChem-06042309053D

 22 22  0     1  0  0  0  0  0999 V2000
   -4.5828   12.4647  -29.8257 C   0  0  0  0  0  0  0  0  0  0  0  0
   -5.5649   11.7699  -29.1199 C   0  0  0  0  0  0  0  0  0  0  0  0
   -5.0564   11.1395  -31.7894 C   0  0  0  0  0  0  0  0  0  0  0  0
   -4.3285   12.1495  -31.1605 C   0  0  0  0  0  0  0  0  0  0  0  0
   -6.2928   10.7599  -29.7488 C   0  0  0  0  0  0  0  0  0  0  0  0
   -6.0386   10.4446  -31.0836 C   0  0  0  0  0  0  0  0  0  0  0  0
   -1.8865   12.2747  -31.7686 C   0  0  0  0  0  0  0  0  0  0  0  0
   -3.2780   12.8929  -31.9140 C   0  0  2  0  0  0  0  0  0  0  0  0
   -4.3103   14.9640  -32.0609 N   0  0  0  0  0  0  0  0  0  0  0  0
   -7.2446   10.0987  -29.0309 O   0  0  0  0  0  0  0  0  0  0  0  0
   -3.2211   14.2403  -31.4316 O   0  0  0  0  0  0  0  0  0  0  0  0
   -7.0071    9.0772  -31.9696 Br  0  0  0  0  0  0  0  0  0  0  0  0
   -4.0210   13.2500  -29.3265 H   0  0  0  0  0  0  0  0  0  0  0  0
   -5.7575   12.0211  -28.0802 H   0  0  0  0  0  0  0  0  0  0  0  0
   -4.8516   10.9008  -32.8309 H   0  0  0  0  0  0  0  0  0  0  0  0
   -1.6023   12.1866  -30.7151 H   0  0  0  0  0  0  0  0  0  0  0  0
   -1.1276   12.8754  -32.2824 H   0  0  0  0  0  0  0  0  0  0  0  0
   -1.8526   11.2786  -32.2236 H   0  0  0  0  0  0  0  0  0  0  0  0
   -3.5098   12.9566  -32.9908 H   0  0  0  0  0  0  0  0  0  0  0  0
   -3.7961   15.7384  -32.4781 H   0  0  0  0  0  0  0  0  0  0  0  0
   -4.7800   15.3370  -31.2374 H   0  0  0  0  0  0  0  0  0  0  0  0
   -7.6729    9.4264  -29.5832 H   0  0  0  0  0  0  0  0  0  0  0  0
  1  2  1  0  0  0  0
  1  4  2  0  0  0  0
  2  5  2  0  0  0  0
  3  4  1  0  0  0  0
  3  6  2  0  0  0  0
  4  8  1  0  0  0  0
  5  6  1  0  0  0  0
  5 10  1  0  0  0  0
  6 12  1  0  0  0  0
  7  8  1  0  0  0  0
  8 11  1  0  0  0  0
  9 11  1  0  0  0  0
  1 13  1  0  0  0  0
  2 14  1  0  0  0  0
  3 15  1  0  0  0  0
  7 16  1  0  0  0  0
  7 17  1  0  0  0  0
  7 18  1  0  0  0  0
  8 19  1  0  0  0  0
  9 20  1  0  0  0  0
  9 21  1  0  0  0  0
 10 22  1  0  0  0  0
M  END
> <id>
EN300-1906349

> <smiles>
CC(ON)C=1C=CC(O)=C(Br)C1

> <IUPAC Name>
4-[1-(aminooxy)ethyl]-2-bromophenol

> <CAS>
2228145-03-5

> <URL>
https://www.enaminestore.com/catalog/EN300-1906349

> <ROCS_ShapeQuery>
_x1604L0AP1_x0771L0AP1

> <ROCS_TanimotoCombo>
0.939 

> <ROCS_ShapeTanimoto>
0.488 

> <ROCS_ColorTanimoto>
0.451 

> <ROCS_RefTversky>
0.437 

> <ROCS_RefColorTversky>
0.431 

> <ROCS_RefTverskyCombo>
0.868 

> <ROCS_FitTversky>
1.314 

> <ROCS_FitColorTversky>
1.112 

> <ROCS_FitTverskyCombo>
2.426 

> <ROCS_ColorScore>
-4.878

> <ROCS_Overlap>
739.889

> <ROCS_Rank>
66                  

$$$$
untitled-dbase-120_0
  -OEChem-06042309053D

 15 15  0     1  0  0  0  0  0999 V2000
   -4.3637   12.1564  -31.2273 C   0  0  0  0  0  0  0  0  0  0  0  0
   -5.0895   11.1295  -31.8309 C   0  0  0  0  0  0  0  0  0  0  0  0
   -5.5713   11.7981  -29.1656 C   0  0  0  0  0  0  0  0  0  0  0  0
   -6.2971   10.7712  -29.7692 C   0  0  0  0  0  0  0  0  0  0  0  0
   -4.6046   12.4907  -29.8946 C   0  0  0  0  0  0  0  0  0  0  0  0
   -6.0562   10.4369  -31.1018 C   0  0  0  0  0  0  0  0  0  0  0  0
   -2.2976   13.3982  -29.2006 O   0  5  0  0  0  0  0  0  0  0  0  0
   -4.1693   15.0220  -29.7208 O   0  0  0  0  0  0  0  0  0  0  0  0
   -7.2354   10.1143  -29.0300 O   0  0  0  0  0  0  0  0  0  0  0  0
   -3.6979   13.7777  -29.1395 S   0  0  1  0  0  0  0  0  0  0  0  0
   -7.0230    9.0478  -31.9550 Br  0  0  0  0  0  0  0  0  0  0  0  0
   -3.6128   12.6891  -31.8046 H   0  0  0  0  0  0  0  0  0  0  0  0
   -4.8874   10.8832  -32.8702 H   0  0  0  0  0  0  0  0  0  0  0  0
   -5.7618   12.0572  -28.1270 H   0  0  0  0  0  0  0  0  0  0  0  0
   -7.6636    9.4290  -29.5661 H   0  0  0  0  0  0  0  0  0  0  0  0
  1  2  1  0  0  0  0
  1  5  2  0  0  0  0
  2  6  2  0  0  0  0
  3  4  2  0  0  0  0
  3  5  1  0  0  0  0
  4  6  1  0  0  0  0
  4  9  1  0  0  0  0
  5 10  1  0  0  0  0
  6 11  1  0  0  0  0
  7 10  1  0  0  0  0
  8 10  2  0  0  0  0
  1 12  1  0  0  0  0
  2 13  1  0  0  0  0
  3 14  1  0  0  0  0
  9 15  1  0  0  0  0
M  CHG  1   7  -1
M  END
> <id>
EN300-724388

> <smiles>
[Na+].OC=1C=C(C=CC1Br)S(=O)[O-]

> <MDLNUMBER>
MFCD31442498

> <IUPAC Name>
sodium 4-bromo-3-hydroxybenzene-1-sulfinate

> <CAS>
2137989-65-0

> <URL>
https://www.enaminestore.com/catalog/EN300-724388

> <Saltdate>
[Na+]

> <ROCS_ShapeQuery>
_x1604L0AP1_x0771L0AP1

> <ROCS_TanimotoCombo>
0.938 

> <ROCS_ShapeTanimoto>
0.488 

> <ROCS_ColorTanimoto>
0.451 

> <ROCS_RefTversky>
0.428 

> <ROCS_RefColorTversky>
0.431 

> <ROCS_RefTverskyCombo>
0.859 

> <ROCS_FitTversky>
1.406 

> <ROCS_FitColorTversky>
1.112 

> <ROCS_FitTverskyCombo>
2.518 

> <ROCS_ColorScore>
-4.877

> <ROCS_Overlap>
722.599

> <ROCS_Rank>
67                  

$$$$
untitled-dbase-1516_0
  -OEChem-06042309053D

 32 33  0     0  0  0  0  0  0999 V2000
   -4.3359   12.7711  -30.5037 C   0  0  0  0  0  0  0  0  0  0  0  0
   -4.8504   11.8072  -31.3707 C   0  0  0  0  0  0  0  0  0  0  0  0
   -4.7787   12.8280  -29.1822 C   0  0  0  0  0  0  0  0  0  0  0  0
   -5.8078   10.9002  -30.9163 C   0  0  0  0  0  0  0  0  0  0  0  0
   -6.2506   10.9571  -29.5947 C   0  0  0  0  0  0  0  0  0  0  0  0
   -5.7360   11.9210  -28.7277 C   0  0  0  0  0  0  0  0  0  0  0  0
   -6.4942    7.2919  -32.2987 C   0  0  0  0  0  0  0  0  0  0  0  0
   -6.2251    8.8315  -34.2695 C   0  0  0  0  0  0  0  0  0  0  0  0
   -6.0616    8.4154  -31.3545 C   0  0  0  0  0  0  0  0  0  0  0  0
   -5.7780    9.9530  -33.3295 C   0  0  0  0  0  0  0  0  0  0  0  0
   -5.9015    7.4584  -33.6922 C   0  0  0  0  0  0  0  0  0  0  0  0
   -6.3636    9.8440  -31.8921 C   0  0  0  0  0  0  0  0  0  0  0  0
   -7.8257   10.0080  -32.0147 N   0  0  0  0  0  0  0  0  0  0  0  0
   -7.1889   10.0639  -29.1654 O   0  0  0  0  0  0  0  0  0  0  0  0
   -6.4337    6.4447  -34.5379 O   0  0  0  0  0  0  0  0  0  0  0  0
   -6.3111   12.0304  -26.9246 Br  0  0  0  0  0  0  0  0  0  0  0  0
   -3.5902   13.4770  -30.8574 H   0  0  0  0  0  0  0  0  0  0  0  0
   -4.4982   11.7684  -32.3981 H   0  0  0  0  0  0  0  0  0  0  0  0
   -4.3658   13.5858  -28.5211 H   0  0  0  0  0  0  0  0  0  0  0  0
   -6.1882    6.3231  -31.8845 H   0  0  0  0  0  0  0  0  0  0  0  0
   -7.5889    7.2464  -32.3595 H   0  0  0  0  0  0  0  0  0  0  0  0
   -7.2985    8.9089  -34.4820 H   0  0  0  0  0  0  0  0  0  0  0  0
   -5.7292    8.9465  -35.2413 H   0  0  0  0  0  0  0  0  0  0  0  0
   -6.5397    8.2684  -30.3766 H   0  0  0  0  0  0  0  0  0  0  0  0
   -4.9816    8.3155  -31.1745 H   0  0  0  0  0  0  0  0  0  0  0  0
   -4.6797    9.9434  -33.2784 H   0  0  0  0  0  0  0  0  0  0  0  0
   -6.0460   10.9212  -33.7740 H   0  0  0  0  0  0  0  0  0  0  0  0
   -4.8148    7.3185  -33.6462 H   0  0  0  0  0  0  0  0  0  0  0  0
   -8.2247    9.8868  -31.1153 H   0  0  0  0  0  0  0  0  0  0  0  0
   -8.0039   10.9200  -32.3603 H   0  0  0  0  0  0  0  0  0  0  0  0
   -7.3976   10.2232  -28.2325 H   0  0  0  0  0  0  0  0  0  0  0  0
   -7.3960    6.5684  -34.5484 H   0  0  0  0  0  0  0  0  0  0  0  0
  1  2  1  0  0  0  0
  1  3  2  0  0  0  0
  2  4  2  0  0  0  0
  3  6  1  0  0  0  0
  4  5  1  0  0  0  0
  4 12  1  0  0  0  0
  5  6  2  0  0  0  0
  5 14  1  0  0  0  0
  6 16  1  0  0  0  0
  7  9  1  0  0  0  0
  7 11  1  0  0  0  0
  8 10  1  0  0  0  0
  8 11  1  0  0  0  0
  9 12  1  0  0  0  0
 10 12  1  0  0  0  0
 11 15  1  0  0  0  0
 12 13  1  0  0  0  0
  1 17  1  0  0  0  0
  2 18  1  0  0  0  0
  3 19  1  0  0  0  0
  7 20  1  0  0  0  0
  7 21  1  0  0  0  0
  8 22  1  0  0  0  0
  8 23  1  0  0  0  0
  9 24  1  0  0  0  0
  9 25  1  0  0  0  0
 10 26  1  0  0  0  0
 10 27  1  0  0  0  0
 11 28  1  0  0  0  0
 13 29  1  0  0  0  0
 13 30  1  0  0  0  0
 14 31  1  0  0  0  0
 15 32  1  0  0  0  0
M  END
> <id>
EN300-1923776

> <smiles>
NC1(CCC(O)CC1)C=2C=CC=C(Br)C2O

> <IUPAC Name>
2-(1-amino-4-hydroxycyclohexyl)-6-bromophenol

> <CAS>
2228739-46-4

> <URL>
https://www.enaminestore.com/catalog/EN300-1923776

> <ROCS_ShapeQuery>
_x1604L0AP1_x0771L0AP1

> <ROCS_TanimotoCombo>
0.938 

> <ROCS_ShapeTanimoto>
0.568 

> <ROCS_ColorTanimoto>
0.370 

> <ROCS_RefTversky>
0.520 

> <ROCS_RefColorTversky>
0.484 

> <ROCS_RefTverskyCombo>
1.003 

> <ROCS_FitTversky>
1.195 

> <ROCS_FitColorTversky>
0.612 

> <ROCS_FitTverskyCombo>
1.807 

> <ROCS_ColorScore>
-5.592

> <ROCS_Overlap>
884.575

> <ROCS_Rank>
68                  

$$$$
untitled-dbase-981_345
  -OEChem-06042309053D

 29 29  0     1  0  0  0  0  0999 V2000
   -5.2146   11.4282  -31.8041 C   0  0  0  0  0  0  0  0  0  0  0  0
   -4.4126   12.3353  -29.7134 C   0  0  0  0  0  0  0  0  0  0  0  0
   -4.3255   12.2423  -31.1025 C   0  0  0  0  0  0  0  0  0  0  0  0
   -6.1910   10.7071  -31.1167 C   0  0  0  0  0  0  0  0  0  0  0  0
   -6.2781   10.8001  -29.7276 C   0  0  0  0  0  0  0  0  0  0  0  0
   -5.3889   11.6142  -29.0260 C   0  0  0  0  0  0  0  0  0  0  0  0
   -6.8606    9.0561  -34.0422 C   0  0  0  0  0  0  0  0  0  0  0  0
   -2.2945   12.1166  -32.5884 C   0  0  0  0  0  0  0  0  0  0  0  0
   -6.4807    8.8626  -32.5896 C   0  0  0  0  0  0  0  0  0  0  0  0
   -3.2812   13.0123  -31.8377 C   0  0  2  0  0  0  0  0  0  0  0  0
   -3.3400   14.9866  -30.6230 N   0  0  0  0  0  0  0  0  0  0  0  0
   -7.2392   10.0863  -29.0731 O   0  0  0  0  0  0  0  0  0  0  0  0
   -7.0518    9.9158  -31.8159 O   0  0  0  0  0  0  0  0  0  0  0  0
   -2.5418   13.8076  -30.9038 O   0  0  0  0  0  0  0  0  0  0  0  0
   -5.4763   11.7660  -27.1383 Br  0  0  0  0  0  0  0  0  0  0  0  0
   -5.1485   11.3538  -32.8869 H   0  0  0  0  0  0  0  0  0  0  0  0
   -3.7144   12.9726  -29.1751 H   0  0  0  0  0  0  0  0  0  0  0  0
   -7.9466    9.0321  -34.1680 H   0  0  0  0  0  0  0  0  0  0  0  0
   -6.4824   10.0132  -34.4159 H   0  0  0  0  0  0  0  0  0  0  0  0
   -6.4155    8.2730  -34.6650 H   0  0  0  0  0  0  0  0  0  0  0  0
   -1.8238   11.3954  -31.9126 H   0  0  0  0  0  0  0  0  0  0  0  0
   -1.5056   12.7067  -33.0682 H   0  0  0  0  0  0  0  0  0  0  0  0
   -2.7993   11.5658  -33.3897 H   0  0  0  0  0  0  0  0  0  0  0  0
   -5.3934    8.8876  -32.4707 H   0  0  0  0  0  0  0  0  0  0  0  0
   -6.8600    7.9062  -32.2176 H   0  0  0  0  0  0  0  0  0  0  0  0
   -3.7223   13.7149  -32.5652 H   0  0  0  0  0  0  0  0  0  0  0  0
   -2.6669   15.7184  -30.8459 H   0  0  0  0  0  0  0  0  0  0  0  0
   -3.3880   14.9354  -29.6067 H   0  0  0  0  0  0  0  0  0  0  0  0
   -7.7661    9.5772  -29.7078 H   0  0  0  0  0  0  0  0  0  0  0  0
  1  3  1  0  0  0  0
  1  4  2  0  0  0  0
  2  3  2  0  0  0  0
  2  6  1  0  0  0  0
  3 10  1  0  0  0  0
  4  5  1  0  0  0  0
  4 13  1  0  0  0  0
  5  6  2  0  0  0  0
  5 12  1  0  0  0  0
  6 15  1  0  0  0  0
  7  9  1  0  0  0  0
  8 10  1  0  0  0  0
  9 13  1  0  0  0  0
 10 14  1  0  0  0  0
 11 14  1  0  0  0  0
  1 16  1  0  0  0  0
  2 17  1  0  0  0  0
  7 18  1  0  0  0  0
  7 19  1  0  0  0  0
  7 20  1  0  0  0  0
  8 21  1  0  0  0  0
  8 22  1  0  0  0  0
  8 23  1  0  0  0  0
  9 24  1  0  0  0  0
  9 25  1  0  0  0  0
 10 26  1  0  0  0  0
 11 27  1  0  0  0  0
 11 28  1  0  0  0  0
 12 29  1  0  0  0  0
M  END
> <id>
EN300-1920285

> <smiles>
CCOC=1C=C(C=C(Br)C1O)C(C)ON

> <IUPAC Name>
4-[1-(aminooxy)ethyl]-2-bromo-6-ethoxyphenol

> <CAS>
2229624-89-7

> <URL>
https://www.enaminestore.com/catalog/EN300-1920285

> <ROCS_ShapeQuery>
_x1604L0AP1_x0771L0AP1

> <ROCS_TanimotoCombo>
0.938 

> <ROCS_ShapeTanimoto>
0.635 

> <ROCS_ColorTanimoto>
0.303 

> <ROCS_RefTversky>
0.545 

> <ROCS_RefColorTversky>
0.342 

> <ROCS_RefTverskyCombo>
0.887 

> <ROCS_FitTversky>
1.350 

> <ROCS_FitColorTversky>
0.728 

> <ROCS_FitTverskyCombo>
2.078 

> <ROCS_ColorScore>
-3.884

> <ROCS_Overlap>
926.370

> <ROCS_Rank>
69                  

$$$$
untitled-dbase-1609_90
  -OEChem-06042309053D

 21 21  0     0  0  0  0  0  0999 V2000
   -4.6082   12.4917  -29.8768 C   0  0  0  0  0  0  0  0  0  0  0  0
   -4.3738   12.1756  -31.2149 C   0  0  0  0  0  0  0  0  0  0  0  0
   -5.5694   11.7872  -29.1517 C   0  0  0  0  0  0  0  0  0  0  0  0
   -5.1005   11.1551  -31.8281 C   0  0  0  0  0  0  0  0  0  0  0  0
   -6.2961   10.7667  -29.7649 C   0  0  0  0  0  0  0  0  0  0  0  0
   -6.0617   10.4506  -31.1031 C   0  0  0  0  0  0  0  0  0  0  0  0
   -4.8118   10.8555  -33.2640 C   0  0  0  0  0  0  0  0  0  0  0  0
   -6.0448   10.9550  -34.1674 C   0  0  0  0  0  0  0  0  0  0  0  0
   -5.8601    8.3286  -36.1572 N   0  5  0  0  0  0  0  0  0  0  0  0
   -5.6762   10.6260  -35.5470 N   0  0  0  0  0  0  0  0  0  0  0  0
   -5.7735    9.4267  -35.8610 N   0  3  0  0  0  0  0  0  0  0  0  0
   -7.2277   10.1006  -29.0250 O   0  0  0  0  0  0  0  0  0  0  0  0
   -7.0591    9.0562  -31.9289 Br  0  0  0  0  0  0  0  0  0  0  0  0
   -4.0427   13.2867  -29.3994 H   0  0  0  0  0  0  0  0  0  0  0  0
   -3.6225   12.7312  -31.7705 H   0  0  0  0  0  0  0  0  0  0  0  0
   -5.7467   12.0398  -28.1097 H   0  0  0  0  0  0  0  0  0  0  0  0
   -4.0228   11.5236  -33.6462 H   0  0  0  0  0  0  0  0  0  0  0  0
   -4.3964    9.8380  -33.3444 H   0  0  0  0  0  0  0  0  0  0  0  0
   -6.8099   10.2450  -33.8373 H   0  0  0  0  0  0  0  0  0  0  0  0
   -6.4846   11.9576  -34.1338 H   0  0  0  0  0  0  0  0  0  0  0  0
   -7.6592    9.4206  -29.5650 H   0  0  0  0  0  0  0  0  0  0  0  0
  1  2  2  0  0  0  0
  1  3  1  0  0  0  0
  2  4  1  0  0  0  0
  3  5  2  0  0  0  0
  4  6  2  0  0  0  0
  4  7  1  0  0  0  0
  5  6  1  0  0  0  0
  5 12  1  0  0  0  0
  6 13  1  0  0  0  0
  7  8  1  0  0  0  0
  8 10  1  0  0  0  0
  9 11  2  0  0  0  0
 10 11  2  0  0  0  0
  1 14  1  0  0  0  0
  2 15  1  0  0  0  0
  3 16  1  0  0  0  0
  7 17  1  0  0  0  0
  7 18  1  0  0  0  0
  8 19  1  0  0  0  0
  8 20  1  0  0  0  0
 12 21  1  0  0  0  0
M  CHG  2   9  -1  11   1
M  END
> <id>
EN300-1904624

> <smiles>
OC=1C=CC=C(CCN=[N+]=[N-])C1Br

> <IUPAC Name>
3-(2-azidoethyl)-2-bromophenol

> <CAS>
2228160-44-7

> <URL>
https://www.enaminestore.com/catalog/EN300-1904624

> <ROCS_ShapeQuery>
_x1604L0AP1_x0771L0AP1

> <ROCS_TanimotoCombo>
0.938 

> <ROCS_ShapeTanimoto>
0.487 

> <ROCS_ColorTanimoto>
0.451 

> <ROCS_RefTversky>
0.444 

> <ROCS_RefColorTversky>
0.431 

> <ROCS_RefTverskyCombo>
0.876 

> <ROCS_FitTversky>
1.245 

> <ROCS_FitColorTversky>
1.113 

> <ROCS_FitTverskyCombo>
2.357 

> <ROCS_ColorScore>
-4.879

> <ROCS_Overlap>
753.182

> <ROCS_Rank>
70                  

$$$$
untitled-dbase-174_6
  -OEChem-06042309053D

 21 21  0     0  0  0  0  0  0999 V2000
   -5.0550   11.1299  -31.7944 C   0  0  0  0  0  0  0  0  0  0  0  0
   -5.5669   11.7763  -29.1293 C   0  0  0  0  0  0  0  0  0  0  0  0
   -4.3288   12.1446  -31.1711 C   0  0  0  0  0  0  0  0  0  0  0  0
   -4.5847   12.4678  -29.8385 C   0  0  0  0  0  0  0  0  0  0  0  0
   -6.2931   10.7616  -29.7528 C   0  0  0  0  0  0  0  0  0  0  0  0
   -6.0372   10.4384  -31.0853 C   0  0  0  0  0  0  0  0  0  0  0  0
   -3.3094   12.8516  -31.9343 C   0  0  0  0  0  0  0  0  0  0  0  0
   -3.8229   13.5511  -29.1474 C   0  0  0  0  0  0  0  0  0  0  0  0
   -3.1030   12.4376  -33.3613 C   0  0  0  0  0  0  0  0  0  0  0  0
   -2.6028   13.7590  -31.4938 O   0  0  0  0  0  0  0  0  0  0  0  0
   -7.2463   10.1048  -29.0327 O   0  0  0  0  0  0  0  0  0  0  0  0
   -7.0048    9.0659  -31.9641 Br  0  0  0  0  0  0  0  0  0  0  0  0
   -4.8507   10.8821  -32.8341 H   0  0  0  0  0  0  0  0  0  0  0  0
   -5.7689   12.0259  -28.0903 H   0  0  0  0  0  0  0  0  0  0  0  0
   -2.9269   13.1391  -28.6690 H   0  0  0  0  0  0  0  0  0  0  0  0
   -3.5149   14.3314  -29.8540 H   0  0  0  0  0  0  0  0  0  0  0  0
   -4.4364   14.0390  -28.3800 H   0  0  0  0  0  0  0  0  0  0  0  0
   -3.7291   12.9873  -34.0818 H   0  0  0  0  0  0  0  0  0  0  0  0
   -3.2722   11.3627  -33.5296 H   0  0  0  0  0  0  0  0  0  0  0  0
   -2.0734   12.6142  -33.7201 H   0  0  0  0  0  0  0  0  0  0  0  0
   -7.6729    9.4286  -29.5815 H   0  0  0  0  0  0  0  0  0  0  0  0
  1  3  2  0  0  0  0
  1  6  1  0  0  0  0
  2  4  2  0  0  0  0
  2  5  1  0  0  0  0
  3  4  1  0  0  0  0
  3  7  1  0  0  0  0
  4  8  1  0  0  0  0
  5  6  2  0  0  0  0
  5 11  1  0  0  0  0
  6 12  1  0  0  0  0
  7  9  1  0  0  0  0
  7 10  2  0  0  0  0
  1 13  1  0  0  0  0
  2 14  1  0  0  0  0
  8 15  1  0  0  0  0
  8 16  1  0  0  0  0
  8 17  1  0  0  0  0
  9 18  1  0  0  0  0
  9 19  1  0  0  0  0
  9 20  1  0  0  0  0
 11 21  1  0  0  0  0
M  END
> <id>
EN300-1276832

> <smiles>
CC(=O)C=1C=C(Br)C(O)=CC1C

> <IUPAC Name>
1-(5-bromo-4-hydroxy-2-methylphenyl)ethan-1-one

> <CAS>
1783644-44-9

> <URL>
https://www.enaminestore.com/catalog/EN300-1276832

> <ROCS_ShapeQuery>
_x1604L0AP1_x0771L0AP1

> <ROCS_TanimotoCombo>
0.938 

> <ROCS_ShapeTanimoto>
0.525 

> <ROCS_ColorTanimoto>
0.413 

> <ROCS_RefTversky>
0.460 

> <ROCS_RefColorTversky>
0.429 

> <ROCS_RefTverskyCombo>
0.889 

> <ROCS_FitTversky>
1.366 

> <ROCS_FitColorTversky>
0.914 

> <ROCS_FitTverskyCombo>
2.281 

> <ROCS_ColorScore>
-4.879

> <ROCS_Overlap>
778.958

> <ROCS_Rank>
71                  

$$$$
untitled-dbase-2094_1471
  -OEChem-06042309053D

 26 26  0     0  0  0  0  0  0999 V2000
   -4.5957   12.4814  -29.8196 C   0  0  0  0  0  0  0  0  0  0  0  0
   -5.0582   11.1470  -31.7797 C   0  0  0  0  0  0  0  0  0  0  0  0
   -4.3369   12.1630  -31.1527 C   0  0  0  0  0  0  0  0  0  0  0  0
   -5.5756   11.7837  -29.1134 C   0  0  0  0  0  0  0  0  0  0  0  0
   -6.2969   10.7677  -29.7404 C   0  0  0  0  0  0  0  0  0  0  0  0
   -6.0382   10.4493  -31.0736 C   0  0  0  0  0  0  0  0  0  0  0  0
   -4.9091   12.2415  -25.6010 C   0  0  0  0  0  0  0  0  0  0  0  0
   -3.2898   12.9098  -31.9076 C   0  0  0  0  0  0  0  0  0  0  0  0
   -4.7198   12.6144  -27.0559 C   0  0  0  0  0  0  0  0  0  0  0  0
   -3.1937   14.8434  -30.6315 N   0  0  0  0  0  0  0  0  0  0  0  0
   -7.2521   10.0974  -29.0333 O   0  0  0  0  0  0  0  0  0  0  0  0
   -5.8173   12.1067  -27.8121 O   0  0  0  0  0  0  0  0  0  0  0  0
   -2.4741   13.6329  -30.9940 O   0  0  0  0  0  0  0  0  0  0  0  0
   -6.9977    9.0751  -31.9595 Br  0  0  0  0  0  0  0  0  0  0  0  0
   -4.0350   13.2733  -29.3286 H   0  0  0  0  0  0  0  0  0  0  0  0
   -4.8494   10.9062  -32.8199 H   0  0  0  0  0  0  0  0  0  0  0  0
   -5.8338   12.6707  -25.2052 H   0  0  0  0  0  0  0  0  0  0  0  0
   -4.9453   11.1536  -25.4828 H   0  0  0  0  0  0  0  0  0  0  0  0
   -4.0675   12.5992  -24.9984 H   0  0  0  0  0  0  0  0  0  0  0  0
   -2.6503   12.2290  -32.4860 H   0  0  0  0  0  0  0  0  0  0  0  0
   -3.7406   13.6186  -32.6157 H   0  0  0  0  0  0  0  0  0  0  0  0
   -3.7934   12.1821  -27.4455 H   0  0  0  0  0  0  0  0  0  0  0  0
   -4.6847   13.7017  -27.1722 H   0  0  0  0  0  0  0  0  0  0  0  0
   -2.4971   15.5496  -30.8649 H   0  0  0  0  0  0  0  0  0  0  0  0
   -3.1952   14.7610  -29.6161 H   0  0  0  0  0  0  0  0  0  0  0  0
   -7.6689    9.4240  -29.5921 H   0  0  0  0  0  0  0  0  0  0  0  0
  1  3  1  0  0  0  0
  1  4  2  0  0  0  0
  2  3  2  0  0  0  0
  2  6  1  0  0  0  0
  3  8  1  0  0  0  0
  4  5  1  0  0  0  0
  4 12  1  0  0  0  0
  5  6  2  0  0  0  0
  5 11  1  0  0  0  0
  6 14  1  0  0  0  0
  7  9  1  0  0  0  0
  8 13  1  0  0  0  0
  9 12  1  0  0  0  0
 10 13  1  0  0  0  0
  1 15  1  0  0  0  0
  2 16  1  0  0  0  0
  7 17  1  0  0  0  0
  7 18  1  0  0  0  0
  7 19  1  0  0  0  0
  8 20  1  0  0  0  0
  8 21  1  0  0  0  0
  9 22  1  0  0  0  0
  9 23  1  0  0  0  0
 10 24  1  0  0  0  0
 10 25  1  0  0  0  0
 11 26  1  0  0  0  0
M  END
> <id>
EN300-1920281

> <smiles>
CCOC=1C=C(CON)C=C(Br)C1O

> <IUPAC Name>
4-[(aminooxy)methyl]-2-bromo-6-ethoxyphenol

> <CAS>
2229470-14-6

> <URL>
https://www.enaminestore.com/catalog/EN300-1920281

> <ROCS_ShapeQuery>
_x1604L0AP1_x0771L0AP1

> <ROCS_TanimotoCombo>
0.937 

> <ROCS_ShapeTanimoto>
0.522 

> <ROCS_ColorTanimoto>
0.415 

> <ROCS_RefTversky>
0.473 

> <ROCS_RefColorTversky>
0.431 

> <ROCS_RefTverskyCombo>
0.904 

> <ROCS_FitTversky>
1.246 

> <ROCS_FitColorTversky>
0.918 

> <ROCS_FitTverskyCombo>
2.164 

> <ROCS_ColorScore>
-4.898

> <ROCS_Overlap>
802.867

> <ROCS_Rank>
72                  

$$$$
untitled-dbase-710_44
  -OEChem-06042309053D

 24 24  0     0  0  0  0  0  0999 V2000
   -4.9724   11.2748  -31.7788 C   0  0  0  0  0  0  0  0  0  0  0  0
   -4.5997   12.5100  -29.7362 C   0  0  0  0  0  0  0  0  0  0  0  0
   -5.9557   10.5180  -31.1418 C   0  0  0  0  0  0  0  0  0  0  0  0
   -6.2612   10.7572  -29.8020 C   0  0  0  0  0  0  0  0  0  0  0  0
   -4.2943   12.2708  -31.0760 C   0  0  0  0  0  0  0  0  0  0  0  0
   -5.5832   11.7533  -29.0991 C   0  0  0  0  0  0  0  0  0  0  0  0
   -6.7037    8.0832  -34.0428 C   0  0  0  0  0  0  0  0  0  0  0  0
   -7.7789    8.5798  -34.9499 C   0  0  0  0  0  0  0  0  0  0  0  0
   -6.6759    9.4472  -31.9196 C   0  0  0  0  0  0  0  0  0  0  0  0
   -5.9828    9.1510  -33.2485 C   0  0  0  0  0  0  0  0  0  0  0  0
   -6.4620    6.8846  -33.9790 O   0  0  0  0  0  0  0  0  0  0  0  0
   -7.2258   10.0083  -29.1927 O   0  0  0  0  0  0  0  0  0  0  0  0
   -3.0807   13.2042  -31.8625 Cl  0  0  0  0  0  0  0  0  0  0  0  0
   -5.9700   12.1080  -27.2772 Br  0  0  0  0  0  0  0  0  0  0  0  0
   -4.7374   11.0853  -32.8241 H   0  0  0  0  0  0  0  0  0  0  0  0
   -4.0683   13.2874  -29.1915 H   0  0  0  0  0  0  0  0  0  0  0  0
   -7.4041    8.8202  -35.9572 H   0  0  0  0  0  0  0  0  0  0  0  0
   -8.5786    7.8381  -35.1015 H   0  0  0  0  0  0  0  0  0  0  0  0
   -8.2858    9.4920  -34.5987 H   0  0  0  0  0  0  0  0  0  0  0  0
   -6.7400    8.5345  -31.3128 H   0  0  0  0  0  0  0  0  0  0  0  0
   -7.7148    9.7565  -32.0931 H   0  0  0  0  0  0  0  0  0  0  0  0
   -4.9564    8.8081  -33.0716 H   0  0  0  0  0  0  0  0  0  0  0  0
   -5.9380   10.0581  -33.8629 H   0  0  0  0  0  0  0  0  0  0  0  0
   -7.3283   10.2852  -28.2695 H   0  0  0  0  0  0  0  0  0  0  0  0
  1  3  2  0  0  0  0
  1  5  1  0  0  0  0
  2  5  2  0  0  0  0
  2  6  1  0  0  0  0
  3  4  1  0  0  0  0
  3  9  1  0  0  0  0
  4  6  2  0  0  0  0
  4 12  1  0  0  0  0
  5 13  1  0  0  0  0
  6 14  1  0  0  0  0
  7  8  1  0  0  0  0
  7 10  1  0  0  0  0
  7 11  2  0  0  0  0
  9 10  1  0  0  0  0
  1 15  1  0  0  0  0
  2 16  1  0  0  0  0
  8 17  1  0  0  0  0
  8 18  1  0  0  0  0
  8 19  1  0  0  0  0
  9 20  1  0  0  0  0
  9 21  1  0  0  0  0
 10 22  1  0  0  0  0
 10 23  1  0  0  0  0
 12 24  1  0  0  0  0
M  END
> <id>
EN300-1922929

> <smiles>
CC(=O)CCC=1C=C(Cl)C=C(Br)C1O

> <IUPAC Name>
4-(3-bromo-5-chloro-2-hydroxyphenyl)butan-2-one

> <CAS>
2228260-04-4

> <URL>
https://www.enaminestore.com/catalog/EN300-1922929

> <ROCS_ShapeQuery>
_x1604L0AP1_x0771L0AP1

> <ROCS_TanimotoCombo>
0.936 

> <ROCS_ShapeTanimoto>
0.573 

> <ROCS_ColorTanimoto>
0.363 

> <ROCS_RefTversky>
0.501 

> <ROCS_RefColorTversky>
0.392 

> <ROCS_RefTverskyCombo>
0.892 

> <ROCS_FitTversky>
1.337 

> <ROCS_FitColorTversky>
0.834 

> <ROCS_FitTverskyCombo>
2.172 

> <ROCS_ColorScore>
-4.450

> <ROCS_Overlap>
849.302

> <ROCS_Rank>
73                  

$$$$
untitled-dbase-2187_418
  -OEChem-06042309053D

 25 25  0     0  0  0  0  0  0999 V2000
   -4.5606   12.4485  -29.7960 C   0  0  0  0  0  0  0  0  0  0  0  0
   -5.0349   11.1301  -31.7642 C   0  0  0  0  0  0  0  0  0  0  0  0
   -4.3014   12.1326  -31.1296 C   0  0  0  0  0  0  0  0  0  0  0  0
   -5.5533   11.7619  -29.0968 C   0  0  0  0  0  0  0  0  0  0  0  0
   -6.2868   10.7595  -29.7313 C   0  0  0  0  0  0  0  0  0  0  0  0
   -6.0277   10.4435  -31.0650 C   0  0  0  0  0  0  0  0  0  0  0  0
   -5.0537   11.3730  -26.8045 C   0  0  0  0  0  0  0  0  0  0  0  0
   -3.2406   12.8675  -31.8770 C   0  0  0  0  0  0  0  0  0  0  0  0
   -2.5284   13.9360  -31.0393 C   0  0  0  0  0  0  0  0  0  0  0  0
   -5.4059   15.2699  -31.9517 N   0  5  0  0  0  0  0  0  0  0  0  0
   -3.5036   14.9183  -30.5581 N   0  0  0  0  0  0  0  0  0  0  0  0
   -4.4941   15.0986  -31.2881 N   0  3  0  0  0  0  0  0  0  0  0  0
   -7.2544   10.0999  -29.0310 O   0  0  0  0  0  0  0  0  0  0  0  0
   -5.7952   12.0823  -27.7949 O   0  0  0  0  0  0  0  0  0  0  0  0
   -7.0037    9.0876  -31.9610 Br  0  0  0  0  0  0  0  0  0  0  0  0
   -3.9903   13.2299  -29.2992 H   0  0  0  0  0  0  0  0  0  0  0  0
   -4.8257   10.8912  -32.8046 H   0  0  0  0  0  0  0  0  0  0  0  0
   -5.3423   11.7246  -25.8109 H   0  0  0  0  0  0  0  0  0  0  0  0
   -3.9845   11.5343  -26.9634 H   0  0  0  0  0  0  0  0  0  0  0  0
   -5.2759   10.3067  -26.8899 H   0  0  0  0  0  0  0  0  0  0  0  0
   -2.4924   12.1650  -32.2825 H   0  0  0  0  0  0  0  0  0  0  0  0
   -3.6874   13.3549  -32.7602 H   0  0  0  0  0  0  0  0  0  0  0  0
   -2.0471   13.4754  -30.1705 H   0  0  0  0  0  0  0  0  0  0  0  0
   -1.7510   14.4441  -31.6199 H   0  0  0  0  0  0  0  0  0  0  0  0
   -7.3022   10.4427  -28.1255 H   0  0  0  0  0  0  0  0  0  0  0  0
  1  3  1  0  0  0  0
  1  4  2  0  0  0  0
  2  3  2  0  0  0  0
  2  6  1  0  0  0  0
  3  8  1  0  0  0  0
  4  5  1  0  0  0  0
  4 14  1  0  0  0  0
  5  6  2  0  0  0  0
  5 13  1  0  0  0  0
  6 15  1  0  0  0  0
  7 14  1  0  0  0  0
  8  9  1  0  0  0  0
  9 11  1  0  0  0  0
 10 12  2  0  0  0  0
 11 12  2  0  0  0  0
  1 16  1  0  0  0  0
  2 17  1  0  0  0  0
  7 18  1  0  0  0  0
  7 19  1  0  0  0  0
  7 20  1  0  0  0  0
  8 21  1  0  0  0  0
  8 22  1  0  0  0  0
  9 23  1  0  0  0  0
  9 24  1  0  0  0  0
 13 25  1  0  0  0  0
M  CHG  2  10  -1  12   1
M  END
> <id>
EN300-1925671

> <smiles>
COC=1C=C(CCN=[N+]=[N-])C=C(Br)C1O

> <IUPAC Name>
4-(2-azidoethyl)-2-bromo-6-methoxyphenol

> <CAS>
2228242-76-8

> <URL>
https://www.enaminestore.com/catalog/EN300-1925671

> <ROCS_ShapeQuery>
_x1604L0AP1_x0771L0AP1

> <ROCS_TanimotoCombo>
0.936 

> <ROCS_ShapeTanimoto>
0.521 

> <ROCS_ColorTanimoto>
0.415 

> <ROCS_RefTversky>
0.482 

> <ROCS_RefColorTversky>
0.431 

> <ROCS_RefTverskyCombo>
0.912 

> <ROCS_FitTversky>
1.185 

> <ROCS_FitColorTversky>
0.918 

> <ROCS_FitTverskyCombo>
2.103 

> <ROCS_ColorScore>
-4.897

> <ROCS_Overlap>
818.324

> <ROCS_Rank>
74                  

$$$$
untitled-dbase-1955_4
  -OEChem-06042309053D

 25 26  0     0  0  0  0  0  0999 V2000
   -7.1567   10.5553  -34.5115 C   0  0  0  0  0  0  0  0  0  0  0  0
   -6.7231   11.1252  -33.3145 C   0  0  0  0  0  0  0  0  0  0  0  0
   -7.0761    9.1750  -34.6962 C   0  0  0  0  0  0  0  0  0  0  0  0
   -5.4078   11.6918  -29.0412 C   0  0  0  0  0  0  0  0  0  0  0  0
   -6.2089   10.3149  -32.3022 C   0  0  0  0  0  0  0  0  0  0  0  0
   -6.1991   10.7961  -29.7851 C   0  0  0  0  0  0  0  0  0  0  0  0
   -6.5619    8.3647  -33.6840 C   0  0  0  0  0  0  0  0  0  0  0  0
   -6.1282    8.9347  -32.4870 C   0  0  0  0  0  0  0  0  0  0  0  0
   -5.7740   10.9574  -31.0812 C   0  0  0  0  0  0  0  0  0  0  0  0
   -4.0255   12.4217  -32.1468 C   0  0  0  0  0  0  0  0  0  0  0  0
   -4.5452   12.3716  -29.8013 N   0  0  0  0  0  0  0  0  0  0  0  0
   -4.7919   11.9028  -31.0364 N   0  0  0  0  0  0  0  0  0  0  0  0
   -7.1583    9.9707  -29.3214 N   0  0  0  0  0  0  0  0  0  0  0  0
   -6.4991    7.0204  -33.9035 O   0  0  0  0  0  0  0  0  0  0  0  0
   -5.4306    7.7980  -31.1225 Br  0  0  0  0  0  0  0  0  0  0  0  0
   -7.5565   11.1859  -35.2998 H   0  0  0  0  0  0  0  0  0  0  0  0
   -6.7940   12.2033  -33.1885 H   0  0  0  0  0  0  0  0  0  0  0  0
   -7.4147    8.7384  -35.6317 H   0  0  0  0  0  0  0  0  0  0  0  0
   -5.4222   11.8808  -27.9771 H   0  0  0  0  0  0  0  0  0  0  0  0
   -4.5577   13.2881  -32.5483 H   0  0  0  0  0  0  0  0  0  0  0  0
   -3.0305   12.7120  -31.7983 H   0  0  0  0  0  0  0  0  0  0  0  0
   -3.9251   11.6456  -32.9106 H   0  0  0  0  0  0  0  0  0  0  0  0
   -7.3755    9.8891  -28.3159 H   0  0  0  0  0  0  0  0  0  0  0  0
   -7.6595    9.3098  -29.9354 H   0  0  0  0  0  0  0  0  0  0  0  0
   -6.1253    6.5727  -33.1289 H   0  0  0  0  0  0  0  0  0  0  0  0
  1  2  1  0  0  0  0
  1  3  2  0  0  0  0
  2  5  2  0  0  0  0
  3  7  1  0  0  0  0
  4  6  1  0  0  0  0
  4 11  2  0  0  0  0
  5  8  1  0  0  0  0
  5  9  1  0  0  0  0
  6  9  2  0  0  0  0
  6 13  1  0  0  0  0
  7  8  2  0  0  0  0
  7 14  1  0  0  0  0
  8 15  1  0  0  0  0
  9 12  1  0  0  0  0
 10 12  1  0  0  0  0
 11 12  1  0  0  0  0
  1 16  1  0  0  0  0
  2 17  1  0  0  0  0
  3 18  1  0  0  0  0
  4 19  1  0  0  0  0
 10 20  1  0  0  0  0
 10 21  1  0  0  0  0
 10 22  1  0  0  0  0
 13 23  1  0  0  0  0
 13 24  1  0  0  0  0
 14 25  1  0  0  0  0
M  END
> <id>
EN300-2001790

> <smiles>
CN1N=CC(N)=C1C=2C=CC=C(O)C2Br

> <IUPAC Name>
3-(4-amino-1-methyl-1H-pyrazol-5-yl)-2-bromophenol

> <CAS>
2228247-49-0

> <URL>
https://www.enaminestore.com/catalog/EN300-2001790

> <ROCS_ShapeQuery>
_x1604L0AP1_x0771L0AP1

> <ROCS_TanimotoCombo>
0.936 

> <ROCS_ShapeTanimoto>
0.605 

> <ROCS_ColorTanimoto>
0.330 

> <ROCS_RefTversky>
0.538 

> <ROCS_RefColorTversky>
0.425 

> <ROCS_RefTverskyCombo>
0.963 

> <ROCS_FitTversky>
1.259 

> <ROCS_FitColorTversky>
0.598 

> <ROCS_FitTverskyCombo>
1.857 

> <ROCS_ColorScore>
-4.891

> <ROCS_Overlap>
915.716

> <ROCS_Rank>
75                  

$$$$
untitled-dbase-895_29
  -OEChem-06042309053D

 28 28  0     0  0  0  0  0  0999 V2000
   -4.2341   12.1686  -31.1605 C   0  0  0  0  0  0  0  0  0  0  0  0
   -4.9120   11.1438  -31.8207 C   0  0  0  0  0  0  0  0  0  0  0  0
   -4.5587   12.4824  -29.8407 C   0  0  0  0  0  0  0  0  0  0  0  0
   -5.9145   10.4328  -31.1611 C   0  0  0  0  0  0  0  0  0  0  0  0
   -6.2392   10.7466  -29.8413 C   0  0  0  0  0  0  0  0  0  0  0  0
   -5.5613   11.7714  -29.1811 C   0  0  0  0  0  0  0  0  0  0  0  0
   -6.7978    8.0649  -34.1602 C   0  0  0  0  0  0  0  0  0  0  0  0
   -6.5100    7.9168  -31.2425 C   0  0  0  0  0  0  0  0  0  0  0  0
   -8.1654    9.6308  -31.9196 C   0  0  0  0  0  0  0  0  0  0  0  0
   -6.1701    9.2033  -33.3834 C   0  0  0  0  0  0  0  0  0  0  0  0
   -6.6505    9.3064  -31.9095 C   0  0  0  0  0  0  0  0  0  0  0  0
   -6.3663    6.9190  -34.1641 O   0  0  0  0  0  0  0  0  0  0  0  0
   -7.2235   10.0430  -29.2100 O   0  0  0  0  0  0  0  0  0  0  0  0
   -7.9039    8.4421  -34.8483 O   0  0  0  0  0  0  0  0  0  0  0  0
   -5.9723   12.2274  -27.3875 Br  0  0  0  0  0  0  0  0  0  0  0  0
   -3.4532   12.7220  -31.6738 H   0  0  0  0  0  0  0  0  0  0  0  0
   -4.6510   10.9044  -32.8481 H   0  0  0  0  0  0  0  0  0  0  0  0
   -4.0192   13.2840  -29.3424 H   0  0  0  0  0  0  0  0  0  0  0  0
   -7.0480    7.1454  -31.8065 H   0  0  0  0  0  0  0  0  0  0  0  0
   -5.4591    7.6073  -31.1956 H   0  0  0  0  0  0  0  0  0  0  0  0
   -6.8968    7.9091  -30.2178 H   0  0  0  0  0  0  0  0  0  0  0  0
   -8.7326    8.8527  -32.4442 H   0  0  0  0  0  0  0  0  0  0  0  0
   -8.5621    9.7017  -30.8997 H   0  0  0  0  0  0  0  0  0  0  0  0
   -8.3830   10.5792  -32.4231 H   0  0  0  0  0  0  0  0  0  0  0  0
   -6.3573   10.1441  -33.9175 H   0  0  0  0  0  0  0  0  0  0  0  0
   -5.0831    9.0646  -33.4461 H   0  0  0  0  0  0  0  0  0  0  0  0
   -7.3378   10.3698  -28.3048 H   0  0  0  0  0  0  0  0  0  0  0  0
   -8.1500    9.3879  -34.7664 H   0  0  0  0  0  0  0  0  0  0  0  0
  1  2  1  0  0  0  0
  1  3  2  0  0  0  0
  2  4  2  0  0  0  0
  3  6  1  0  0  0  0
  4  5  1  0  0  0  0
  4 11  1  0  0  0  0
  5  6  2  0  0  0  0
  5 13  1  0  0  0  0
  6 15  1  0  0  0  0
  7 10  1  0  0  0  0
  7 12  2  0  0  0  0
  7 14  1  0  0  0  0
  8 11  1  0  0  0  0
  9 11  1  0  0  0  0
 10 11  1  0  0  0  0
  1 16  1  0  0  0  0
  2 17  1  0  0  0  0
  3 18  1  0  0  0  0
  8 19  1  0  0  0  0
  8 20  1  0  0  0  0
  8 21  1  0  0  0  0
  9 22  1  0  0  0  0
  9 23  1  0  0  0  0
  9 24  1  0  0  0  0
 10 25  1  0  0  0  0
 10 26  1  0  0  0  0
 13 27  1  0  0  0  0
 14 28  1  0  0  0  0
M  END
> <id>
EN300-1923104

> <smiles>
CC(C)(CC(=O)O)C=1C=CC=C(Br)C1O

> <IUPAC Name>
3-(3-bromo-2-hydroxyphenyl)-3-methylbutanoic acid

> <CAS>
1891915-09-5

> <URL>
https://www.enaminestore.com/catalog/EN300-1923104

> <ROCS_ShapeQuery>
_x1604L0AP1_x0771L0AP1

> <ROCS_TanimotoCombo>
0.935 

> <ROCS_ShapeTanimoto>
0.549 

> <ROCS_ColorTanimoto>
0.386 

> <ROCS_RefTversky>
0.499 

> <ROCS_RefColorTversky>
0.477 

> <ROCS_RefTverskyCombo>
0.976 

> <ROCS_FitTversky>
1.226 

> <ROCS_FitColorTversky>
0.670 

> <ROCS_FitTverskyCombo>
1.896 

> <ROCS_ColorScore>
-5.492

> <ROCS_Overlap>
847.423

> <ROCS_Rank>
76                  

$$$$
untitled-dbase-228_0
  -OEChem-06042309053D

 13 13  0     0  0  0  0  0  0999 V2000
   -5.5640   11.7822  -29.1418 C   0  0  0  0  0  0  0  0  0  0  0  0
   -5.0631   11.1299  -31.8076 C   0  0  0  0  0  0  0  0  0  0  0  0
   -6.2906   10.7640  -29.7590 C   0  0  0  0  0  0  0  0  0  0  0  0
   -4.5870   12.4744  -29.8575 C   0  0  0  0  0  0  0  0  0  0  0  0
   -4.3365   12.1481  -31.1903 C   0  0  0  0  0  0  0  0  0  0  0  0
   -6.0401   10.4378  -31.0919 C   0  0  0  0  0  0  0  0  0  0  0  0
   -7.2390   10.1075  -29.0325 O   0  0  0  0  0  0  0  0  0  0  0  0
   -3.8907   13.4537  -29.2657 F   0  0  0  0  0  0  0  0  0  0  0  0
   -3.3992   12.8141  -31.8775 F   0  0  0  0  0  0  0  0  0  0  0  0
   -7.0081    9.0609  -31.9631 Br  0  0  0  0  0  0  0  0  0  0  0  0
   -5.7554   12.0445  -28.1050 H   0  0  0  0  0  0  0  0  0  0  0  0
   -4.8542   10.8907  -32.8470 H   0  0  0  0  0  0  0  0  0  0  0  0
   -7.6666    9.4286  -29.5771 H   0  0  0  0  0  0  0  0  0  0  0  0
  1  3  2  0  0  0  0
  1  4  1  0  0  0  0
  2  5  1  0  0  0  0
  2  6  2  0  0  0  0
  3  6  1  0  0  0  0
  3  7  1  0  0  0  0
  4  5  2  0  0  0  0
  4  8  1  0  0  0  0
  5  9  1  0  0  0  0
  6 10  1  0  0  0  0
  1 11  1  0  0  0  0
  2 12  1  0  0  0  0
  7 13  1  0  0  0  0
M  END
> <id>
EN300-224945

> <smiles>
OC=1C=C(F)C(F)=CC1Br

> <MDLNUMBER>
MFCD00070751

> <IUPAC Name>
2-bromo-4,5-difluorophenol

> <CAS>
166281-37-4

> <Purity>
95

> <URL>
https://www.enaminestore.com/catalog/EN300-224945

> <ROCS_ShapeQuery>
_x1604L0AP1_x0771L0AP1

> <ROCS_TanimotoCombo>
0.935 

> <ROCS_ShapeTanimoto>
0.484 

> <ROCS_ColorTanimoto>
0.451 

> <ROCS_RefTversky>
0.421 

> <ROCS_RefColorTversky>
0.431 

> <ROCS_RefTverskyCombo>
0.853 

> <ROCS_FitTversky>
1.442 

> <ROCS_FitColorTversky>
1.113 

> <ROCS_FitTverskyCombo>
2.555 

> <ROCS_ColorScore>
-4.879

> <ROCS_Overlap>
711.682

> <ROCS_Rank>
77                  

$$$$
untitled-dbase-1753_253
  -OEChem-06042309053D

 26 26  0     1  0  0  0  0  0999 V2000
   -4.5795   12.4646  -29.8151 C   0  0  0  0  0  0  0  0  0  0  0  0
   -5.0575   11.1425  -31.7799 C   0  0  0  0  0  0  0  0  0  0  0  0
   -4.3274   12.1507  -31.1506 C   0  0  0  0  0  0  0  0  0  0  0  0
   -5.5617   11.7702  -29.1089 C   0  0  0  0  0  0  0  0  0  0  0  0
   -6.2919   10.7620  -29.7382 C   0  0  0  0  0  0  0  0  0  0  0  0
   -6.0398   10.4481  -31.0737 C   0  0  0  0  0  0  0  0  0  0  0  0
   -1.8952   12.8001  -31.2582 C   0  0  0  0  0  0  0  0  0  0  0  0
   -5.0052   13.1318  -27.2401 C   0  0  0  0  0  0  0  0  0  0  0  0
   -3.2778   12.8940  -31.9056 C   0  0  2  0  0  0  0  0  0  0  0  0
   -3.2841   14.8799  -30.7085 N   0  0  0  0  0  0  0  0  0  0  0  0
   -7.2492   10.0949  -29.0309 O   0  0  0  0  0  0  0  0  0  0  0  0
   -5.7968   12.0887  -27.8053 O   0  0  0  0  0  0  0  0  0  0  0  0
   -3.6444   14.2767  -31.9783 O   0  0  0  0  0  0  0  0  0  0  0  0
   -7.0115    9.0845  -31.9627 Br  0  0  0  0  0  0  0  0  0  0  0  0
   -4.0118   13.2505  -29.3224 H   0  0  0  0  0  0  0  0  0  0  0  0
   -4.8539   10.9052  -32.8218 H   0  0  0  0  0  0  0  0  0  0  0  0
   -1.9227   13.1409  -30.2183 H   0  0  0  0  0  0  0  0  0  0  0  0
   -1.1590   13.4040  -31.8006 H   0  0  0  0  0  0  0  0  0  0  0  0
   -1.5244   11.7694  -31.2778 H   0  0  0  0  0  0  0  0  0  0  0  0
   -5.2937   13.2849  -26.1973 H   0  0  0  0  0  0  0  0  0  0  0  0
   -5.1542   14.0527  -27.8095 H   0  0  0  0  0  0  0  0  0  0  0  0
   -3.9523   12.8436  -27.2860 H   0  0  0  0  0  0  0  0  0  0  0  0
   -3.1895   12.5395  -32.9467 H   0  0  0  0  0  0  0  0  0  0  0  0
   -4.1791   15.2871  -30.4411 H   0  0  0  0  0  0  0  0  0  0  0  0
   -2.6999   15.6492  -31.0324 H   0  0  0  0  0  0  0  0  0  0  0  0
   -7.2932   10.4373  -28.1251 H   0  0  0  0  0  0  0  0  0  0  0  0
  1  3  1  0  0  0  0
  1  4  2  0  0  0  0
  2  3  2  0  0  0  0
  2  6  1  0  0  0  0
  3  9  1  0  0  0  0
  4  5  1  0  0  0  0
  4 12  1  0  0  0  0
  5  6  2  0  0  0  0
  5 11  1  0  0  0  0
  6 14  1  0  0  0  0
  7  9  1  0  0  0  0
  8 12  1  0  0  0  0
  9 13  1  0  0  0  0
 10 13  1  0  0  0  0
  1 15  1  0  0  0  0
  2 16  1  0  0  0  0
  7 17  1  0  0  0  0
  7 18  1  0  0  0  0
  7 19  1  0  0  0  0
  8 20  1  0  0  0  0
  8 21  1  0  0  0  0
  8 22  1  0  0  0  0
  9 23  1  0  0  0  0
 10 24  1  0  0  0  0
 10 25  1  0  0  0  0
 11 26  1  0  0  0  0
M  END
> <id>
EN300-1927005

> <smiles>
COC=1C=C(C=C(Br)C1O)C(C)ON

> <IUPAC Name>
4-[1-(aminooxy)ethyl]-2-bromo-6-methoxyphenol

> <CAS>
2228424-95-9

> <URL>
https://www.enaminestore.com/catalog/EN300-1927005

> <ROCS_ShapeQuery>
_x1604L0AP1_x0771L0AP1

> <ROCS_TanimotoCombo>
0.935 

> <ROCS_ShapeTanimoto>
0.520 

> <ROCS_ColorTanimoto>
0.415 

> <ROCS_RefTversky>
0.473 

> <ROCS_RefColorTversky>
0.431 

> <ROCS_RefTverskyCombo>
0.904 

> <ROCS_FitTversky>
1.236 

> <ROCS_FitColorTversky>
0.918 

> <ROCS_FitTverskyCombo>
2.154 

> <ROCS_ColorScore>
-4.898

> <ROCS_Overlap>
802.352

> <ROCS_Rank>
78                  

$$$$
untitled-dbase-1482_0
  -OEChem-06042309053D

 16 16  0     0  0  0  0  0  0999 V2000
   -5.0663   11.1273  -31.8124 C   0  0  0  0  0  0  0  0  0  0  0  0
   -5.5644   11.7844  -29.1472 C   0  0  0  0  0  0  0  0  0  0  0  0
   -4.3394   12.1469  -31.1979 C   0  0  0  0  0  0  0  0  0  0  0  0
   -6.2913   10.7648  -29.7618 C   0  0  0  0  0  0  0  0  0  0  0  0
   -4.5884   12.4755  -29.8653 C   0  0  0  0  0  0  0  0  0  0  0  0
   -6.0423   10.4362  -31.0943 C   0  0  0  0  0  0  0  0  0  0  0  0
   -3.3021   12.8629  -32.0012 C   0  0  0  0  0  0  0  0  0  0  0  0
   -7.2378   10.1079  -29.0330 O   0  0  0  0  0  0  0  0  0  0  0  0
   -3.7093   13.7310  -29.0721 Cl  0  0  0  0  0  0  0  0  0  0  0  0
   -7.0104    9.0559  -31.9609 Br  0  0  0  0  0  0  0  0  0  0  0  0
   -4.8664   10.8764  -32.8518 H   0  0  0  0  0  0  0  0  0  0  0  0
   -5.7651   12.0338  -28.1077 H   0  0  0  0  0  0  0  0  0  0  0  0
   -3.7449   13.7288  -32.5059 H   0  0  0  0  0  0  0  0  0  0  0  0
   -2.4798   13.2108  -31.3647 H   0  0  0  0  0  0  0  0  0  0  0  0
   -2.8633   12.2022  -32.7586 H   0  0  0  0  0  0  0  0  0  0  0  0
   -7.6657    9.4281  -29.5763 H   0  0  0  0  0  0  0  0  0  0  0  0
  1  3  2  0  0  0  0
  1  6  1  0  0  0  0
  2  4  1  0  0  0  0
  2  5  2  0  0  0  0
  3  5  1  0  0  0  0
  3  7  1  0  0  0  0
  4  6  2  0  0  0  0
  4  8  1  0  0  0  0
  5  9  1  0  0  0  0
  6 10  1  0  0  0  0
  1 11  1  0  0  0  0
  2 12  1  0  0  0  0
  7 13  1  0  0  0  0
  7 14  1  0  0  0  0
  7 15  1  0  0  0  0
  8 16  1  0  0  0  0
M  END
> <id>
EN300-248208

> <smiles>
CC=1C=C(Br)C(O)=CC1Cl

> <MDLNUMBER>
MFCD11894407

> <IUPAC Name>
2-bromo-5-chloro-4-methylphenol

> <CAS>
1175754-49-0

> <Purity>
95

> <URL>
https://www.enaminestore.com/catalog/EN300-248208

> <ROCS_ShapeQuery>
_x1604L0AP1_x0771L0AP1

> <ROCS_TanimotoCombo>
0.934 

> <ROCS_ShapeTanimoto>
0.483 

> <ROCS_ColorTanimoto>
0.451 

> <ROCS_RefTversky>
0.418 

> <ROCS_RefColorTversky>
0.431 

> <ROCS_RefTverskyCombo>
0.849 

> <ROCS_FitTversky>
1.479 

> <ROCS_FitColorTversky>
1.113 

> <ROCS_FitTverskyCombo>
2.592 

> <ROCS_ColorScore>
-4.879

> <ROCS_Overlap>
704.803

> <ROCS_Rank>
79                  

$$$$
untitled-dbase-1061_1
  -OEChem-06042309053D

 25 26  0     1  0  0  0  0  0999 V2000
   -5.0917   11.3105  -31.8264 C   0  0  0  0  0  0  0  0  0  0  0  0
   -4.5094   12.4250  -29.7634 C   0  0  0  0  0  0  0  0  0  0  0  0
   -6.0700   10.5777  -31.1544 C   0  0  0  0  0  0  0  0  0  0  0  0
   -6.2681   10.7686  -29.7869 C   0  0  0  0  0  0  0  0  0  0  0  0
   -4.3113   12.2341  -31.1308 C   0  0  0  0  0  0  0  0  0  0  0  0
   -5.4878   11.6922  -29.0914 C   0  0  0  0  0  0  0  0  0  0  0  0
   -6.9547    8.1652  -31.4376 C   0  0  0  0  0  0  0  0  0  0  0  0
   -6.8940    9.5941  -31.9170 C   0  0  2  0  0  0  0  0  0  0  0  0
   -6.1952    8.4995  -32.6868 C   0  0  2  0  0  0  0  0  0  0  0  0
   -6.7180    8.0763  -34.0163 C   0  0  0  0  0  0  0  0  0  0  0  0
   -6.4142    6.6963  -34.2784 N   0  0  0  0  0  0  0  0  0  0  0  0
   -7.2291   10.0452  -29.1418 O   0  0  0  0  0  0  0  0  0  0  0  0
   -3.1044   13.1380  -31.9606 Cl  0  0  0  0  0  0  0  0  0  0  0  0
   -5.7265   11.9791  -27.2324 Br  0  0  0  0  0  0  0  0  0  0  0  0
   -4.9401   11.1595  -32.8930 H   0  0  0  0  0  0  0  0  0  0  0  0
   -3.8980   13.1456  -29.2244 H   0  0  0  0  0  0  0  0  0  0  0  0
   -6.3820    7.8774  -30.5635 H   0  0  0  0  0  0  0  0  0  0  0  0
   -7.9037    7.6501  -31.5306 H   0  0  0  0  0  0  0  0  0  0  0  0
   -7.8039    9.9963  -32.3431 H   0  0  0  0  0  0  0  0  0  0  0  0
   -5.1138    8.4372  -32.6444 H   0  0  0  0  0  0  0  0  0  0  0  0
   -7.8097    8.2125  -34.0337 H   0  0  0  0  0  0  0  0  0  0  0  0
   -6.2589    8.6992  -34.7984 H   0  0  0  0  0  0  0  0  0  0  0  0
   -6.8369    6.1223  -33.5771 H   0  0  0  0  0  0  0  0  0  0  0  0
   -6.7710    6.4413  -35.1772 H   0  0  0  0  0  0  0  0  0  0  0  0
   -7.2505   10.2838  -28.2027 H   0  0  0  0  0  0  0  0  0  0  0  0
  1  3  2  0  0  0  0
  1  5  1  0  0  0  0
  2  5  2  0  0  0  0
  2  6  1  0  0  0  0
  3  4  1  0  0  0  0
  3  8  1  1  0  0  0
  4  6  2  0  0  0  0
  4 12  1  0  0  0  0
  5 13  1  0  0  0  0
  6 14  1  0  0  0  0
  7  8  1  0  0  0  0
  7  9  1  0  0  0  0
  8  9  1  0  0  0  0
  9 10  1  6  0  0  0
 10 11  1  0  0  0  0
  1 15  1  0  0  0  0
  2 16  1  0  0  0  0
  7 17  1  0  0  0  0
  7 18  1  0  0  0  0
  8 19  1  0  0  0  0
  9 20  1  0  0  0  0
 10 21  1  0  0  0  0
 10 22  1  0  0  0  0
 11 23  1  0  0  0  0
 11 24  1  0  0  0  0
 12 25  1  0  0  0  0
M  END
> <id>
EN300-1922910

> <smiles>
NC[C@@H]1C[C@H]1C=2C=C(Cl)C=C(Br)C2O |&1:2,4,r|

> <IUPAC Name>
rac-2-[(1R,2R)-2-(aminomethyl)cyclopropyl]-6-bromo-4-chlorophenol

> <CAS>
2227816-36-4

> <URL>
https://www.enaminestore.com/catalog/EN300-1922910

> <ROCS_ShapeQuery>
_x1604L0AP1_x0771L0AP1

> <ROCS_TanimotoCombo>
0.933 

> <ROCS_ShapeTanimoto>
0.565 

> <ROCS_ColorTanimoto>
0.368 

> <ROCS_RefTversky>
0.498 

> <ROCS_RefColorTversky>
0.417 

> <ROCS_RefTverskyCombo>
0.916 

> <ROCS_FitTversky>
1.311 

> <ROCS_FitColorTversky>
0.758 

> <ROCS_FitTverskyCombo>
2.069 

> <ROCS_ColorScore>
-4.765

> <ROCS_Overlap>
845.519

> <ROCS_Rank>
80                  

$$$$
untitled-dbase-2168_1
  -OEChem-06042309053D

 25 26  0     1  0  0  0  0  0999 V2000
   -5.0915   11.3108  -31.8262 C   0  0  0  0  0  0  0  0  0  0  0  0
   -4.5094   12.4251  -29.7630 C   0  0  0  0  0  0  0  0  0  0  0  0
   -6.0698   10.5779  -31.1544 C   0  0  0  0  0  0  0  0  0  0  0  0
   -6.2680   10.7687  -29.7869 C   0  0  0  0  0  0  0  0  0  0  0  0
   -4.3112   12.2343  -31.1305 C   0  0  0  0  0  0  0  0  0  0  0  0
   -5.4878   11.6922  -29.0912 C   0  0  0  0  0  0  0  0  0  0  0  0
   -6.9553    8.1653  -31.4376 C   0  0  0  0  0  0  0  0  0  0  0  0
   -6.8938    9.5943  -31.9172 C   0  0  2  0  0  0  0  0  0  0  0  0
   -6.1950    8.4993  -32.6864 C   0  0  2  0  0  0  0  0  0  0  0  0
   -6.7175    8.0764  -34.0163 C   0  0  0  0  0  0  0  0  0  0  0  0
   -6.4143    6.6963  -34.2783 N   0  0  0  0  0  0  0  0  0  0  0  0
   -7.2290   10.0452  -29.1419 O   0  0  0  0  0  0  0  0  0  0  0  0
   -3.1043   13.1384  -31.9600 Cl  0  0  0  0  0  0  0  0  0  0  0  0
   -5.7267   11.9789  -27.2322 Br  0  0  0  0  0  0  0  0  0  0  0  0
   -4.9399   11.1600  -32.8928 H   0  0  0  0  0  0  0  0  0  0  0  0
   -3.8981   13.1457  -29.2239 H   0  0  0  0  0  0  0  0  0  0  0  0
   -6.3828    7.8773  -30.5635 H   0  0  0  0  0  0  0  0  0  0  0  0
   -7.9048    7.6511  -31.5302 H   0  0  0  0  0  0  0  0  0  0  0  0
   -7.8038    9.9963  -32.3434 H   0  0  0  0  0  0  0  0  0  0  0  0
   -5.1135    8.4381  -32.6438 H   0  0  0  0  0  0  0  0  0  0  0  0
   -7.8090    8.2132  -34.0341 H   0  0  0  0  0  0  0  0  0  0  0  0
   -6.2577    8.6991  -34.7981 H   0  0  0  0  0  0  0  0  0  0  0  0
   -6.8376    6.1225  -33.5771 H   0  0  0  0  0  0  0  0  0  0  0  0
   -6.7708    6.4415  -35.1772 H   0  0  0  0  0  0  0  0  0  0  0  0
   -7.2505   10.2836  -28.2028 H   0  0  0  0  0  0  0  0  0  0  0  0
  1  3  2  0  0  0  0
  1  5  1  0  0  0  0
  2  5  2  0  0  0  0
  2  6  1  0  0  0  0
  3  4  1  0  0  0  0
  3  8  1  0  0  0  0
  4  6  2  0  0  0  0
  4 12  1  0  0  0  0
  5 13  1  0  0  0  0
  6 14  1  0  0  0  0
  7  8  1  0  0  0  0
  7  9  1  0  0  0  0
  8  9  1  0  0  0  0
  9 10  1  0  0  0  0
 10 11  1  0  0  0  0
  1 15  1  0  0  0  0
  2 16  1  0  0  0  0
  7 17  1  0  0  0  0
  7 18  1  0  0  0  0
  8 19  1  0  0  0  0
  9 20  1  0  0  0  0
 10 21  1  0  0  0  0
 10 22  1  0  0  0  0
 11 23  1  0  0  0  0
 11 24  1  0  0  0  0
 12 25  1  0  0  0  0
M  END
> <id>
EN300-1922913

> <smiles>
NCC1CC1C=2C=C(Cl)C=C(Br)C2O

> <IUPAC Name>
2-[2-(aminomethyl)cyclopropyl]-6-bromo-4-chlorophenol

> <CAS>
2228446-57-7

> <URL>
https://www.enaminestore.com/catalog/EN300-1922913

> <ROCS_ShapeQuery>
_x1604L0AP1_x0771L0AP1

> <ROCS_TanimotoCombo>
0.933 

> <ROCS_ShapeTanimoto>
0.565 

> <ROCS_ColorTanimoto>
0.368 

> <ROCS_RefTversky>
0.498 

> <ROCS_RefColorTversky>
0.417 

> <ROCS_RefTverskyCombo>
0.916 

> <ROCS_FitTversky>
1.311 

> <ROCS_FitColorTversky>
0.758 

> <ROCS_FitTverskyCombo>
2.069 

> <ROCS_ColorScore>
-4.765

> <ROCS_Overlap>
845.524

> <ROCS_Rank>
81                  

$$$$
untitled-dbase-462_1369
  -OEChem-06042309053D

 27 27  0     0  0  0  0  0  0999 V2000
   -4.5825   12.4683  -29.8158 C   0  0  0  0  0  0  0  0  0  0  0  0
   -5.0497   11.1371  -31.7770 C   0  0  0  0  0  0  0  0  0  0  0  0
   -4.3237   12.1489  -31.1486 C   0  0  0  0  0  0  0  0  0  0  0  0
   -5.5673   11.7758  -29.1112 C   0  0  0  0  0  0  0  0  0  0  0  0
   -6.2933   10.7641  -29.7395 C   0  0  0  0  0  0  0  0  0  0  0  0
   -6.0345   10.4447  -31.0725 C   0  0  0  0  0  0  0  0  0  0  0  0
   -4.9030   12.2288  -25.5977 C   0  0  0  0  0  0  0  0  0  0  0  0
   -3.2714   12.8900  -31.9018 C   0  0  0  0  0  0  0  0  0  0  0  0
   -4.7097   12.6011  -27.0522 C   0  0  0  0  0  0  0  0  0  0  0  0
   -2.5430   13.9805  -31.0985 C   0  0  0  0  0  0  0  0  0  0  0  0
   -7.2532   10.0989  -29.0339 O   0  0  0  0  0  0  0  0  0  0  0  0
   -5.8089   12.0997  -27.8101 O   0  0  0  0  0  0  0  0  0  0  0  0
   -3.6772   15.2577  -30.4715 S   0  0  0  0  0  0  0  0  0  0  0  0
   -7.0005    9.0761  -31.9602 Br  0  0  0  0  0  0  0  0  0  0  0  0
   -4.0180   13.2568  -29.3238 H   0  0  0  0  0  0  0  0  0  0  0  0
   -4.8409   10.8955  -32.8169 H   0  0  0  0  0  0  0  0  0  0  0  0
   -5.8259   12.6629  -25.2031 H   0  0  0  0  0  0  0  0  0  0  0  0
   -4.9455   11.1410  -25.4800 H   0  0  0  0  0  0  0  0  0  0  0  0
   -4.0603   12.5815  -24.9938 H   0  0  0  0  0  0  0  0  0  0  0  0
   -2.5270   12.1987  -32.3347 H   0  0  0  0  0  0  0  0  0  0  0  0
   -3.7420   13.3721  -32.7763 H   0  0  0  0  0  0  0  0  0  0  0  0
   -3.7851   12.1637  -27.4407 H   0  0  0  0  0  0  0  0  0  0  0  0
   -4.6683   13.6882  -27.1681 H   0  0  0  0  0  0  0  0  0  0  0  0
   -2.0469   13.5318  -30.2317 H   0  0  0  0  0  0  0  0  0  0  0  0
   -1.7723   14.4680  -31.7040 H   0  0  0  0  0  0  0  0  0  0  0  0
   -7.3020   10.4452  -28.1299 H   0  0  0  0  0  0  0  0  0  0  0  0
   -2.7362   15.9897  -29.8608 H   0  0  0  0  0  0  0  0  0  0  0  0
  1  3  1  0  0  0  0
  1  4  2  0  0  0  0
  2  3  2  0  0  0  0
  2  6  1  0  0  0  0
  3  8  1  0  0  0  0
  4  5  1  0  0  0  0
  4 12  1  0  0  0  0
  5  6  2  0  0  0  0
  5 11  1  0  0  0  0
  6 14  1  0  0  0  0
  7  9  1  0  0  0  0
  8 10  1  0  0  0  0
  9 12  1  0  0  0  0
 10 13  1  0  0  0  0
  1 15  1  0  0  0  0
  2 16  1  0  0  0  0
  7 17  1  0  0  0  0
  7 18  1  0  0  0  0
  7 19  1  0  0  0  0
  8 20  1  0  0  0  0
  8 21  1  0  0  0  0
  9 22  1  0  0  0  0
  9 23  1  0  0  0  0
 10 24  1  0  0  0  0
 10 25  1  0  0  0  0
 11 26  1  0  0  0  0
 13 27  1  0  0  0  0
M  END
> <id>
EN300-1920582

> <smiles>
CCOC=1C=C(CCS)C=C(Br)C1O

> <IUPAC Name>
2-bromo-6-ethoxy-4-(2-sulfanylethyl)phenol

> <CAS>
2229367-79-5

> <URL>
https://www.enaminestore.com/catalog/EN300-1920582

> <ROCS_ShapeQuery>
_x1604L0AP1_x0771L0AP1

> <ROCS_TanimotoCombo>
0.933 

> <ROCS_ShapeTanimoto>
0.518 

> <ROCS_ColorTanimoto>
0.415 

> <ROCS_RefTversky>
0.468 

> <ROCS_RefColorTversky>
0.431 

> <ROCS_RefTverskyCombo>
0.899 

> <ROCS_FitTversky>
1.258 

> <ROCS_FitColorTversky>
0.918 

> <ROCS_FitTverskyCombo>
2.176 

> <ROCS_ColorScore>
-4.898

> <ROCS_Overlap>
794.547

> <ROCS_Rank>
82                  

$$$$
untitled-dbase-1597_181
  -OEChem-06042309053D

 25 25  0     0  0  0  0  0  0999 V2000
   -4.9404   11.7258  -31.5851 C   0  0  0  0  0  0  0  0  0  0  0  0
   -4.4332   12.4812  -29.3470 C   0  0  0  0  0  0  0  0  0  0  0  0
   -5.9510   10.9077  -31.0800 C   0  0  0  0  0  0  0  0  0  0  0  0
   -6.2027   10.8765  -29.7084 C   0  0  0  0  0  0  0  0  0  0  0  0
   -4.1814   12.5124  -30.7186 C   0  0  0  0  0  0  0  0  0  0  0  0
   -5.4438   11.6632  -28.8419 C   0  0  0  0  0  0  0  0  0  0  0  0
   -7.2551    8.9078  -31.6242 C   0  0  0  0  0  0  0  0  0  0  0  0
   -6.7406   10.0831  -32.0248 C   0  0  0  0  0  0  0  0  0  0  0  0
   -6.9108   10.5657  -33.4495 C   0  0  0  0  0  0  0  0  0  0  0  0
   -6.2699    9.6142  -34.4642 C   0  0  0  0  0  0  0  0  0  0  0  0
   -6.4748   10.1103  -35.8210 N   0  0  0  0  0  0  0  0  0  0  0  0
   -7.1935   10.0734  -29.2193 O   0  0  0  0  0  0  0  0  0  0  0  0
   -2.9344   13.5218  -31.3419 Cl  0  0  0  0  0  0  0  0  0  0  0  0
   -5.7546   11.6491  -26.9713 Br  0  0  0  0  0  0  0  0  0  0  0  0
   -4.7420   11.7526  -32.6549 H   0  0  0  0  0  0  0  0  0  0  0  0
   -3.8384   13.0962  -28.6745 H   0  0  0  0  0  0  0  0  0  0  0  0
   -7.8390    8.2735  -32.2836 H   0  0  0  0  0  0  0  0  0  0  0  0
   -7.1105    8.5496  -30.6097 H   0  0  0  0  0  0  0  0  0  0  0  0
   -7.9738   10.7072  -33.6795 H   0  0  0  0  0  0  0  0  0  0  0  0
   -6.4559   11.5600  -33.5597 H   0  0  0  0  0  0  0  0  0  0  0  0
   -5.1948    9.5201  -34.2725 H   0  0  0  0  0  0  0  0  0  0  0  0
   -6.7090    8.6137  -34.3884 H   0  0  0  0  0  0  0  0  0  0  0  0
   -6.0341   10.9966  -35.8989 H   0  0  0  0  0  0  0  0  0  0  0  0
   -6.0700    9.4614  -36.4542 H   0  0  0  0  0  0  0  0  0  0  0  0
   -7.2458   10.1608  -28.2559 H   0  0  0  0  0  0  0  0  0  0  0  0
  1  3  2  0  0  0  0
  1  5  1  0  0  0  0
  2  5  2  0  0  0  0
  2  6  1  0  0  0  0
  3  4  1  0  0  0  0
  3  8  1  0  0  0  0
  4  6  2  0  0  0  0
  4 12  1  0  0  0  0
  5 13  1  0  0  0  0
  6 14  1  0  0  0  0
  7  8  2  0  0  0  0
  8  9  1  0  0  0  0
  9 10  1  0  0  0  0
 10 11  1  0  0  0  0
  1 15  1  0  0  0  0
  2 16  1  0  0  0  0
  7 17  1  0  0  0  0
  7 18  1  0  0  0  0
  9 19  1  0  0  0  0
  9 20  1  0  0  0  0
 10 21  1  0  0  0  0
 10 22  1  0  0  0  0
 11 23  1  0  0  0  0
 11 24  1  0  0  0  0
 12 25  1  0  0  0  0
M  END
> <id>
EN300-1922942

> <smiles>
NCCC(=C)C=1C=C(Cl)C=C(Br)C1O

> <IUPAC Name>
2-(4-aminobut-1-en-2-yl)-6-bromo-4-chlorophenol

> <CAS>
2228578-23-0

> <URL>
https://www.enaminestore.com/catalog/EN300-1922942

> <ROCS_ShapeQuery>
_x1604L0AP1_x0771L0AP1

> <ROCS_TanimotoCombo>
0.932 

> <ROCS_ShapeTanimoto>
0.609 

> <ROCS_ColorTanimoto>
0.323 

> <ROCS_RefTversky>
0.520 

> <ROCS_RefColorTversky>
0.398 

> <ROCS_RefTverskyCombo>
0.918 

> <ROCS_FitTversky>
1.391 

> <ROCS_FitColorTversky>
0.631 

> <ROCS_FitTverskyCombo>
2.022 

> <ROCS_ColorScore>
-4.569

> <ROCS_Overlap>
881.886

> <ROCS_Rank>
83                  

$$$$
untitled-dbase-368_1148
  -OEChem-06042309053D

 26 26  0     1  0  0  0  0  0999 V2000
   -6.7510   11.8647  -32.2232 C   0  0  0  0  0  0  0  0  0  0  0  0
   -6.7384   11.5508  -33.5821 C   0  0  0  0  0  0  0  0  0  0  0  0
   -6.4229    9.5331  -31.6815 C   0  0  0  0  0  0  0  0  0  0  0  0
   -6.5932   10.8559  -31.2728 C   0  0  0  0  0  0  0  0  0  0  0  0
   -6.5681   10.2281  -33.9909 C   0  0  0  0  0  0  0  0  0  0  0  0
   -6.4103    9.2192  -33.0406 C   0  0  0  0  0  0  0  0  0  0  0  0
   -4.3700   12.2251  -30.2611 C   0  0  0  0  0  0  0  0  0  0  0  0
   -3.0794   14.1885  -30.5175 C   0  0  0  0  0  0  0  0  0  0  0  0
   -5.1953   11.4446  -29.2664 C   0  0  0  0  0  0  0  0  0  0  0  0
   -6.6073   11.1972  -29.8006 C   0  0  2  0  0  0  0  0  0  0  0  0
   -4.1547   11.8533  -31.4074 O   0  0  0  0  0  0  0  0  0  0  0  0
   -6.5620    9.9543  -35.3263 O   0  0  0  0  0  0  0  0  0  0  0  0
   -7.2095   10.1113  -29.0949 O   0  0  0  0  0  0  0  0  0  0  0  0
   -3.9000   13.3666  -29.6815 O   0  0  0  0  0  0  0  0  0  0  0  0
   -6.1782    7.4111  -33.5598 Br  0  0  0  0  0  0  0  0  0  0  0  0
   -6.8845   12.8984  -31.9149 H   0  0  0  0  0  0  0  0  0  0  0  0
   -6.8619   12.3421  -34.3168 H   0  0  0  0  0  0  0  0  0  0  0  0
   -6.3001    8.7530  -30.9333 H   0  0  0  0  0  0  0  0  0  0  0  0
   -2.7582   15.0713  -29.9592 H   0  0  0  0  0  0  0  0  0  0  0  0
   -3.6457   14.4898  -31.4023 H   0  0  0  0  0  0  0  0  0  0  0  0
   -2.2015   13.6163  -30.8266 H   0  0  0  0  0  0  0  0  0  0  0  0
   -5.2130   12.0199  -28.3325 H   0  0  0  0  0  0  0  0  0  0  0  0
   -4.6695   10.5061  -29.0503 H   0  0  0  0  0  0  0  0  0  0  0  0
   -7.2437   12.0739  -29.6302 H   0  0  0  0  0  0  0  0  0  0  0  0
   -6.4361    9.0038  -35.4720 H   0  0  0  0  0  0  0  0  0  0  0  0
   -7.2044   10.3580  -28.1579 H   0  0  0  0  0  0  0  0  0  0  0  0
  1  2  1  0  0  0  0
  1  4  2  0  0  0  0
  2  5  2  0  0  0  0
  3  4  1  0  0  0  0
  3  6  2  0  0  0  0
  4 10  1  0  0  0  0
  5  6  1  0  0  0  0
  5 12  1  0  0  0  0
  6 15  1  0  0  0  0
  7  9  1  0  0  0  0
  7 11  2  0  0  0  0
  7 14  1  0  0  0  0
  8 14  1  0  0  0  0
  9 10  1  0  0  0  0
 10 13  1  6  0  0  0
  1 16  1  0  0  0  0
  2 17  1  0  0  0  0
  3 18  1  0  0  0  0
  8 19  1  0  0  0  0
  8 20  1  0  0  0  0
  8 21  1  0  0  0  0
  9 22  1  0  0  0  0
  9 23  1  0  0  0  0
 10 24  1  0  0  0  0
 12 25  1  0  0  0  0
 13 26  1  0  0  0  0
M  END
> <id>
EN300-1906653

> <smiles>
COC(=O)C[C@H](O)C=1C=CC(O)=C(Br)C1

> <IUPAC Name>
methyl (3S)-3-(3-bromo-4-hydroxyphenyl)-3-hydroxypropanoate

> <CAS>
2227818-97-3

> <URL>
https://www.enaminestore.com/catalog/EN300-1906653

> <ROCS_ShapeQuery>
_x1604L0AP1_x0771L0AP1

> <ROCS_TanimotoCombo>
0.932 

> <ROCS_ShapeTanimoto>
0.669 

> <ROCS_ColorTanimoto>
0.263 

> <ROCS_RefTversky>
0.564 

> <ROCS_RefColorTversky>
0.339 

> <ROCS_RefTverskyCombo>
0.903 

> <ROCS_FitTversky>
1.389 

> <ROCS_FitColorTversky>
0.537 

> <ROCS_FitTverskyCombo>
1.927 

> <ROCS_ColorScore>
-3.889

> <ROCS_Overlap>
958.001

> <ROCS_Rank>
84                  

$$$$
untitled-dbase-985_1148
  -OEChem-06042309053D

 26 26  0     1  0  0  0  0  0999 V2000
   -6.7510   11.8647  -32.2232 C   0  0  0  0  0  0  0  0  0  0  0  0
   -6.7384   11.5508  -33.5821 C   0  0  0  0  0  0  0  0  0  0  0  0
   -6.4229    9.5331  -31.6815 C   0  0  0  0  0  0  0  0  0  0  0  0
   -6.5932   10.8559  -31.2728 C   0  0  0  0  0  0  0  0  0  0  0  0
   -6.5681   10.2281  -33.9909 C   0  0  0  0  0  0  0  0  0  0  0  0
   -6.4103    9.2192  -33.0406 C   0  0  0  0  0  0  0  0  0  0  0  0
   -4.3700   12.2251  -30.2611 C   0  0  0  0  0  0  0  0  0  0  0  0
   -3.0794   14.1885  -30.5175 C   0  0  0  0  0  0  0  0  0  0  0  0
   -5.1953   11.4446  -29.2664 C   0  0  0  0  0  0  0  0  0  0  0  0
   -6.6073   11.1972  -29.8006 C   0  0  2  0  0  0  0  0  0  0  0  0
   -4.1547   11.8533  -31.4074 O   0  0  0  0  0  0  0  0  0  0  0  0
   -6.5620    9.9543  -35.3263 O   0  0  0  0  0  0  0  0  0  0  0  0
   -7.2095   10.1113  -29.0949 O   0  0  0  0  0  0  0  0  0  0  0  0
   -3.9000   13.3666  -29.6815 O   0  0  0  0  0  0  0  0  0  0  0  0
   -6.1782    7.4111  -33.5598 Br  0  0  0  0  0  0  0  0  0  0  0  0
   -6.8845   12.8984  -31.9149 H   0  0  0  0  0  0  0  0  0  0  0  0
   -6.8619   12.3421  -34.3168 H   0  0  0  0  0  0  0  0  0  0  0  0
   -6.3001    8.7530  -30.9333 H   0  0  0  0  0  0  0  0  0  0  0  0
   -2.7582   15.0713  -29.9592 H   0  0  0  0  0  0  0  0  0  0  0  0
   -3.6457   14.4898  -31.4023 H   0  0  0  0  0  0  0  0  0  0  0  0
   -2.2015   13.6163  -30.8266 H   0  0  0  0  0  0  0  0  0  0  0  0
   -5.2130   12.0199  -28.3325 H   0  0  0  0  0  0  0  0  0  0  0  0
   -4.6695   10.5061  -29.0503 H   0  0  0  0  0  0  0  0  0  0  0  0
   -7.2437   12.0739  -29.6302 H   0  0  0  0  0  0  0  0  0  0  0  0
   -6.4361    9.0038  -35.4720 H   0  0  0  0  0  0  0  0  0  0  0  0
   -7.2044   10.3580  -28.1579 H   0  0  0  0  0  0  0  0  0  0  0  0
  1  2  1  0  0  0  0
  1  4  2  0  0  0  0
  2  5  2  0  0  0  0
  3  4  1  0  0  0  0
  3  6  2  0  0  0  0
  4 10  1  0  0  0  0
  5  6  1  0  0  0  0
  5 12  1  0  0  0  0
  6 15  1  0  0  0  0
  7  9  1  0  0  0  0
  7 11  2  0  0  0  0
  7 14  1  0  0  0  0
  8 14  1  0  0  0  0
  9 10  1  0  0  0  0
 10 13  1  0  0  0  0
  1 16  1  0  0  0  0
  2 17  1  0  0  0  0
  3 18  1  0  0  0  0
  8 19  1  0  0  0  0
  8 20  1  0  0  0  0
  8 21  1  0  0  0  0
  9 22  1  0  0  0  0
  9 23  1  0  0  0  0
 10 24  1  0  0  0  0
 12 25  1  0  0  0  0
 13 26  1  0  0  0  0
M  END
> <id>
EN300-1906655

> <smiles>
COC(=O)CC(O)C=1C=CC(O)=C(Br)C1

> <IUPAC Name>
methyl 3-(3-bromo-4-hydroxyphenyl)-3-hydroxypropanoate

> <CAS>
2229562-01-8

> <URL>
https://www.enaminestore.com/catalog/EN300-1906655

> <ROCS_ShapeQuery>
_x1604L0AP1_x0771L0AP1

> <ROCS_TanimotoCombo>
0.932 

> <ROCS_ShapeTanimoto>
0.669 

> <ROCS_ColorTanimoto>
0.263 

> <ROCS_RefTversky>
0.564 

> <ROCS_RefColorTversky>
0.339 

> <ROCS_RefTverskyCombo>
0.903 

> <ROCS_FitTversky>
1.389 

> <ROCS_FitColorTversky>
0.537 

> <ROCS_FitTverskyCombo>
1.927 

> <ROCS_ColorScore>
-3.889

> <ROCS_Overlap>
958.001

> <ROCS_Rank>
85                  

$$$$
untitled-dbase-2278_5
  -OEChem-06042309053D

 15 15  0     0  0  0  0  0  0999 V2000
   -5.5792   11.7916  -29.1419 C   0  0  0  0  0  0  0  0  0  0  0  0
   -4.3636   12.1762  -31.1940 C   0  0  0  0  0  0  0  0  0  0  0  0
   -6.2985   10.7686  -29.7596 C   0  0  0  0  0  0  0  0  0  0  0  0
   -4.6118   12.4955  -29.8591 C   0  0  0  0  0  0  0  0  0  0  0  0
   -5.0828   11.1531  -31.8118 C   0  0  0  0  0  0  0  0  0  0  0  0
   -6.0503   10.4493  -31.0945 C   0  0  0  0  0  0  0  0  0  0  0  0
   -3.3544   12.9114  -31.9403 C   0  0  0  0  0  0  0  0  0  0  0  0
   -2.1699   12.5689  -31.9888 O   0  0  0  0  0  0  0  0  0  0  0  0
   -7.2375   10.1013  -29.0305 O   0  0  0  0  0  0  0  0  0  0  0  0
   -3.9277   13.4777  -29.2553 F   0  0  0  0  0  0  0  0  0  0  0  0
   -4.8363   10.8516  -33.0962 F   0  0  0  0  0  0  0  0  0  0  0  0
   -7.0133    9.0609  -31.9560 Br  0  0  0  0  0  0  0  0  0  0  0  0
   -5.7675   12.0463  -28.1025 H   0  0  0  0  0  0  0  0  0  0  0  0
   -3.6845   13.8220  -32.4859 H   0  0  0  0  0  0  0  0  0  0  0  0
   -7.6612    9.4200  -29.5751 H   0  0  0  0  0  0  0  0  0  0  0  0
  1  3  2  0  0  0  0
  1  4  1  0  0  0  0
  2  4  2  0  0  0  0
  2  5  1  0  0  0  0
  2  7  1  0  0  0  0
  3  6  1  0  0  0  0
  3  9  1  0  0  0  0
  4 10  1  0  0  0  0
  5  6  2  0  0  0  0
  5 11  1  0  0  0  0
  6 12  1  0  0  0  0
  7  8  2  0  0  0  0
  1 13  1  0  0  0  0
  7 14  1  0  0  0  0
  9 15  1  0  0  0  0
M  END
> <id>
EN300-29234197

> <smiles>
OC=1C=C(F)C(C=O)=C(F)C1Br

> <IUPAC Name>
3-bromo-2,6-difluoro-4-hydroxybenzaldehyde

> <CAS>
1780889-40-8

> <Purity>
95

> <URL>
https://www.enaminestore.com/catalog/EN300-29234197

> <ROCS_ShapeQuery>
_x1604L0AP1_x0771L0AP1

> <ROCS_TanimotoCombo>
0.932 

> <ROCS_ShapeTanimoto>
0.519 

> <ROCS_ColorTanimoto>
0.413 

> <ROCS_RefTversky>
0.459 

> <ROCS_RefColorTversky>
0.429 

> <ROCS_RefTverskyCombo>
0.889 

> <ROCS_FitTversky>
1.333 

> <ROCS_FitColorTversky>
0.915 

> <ROCS_FitTverskyCombo>
2.248 

> <ROCS_ColorScore>
-4.879

> <ROCS_Overlap>
778.178

> <ROCS_Rank>
86                  

$$$$
untitled-dbase-599_5
  -OEChem-06042309053D

 21 21  0     0  0  0  0  0  0999 V2000
   -4.6066   12.4900  -29.8698 C   0  0  0  0  0  0  0  0  0  0  0  0
   -4.3593   12.1656  -31.2036 C   0  0  0  0  0  0  0  0  0  0  0  0
   -5.5744   11.7897  -29.1495 C   0  0  0  0  0  0  0  0  0  0  0  0
   -5.0798   11.1410  -31.8173 C   0  0  0  0  0  0  0  0  0  0  0  0
   -6.2949   10.7650  -29.7633 C   0  0  0  0  0  0  0  0  0  0  0  0
   -6.0476   10.4407  -31.0972 C   0  0  0  0  0  0  0  0  0  0  0  0
   -5.9776   10.9691  -34.1722 C   0  0  0  0  0  0  0  0  0  0  0  0
   -4.7772   10.8326  -33.2485 C   0  0  0  0  0  0  0  0  0  0  0  0
   -6.0284   10.0339  -35.3471 C   0  0  0  0  0  0  0  0  0  0  0  0
   -6.8680   11.7974  -33.9865 O   0  0  0  0  0  0  0  0  0  0  0  0
   -7.2332   10.1032  -29.0281 O   0  0  0  0  0  0  0  0  0  0  0  0
   -4.9563    9.2031  -35.3776 F   0  0  0  0  0  0  0  0  0  0  0  0
   -7.1347    9.2485  -35.3291 F   0  0  0  0  0  0  0  0  0  0  0  0
   -6.0422   10.7065  -36.5252 F   0  0  0  0  0  0  0  0  0  0  0  0
   -7.0365    9.0407  -31.9236 Br  0  0  0  0  0  0  0  0  0  0  0  0
   -4.0460   13.2882  -29.3920 H   0  0  0  0  0  0  0  0  0  0  0  0
   -3.6030   12.7180  -31.7554 H   0  0  0  0  0  0  0  0  0  0  0  0
   -5.7618   12.0487  -28.1109 H   0  0  0  0  0  0  0  0  0  0  0  0
   -3.9861   11.4999  -33.6212 H   0  0  0  0  0  0  0  0  0  0  0  0
   -4.3939    9.8056  -33.3419 H   0  0  0  0  0  0  0  0  0  0  0  0
   -7.6593    9.4197  -29.5680 H   0  0  0  0  0  0  0  0  0  0  0  0
  1  2  2  0  0  0  0
  1  3  1  0  0  0  0
  2  4  1  0  0  0  0
  3  5  2  0  0  0  0
  4  6  2  0  0  0  0
  4  8  1  0  0  0  0
  5  6  1  0  0  0  0
  5 11  1  0  0  0  0
  6 15  1  0  0  0  0
  7  8  1  0  0  0  0
  7  9  1  0  0  0  0
  7 10  2  0  0  0  0
  9 12  1  0  0  0  0
  9 13  1  0  0  0  0
  9 14  1  0  0  0  0
  1 16  1  0  0  0  0
  2 17  1  0  0  0  0
  3 18  1  0  0  0  0
  8 19  1  0  0  0  0
  8 20  1  0  0  0  0
 11 21  1  0  0  0  0
M  END
> <id>
EN300-1950763

> <smiles>
OC=1C=CC=C(CC(=O)C(F)(F)F)C1Br

> <IUPAC Name>
3-(2-bromo-3-hydroxyphenyl)-1,1,1-trifluoropropan-2-one

> <CAS>
2228581-72-2

> <URL>
https://www.enaminestore.com/catalog/EN300-1950763

> <ROCS_ShapeQuery>
_x1604L0AP1_x0771L0AP1

> <ROCS_TanimotoCombo>
0.931 

> <ROCS_ShapeTanimoto>
0.518 

> <ROCS_ColorTanimoto>
0.413 

> <ROCS_RefTversky>
0.483 

> <ROCS_RefColorTversky>
0.429 

> <ROCS_RefTverskyCombo>
0.913 

> <ROCS_FitTversky>
1.163 

> <ROCS_FitColorTversky>
0.915 

> <ROCS_FitTverskyCombo>
2.078 

> <ROCS_ColorScore>
-4.881

> <ROCS_Overlap>
821.699

> <ROCS_Rank>
87                  

$$$$
untitled-dbase-788_47
  -OEChem-06042309053D

 20 20  0     0  0  0  0  0  0999 V2000
   -4.5602   12.4450  -29.8168 C   0  0  0  0  0  0  0  0  0  0  0  0
   -5.5532   11.7614  -29.1152 C   0  0  0  0  0  0  0  0  0  0  0  0
   -5.0342   11.1189  -31.7799 C   0  0  0  0  0  0  0  0  0  0  0  0
   -4.3007   12.1238  -31.1492 C   0  0  0  0  0  0  0  0  0  0  0  0
   -6.2866   10.7565  -29.7459 C   0  0  0  0  0  0  0  0  0  0  0  0
   -6.0272   10.4352  -31.0783 C   0  0  0  0  0  0  0  0  0  0  0  0
   -3.2387   12.8552  -31.8982 C   0  0  0  0  0  0  0  0  0  0  0  0
   -3.0095   14.3080  -31.4491 C   0  0  0  0  0  0  0  0  0  0  0  0
   -7.2490   10.1063  -29.0321 O   0  0  0  0  0  0  0  0  0  0  0  0
   -4.5055   15.3310  -31.6115 S   0  0  0  0  0  0  0  0  0  0  0  0
   -7.0030    9.0745  -31.9664 Br  0  0  0  0  0  0  0  0  0  0  0  0
   -3.9941   13.2263  -29.3163 H   0  0  0  0  0  0  0  0  0  0  0  0
   -5.7497   12.0172  -28.0774 H   0  0  0  0  0  0  0  0  0  0  0  0
   -4.8253   10.8754  -32.8195 H   0  0  0  0  0  0  0  0  0  0  0  0
   -2.2792   12.3094  -31.8677 H   0  0  0  0  0  0  0  0  0  0  0  0
   -3.5135   12.8714  -32.9672 H   0  0  0  0  0  0  0  0  0  0  0  0
   -2.7151   14.3270  -30.3947 H   0  0  0  0  0  0  0  0  0  0  0  0
   -2.2049   14.7765  -32.0248 H   0  0  0  0  0  0  0  0  0  0  0  0
   -7.6801    9.4365  -29.5852 H   0  0  0  0  0  0  0  0  0  0  0  0
   -4.6426   15.1655  -32.9336 H   0  0  0  0  0  0  0  0  0  0  0  0
  1  2  1  0  0  0  0
  1  4  2  0  0  0  0
  2  5  2  0  0  0  0
  3  4  1  0  0  0  0
  3  6  2  0  0  0  0
  4  7  1  0  0  0  0
  5  6  1  0  0  0  0
  5  9  1  0  0  0  0
  6 11  1  0  0  0  0
  7  8  1  0  0  0  0
  8 10  1  0  0  0  0
  1 12  1  0  0  0  0
  2 13  1  0  0  0  0
  3 14  1  0  0  0  0
  7 15  1  0  0  0  0
  7 16  1  0  0  0  0
  8 17  1  0  0  0  0
  8 18  1  0  0  0  0
  9 19  1  0  0  0  0
 10 20  1  0  0  0  0
M  END
> <id>
EN300-1905156

> <smiles>
OC=1C=CC(CCS)=CC1Br

> <MDLNUMBER>
MFCD33499939

> <IUPAC Name>
2-bromo-4-(2-sulfanylethyl)phenol

> <CAS>
2229360-45-4

> <URL>
https://www.enaminestore.com/catalog/EN300-1905156

> <ROCS_ShapeQuery>
_x1604L0AP1_x0771L0AP1

> <ROCS_TanimotoCombo>
0.931 

> <ROCS_ShapeTanimoto>
0.481 

> <ROCS_ColorTanimoto>
0.451 

> <ROCS_RefTversky>
0.422 

> <ROCS_RefColorTversky>
0.431 

> <ROCS_RefTverskyCombo>
0.853 

> <ROCS_FitTversky>
1.403 

> <ROCS_FitColorTversky>
1.112 

> <ROCS_FitTverskyCombo>
2.516 

> <ROCS_ColorScore>
-4.878

> <ROCS_Overlap>
713.511

> <ROCS_Rank>
88                  

$$$$
untitled-dbase-913_61
  -OEChem-06042309053D

 27 28  0     1  0  0  0  0  0999 V2000
   -4.4477   12.0032  -31.7401 C   0  0  0  0  0  0  0  0  0  0  0  0
   -4.6056   12.5995  -30.4891 C   0  0  0  0  0  0  0  0  0  0  0  0
   -5.1846   10.8652  -32.0683 C   0  0  0  0  0  0  0  0  0  0  0  0
   -5.5004   12.0579  -29.5662 C   0  0  0  0  0  0  0  0  0  0  0  0
   -6.2372   10.9199  -29.8944 C   0  0  0  0  0  0  0  0  0  0  0  0
   -6.0793   10.3235  -31.1455 C   0  0  0  0  0  0  0  0  0  0  0  0
   -6.7048   13.7960  -28.0929 C   0  0  0  0  0  0  0  0  0  0  0  0
   -5.2554   14.1690  -28.1086 C   0  0  0  0  0  0  0  0  0  0  0  0
   -5.6542   12.7107  -28.2328 C   0  0  0  0  0  0  0  0  0  0  0  0
   -3.9559   11.8412  -26.5861 C   0  0  0  0  0  0  0  0  0  0  0  0
   -5.4101   11.8107  -27.0548 C   0  0  1  0  0  0  0  0  0  0  0  0
   -7.1077   10.3990  -28.9812 O   0  0  0  0  0  0  0  0  0  0  0  0
   -6.2475   12.2001  -25.9621 O   0  0  0  0  0  0  0  0  0  0  0  0
   -7.0608    8.7752  -31.6289 Br  0  0  0  0  0  0  0  0  0  0  0  0
   -3.7500   12.4234  -32.4586 H   0  0  0  0  0  0  0  0  0  0  0  0
   -4.0257   13.4855  -30.2436 H   0  0  0  0  0  0  0  0  0  0  0  0
   -5.0471   10.4132  -33.0475 H   0  0  0  0  0  0  0  0  0  0  0  0
   -7.2367   13.8822  -27.1525 H   0  0  0  0  0  0  0  0  0  0  0  0
   -7.3016   14.0607  -28.9582 H   0  0  0  0  0  0  0  0  0  0  0  0
   -4.8795   14.6854  -28.9845 H   0  0  0  0  0  0  0  0  0  0  0  0
   -4.8112   14.5054  -27.1789 H   0  0  0  0  0  0  0  0  0  0  0  0
   -3.6488   12.8594  -26.3286 H   0  0  0  0  0  0  0  0  0  0  0  0
   -3.2849   11.4591  -27.3629 H   0  0  0  0  0  0  0  0  0  0  0  0
   -3.8173   11.2008  -25.7081 H   0  0  0  0  0  0  0  0  0  0  0  0
   -5.6784   10.7719  -27.3031 H   0  0  0  0  0  0  0  0  0  0  0  0
   -7.5447    9.6153  -29.3477 H   0  0  0  0  0  0  0  0  0  0  0  0
   -7.1594   12.1165  -26.2766 H   0  0  0  0  0  0  0  0  0  0  0  0
  1  2  1  0  0  0  0
  1  3  2  0  0  0  0
  2  4  2  0  0  0  0
  3  6  1  0  0  0  0
  4  5  1  0  0  0  0
  4  9  1  0  0  0  0
  5  6  2  0  0  0  0
  5 12  1  0  0  0  0
  6 14  1  0  0  0  0
  7  8  1  0  0  0  0
  7  9  1  0  0  0  0
  8  9  1  0  0  0  0
  9 11  1  0  0  0  0
 10 11  1  0  0  0  0
 11 13  1  0  0  0  0
  1 15  1  0  0  0  0
  2 16  1  0  0  0  0
  3 17  1  0  0  0  0
  7 18  1  0  0  0  0
  7 19  1  0  0  0  0
  8 20  1  0  0  0  0
  8 21  1  0  0  0  0
 10 22  1  0  0  0  0
 10 23  1  0  0  0  0
 10 24  1  0  0  0  0
 11 25  1  0  0  0  0
 12 26  1  0  0  0  0
 13 27  1  0  0  0  0
M  END
> <id>
EN300-1923450

> <smiles>
CC(O)C1(CC1)C=2C=CC=C(Br)C2O

> <IUPAC Name>
2-bromo-6-[1-(1-hydroxyethyl)cyclopropyl]phenol

> <CAS>
2228263-59-8

> <URL>
https://www.enaminestore.com/catalog/EN300-1923450

> <ROCS_ShapeQuery>
_x1604L0AP1_x0771L0AP1

> <ROCS_TanimotoCombo>
0.931 

> <ROCS_ShapeTanimoto>
0.406 

> <ROCS_ColorTanimoto>
0.526 

> <ROCS_RefTversky>
0.401 

> <ROCS_RefColorTversky>
0.534 

> <ROCS_RefTverskyCombo>
0.935 

> <ROCS_FitTversky>
1.033 

> <ROCS_FitColorTversky>
0.970 

> <ROCS_FitTverskyCombo>
2.003 

> <ROCS_ColorScore>
-6.098

> <ROCS_Overlap>
679.948

> <ROCS_Rank>
89                  

$$$$
untitled-dbase-1227_67
  -OEChem-06042309053D

 27 27  0     0  0  0  0  0  0999 V2000
   -4.8093   11.6478  -31.4118 C   0  0  0  0  0  0  0  0  0  0  0  0
   -4.7930   12.8281  -29.3038 C   0  0  0  0  0  0  0  0  0  0  0  0
   -5.7779   10.7752  -30.9158 C   0  0  0  0  0  0  0  0  0  0  0  0
   -6.2540   10.9291  -29.6137 C   0  0  0  0  0  0  0  0  0  0  0  0
   -4.3168   12.6742  -30.6058 C   0  0  0  0  0  0  0  0  0  0  0  0
   -5.7616   11.9555  -28.8077 C   0  0  0  0  0  0  0  0  0  0  0  0
   -6.2963    9.6730  -31.8036 C   0  0  0  0  0  0  0  0  0  0  0  0
   -5.8810    9.8786  -33.2626 C   0  0  0  0  0  0  0  0  0  0  0  0
   -6.4418    8.7701  -34.1583 C   0  0  0  0  0  0  0  0  0  0  0  0
   -5.9457    7.3848  -33.7573 C   0  0  0  0  0  0  0  0  0  0  0  0
   -6.4915    6.3460  -34.5865 N   0  0  0  0  0  0  0  0  0  0  0  0
   -7.2016   10.0672  -29.1428 O   0  0  0  0  0  0  0  0  0  0  0  0
   -3.1215   13.7506  -31.2184 Cl  0  0  0  0  0  0  0  0  0  0  0  0
   -6.3838   12.1967  -27.0331 Br  0  0  0  0  0  0  0  0  0  0  0  0
   -4.4409   11.5247  -32.4281 H   0  0  0  0  0  0  0  0  0  0  0  0
   -4.4060   13.6296  -28.6784 H   0  0  0  0  0  0  0  0  0  0  0  0
   -7.3899    9.6263  -31.7248 H   0  0  0  0  0  0  0  0  0  0  0  0
   -5.9267    8.7067  -31.4375 H   0  0  0  0  0  0  0  0  0  0  0  0
   -4.7865    9.8933  -33.3396 H   0  0  0  0  0  0  0  0  0  0  0  0
   -6.2356   10.8562  -33.6118 H   0  0  0  0  0  0  0  0  0  0  0  0
   -7.5368    8.7792  -34.0974 H   0  0  0  0  0  0  0  0  0  0  0  0
   -6.1741    8.9715  -35.2029 H   0  0  0  0  0  0  0  0  0  0  0  0
   -6.2469    7.1632  -32.7286 H   0  0  0  0  0  0  0  0  0  0  0  0
   -4.8546    7.3213  -33.8140 H   0  0  0  0  0  0  0  0  0  0  0  0
   -6.1294    5.4605  -34.2948 H   0  0  0  0  0  0  0  0  0  0  0  0
   -7.4882    6.3418  -34.5034 H   0  0  0  0  0  0  0  0  0  0  0  0
   -7.4342   10.2949  -28.2299 H   0  0  0  0  0  0  0  0  0  0  0  0
  1  3  2  0  0  0  0
  1  5  1  0  0  0  0
  2  5  2  0  0  0  0
  2  6  1  0  0  0  0
  3  4  1  0  0  0  0
  3  7  1  0  0  0  0
  4  6  2  0  0  0  0
  4 12  1  0  0  0  0
  5 13  1  0  0  0  0
  6 14  1  0  0  0  0
  7  8  1  0  0  0  0
  8  9  1  0  0  0  0
  9 10  1  0  0  0  0
 10 11  1  0  0  0  0
  1 15  1  0  0  0  0
  2 16  1  0  0  0  0
  7 17  1  0  0  0  0
  7 18  1  0  0  0  0
  8 19  1  0  0  0  0
  8 20  1  0  0  0  0
  9 21  1  0  0  0  0
  9 22  1  0  0  0  0
 10 23  1  0  0  0  0
 10 24  1  0  0  0  0
 11 25  1  0  0  0  0
 11 26  1  0  0  0  0
 12 27  1  0  0  0  0
M  END
> <id>
EN300-1922922

> <smiles>
NCCCCC=1C=C(Cl)C=C(Br)C1O

> <IUPAC Name>
2-(4-aminobutyl)-6-bromo-4-chlorophenol

> <CAS>
2228548-30-7

> <URL>
https://www.enaminestore.com/catalog/EN300-1922922

> <ROCS_ShapeQuery>
_x1604L0AP1_x0771L0AP1

> <ROCS_TanimotoCombo>
0.930 

> <ROCS_ShapeTanimoto>
0.577 

> <ROCS_ColorTanimoto>
0.354 

> <ROCS_RefTversky>
0.500 

> <ROCS_RefColorTversky>
0.405 

> <ROCS_RefTverskyCombo>
0.906 

> <ROCS_FitTversky>
1.359 

> <ROCS_FitColorTversky>
0.736 

> <ROCS_FitTverskyCombo>
2.095 

> <ROCS_ColorScore>
-4.626

> <ROCS_Overlap>
848.607

> <ROCS_Rank>
90                  

$$$$
untitled-dbase-143_33
  -OEChem-06042309053D

 17 17  0     0  0  0  0  0  0999 V2000
   -4.6014   12.4831  -29.8488 C   0  0  0  0  0  0  0  0  0  0  0  0
   -5.5762   11.7849  -29.1361 C   0  0  0  0  0  0  0  0  0  0  0  0
   -5.0703   11.1427  -31.8034 C   0  0  0  0  0  0  0  0  0  0  0  0
   -4.3485   12.1620  -31.1824 C   0  0  0  0  0  0  0  0  0  0  0  0
   -6.2981   10.7655  -29.7571 C   0  0  0  0  0  0  0  0  0  0  0  0
   -6.0451   10.4444  -31.0907 C   0  0  0  0  0  0  0  0  0  0  0  0
   -3.3060   12.9090  -31.9433 C   0  0  0  0  0  0  0  0  0  0  0  0
   -7.2427   10.1013  -29.0326 O   0  0  0  0  0  0  0  0  0  0  0  0
   -2.2320   13.9025  -30.8625 S   0  0  0  0  0  0  0  0  0  0  0  0
   -7.0055    9.0644  -31.9658 Br  0  0  0  0  0  0  0  0  0  0  0  0
   -4.0444   13.2755  -29.3558 H   0  0  0  0  0  0  0  0  0  0  0  0
   -5.7678   12.0406  -28.0973 H   0  0  0  0  0  0  0  0  0  0  0  0
   -4.8666   10.8995  -32.8441 H   0  0  0  0  0  0  0  0  0  0  0  0
   -2.6723   12.2194  -32.5204 H   0  0  0  0  0  0  0  0  0  0  0  0
   -3.7691   13.5820  -32.6799 H   0  0  0  0  0  0  0  0  0  0  0  0
   -7.6673    9.4225  -29.5797 H   0  0  0  0  0  0  0  0  0  0  0  0
   -1.7714   12.8725  -30.1405 H   0  0  0  0  0  0  0  0  0  0  0  0
  1  2  1  0  0  0  0
  1  4  2  0  0  0  0
  2  5  2  0  0  0  0
  3  4  1  0  0  0  0
  3  6  2  0  0  0  0
  4  7  1  0  0  0  0
  5  6  1  0  0  0  0
  5  8  1  0  0  0  0
  6 10  1  0  0  0  0
  7  9  1  0  0  0  0
  1 11  1  0  0  0  0
  2 12  1  0  0  0  0
  3 13  1  0  0  0  0
  7 14  1  0  0  0  0
  7 15  1  0  0  0  0
  8 16  1  0  0  0  0
  9 17  1  0  0  0  0
M  END
> <id>
EN300-1288750

> <smiles>
OC=1C=CC(CS)=CC1Br

> <MDLNUMBER>
MFCD33493935

> <IUPAC Name>
2-bromo-4-(sulfanylmethyl)phenol

> <CAS>
1895992-66-1

> <URL>
https://www.enaminestore.com/catalog/EN300-1288750

> <ROCS_ShapeQuery>
_x1604L0AP1_x0771L0AP1

> <ROCS_TanimotoCombo>
0.930 

> <ROCS_ShapeTanimoto>
0.479 

> <ROCS_ColorTanimoto>
0.451 

> <ROCS_RefTversky>
0.414 

> <ROCS_RefColorTversky>
0.431 

> <ROCS_RefTverskyCombo>
0.846 

> <ROCS_FitTversky>
1.480 

> <ROCS_FitColorTversky>
1.113 

> <ROCS_FitTverskyCombo>
2.593 

> <ROCS_ColorScore>
-4.878

> <ROCS_Overlap>
699.544

> <ROCS_Rank>
91                  

$$$$
untitled-dbase-1259_58
  -OEChem-06042309053D

 26 26  0     0  0  0  0  0  0999 V2000
   -4.3703   12.3805  -30.4966 C   0  0  0  0  0  0  0  0  0  0  0  0
   -5.2420   10.8483  -32.1487 C   0  0  0  0  0  0  0  0  0  0  0  0
   -5.2530   11.8615  -29.5495 C   0  0  0  0  0  0  0  0  0  0  0  0
   -6.1301   10.8358  -29.9019 C   0  0  0  0  0  0  0  0  0  0  0  0
   -4.3649   11.8740  -31.7963 C   0  0  0  0  0  0  0  0  0  0  0  0
   -6.1247   10.3292  -31.2016 C   0  0  0  0  0  0  0  0  0  0  0  0
   -3.8800   12.2843  -27.4011 C   0  0  0  0  0  0  0  0  0  0  0  0
   -5.5523   13.9490  -28.1815 C   0  0  0  0  0  0  0  0  0  0  0  0
   -6.3250   11.7423  -27.2543 C   0  0  0  0  0  0  0  0  0  0  0  0
   -5.2420   12.4358  -28.1203 C   0  0  0  0  0  0  0  0  0  0  0  0
   -6.9878   10.3386  -28.9640 O   0  0  0  0  0  0  0  0  0  0  0  0
   -6.3356   12.2801  -25.9361 O   0  0  0  0  0  0  0  0  0  0  0  0
   -3.2756   12.5150  -32.9647 Cl  0  0  0  0  0  0  0  0  0  0  0  0
   -7.3018    8.9357  -31.7186 Br  0  0  0  0  0  0  0  0  0  0  0  0
   -3.6874   13.1802  -30.2176 H   0  0  0  0  0  0  0  0  0  0  0  0
   -5.2349   10.4563  -33.1634 H   0  0  0  0  0  0  0  0  0  0  0  0
   -3.9118   12.7039  -26.3887 H   0  0  0  0  0  0  0  0  0  0  0  0
   -3.6039   11.2275  -27.3029 H   0  0  0  0  0  0  0  0  0  0  0  0
   -3.0685   12.7797  -27.9460 H   0  0  0  0  0  0  0  0  0  0  0  0
   -5.5530   14.3935  -27.1791 H   0  0  0  0  0  0  0  0  0  0  0  0
   -6.5368   14.1326  -28.6277 H   0  0  0  0  0  0  0  0  0  0  0  0
   -4.8206   14.4981  -28.7844 H   0  0  0  0  0  0  0  0  0  0  0  0
   -7.3201   11.9005  -27.6864 H   0  0  0  0  0  0  0  0  0  0  0  0
   -6.1669   10.6612  -27.1803 H   0  0  0  0  0  0  0  0  0  0  0  0
   -7.5323    9.6359  -29.3503 H   0  0  0  0  0  0  0  0  0  0  0  0
   -7.0292   11.8078  -25.4491 H   0  0  0  0  0  0  0  0  0  0  0  0
  1  3  2  0  0  0  0
  1  5  1  0  0  0  0
  2  5  2  0  0  0  0
  2  6  1  0  0  0  0
  3  4  1  0  0  0  0
  3 10  1  0  0  0  0
  4  6  2  0  0  0  0
  4 11  1  0  0  0  0
  5 13  1  0  0  0  0
  6 14  1  0  0  0  0
  7 10  1  0  0  0  0
  8 10  1  0  0  0  0
  9 10  1  0  0  0  0
  9 12  1  0  0  0  0
  1 15  1  0  0  0  0
  2 16  1  0  0  0  0
  7 17  1  0  0  0  0
  7 18  1  0  0  0  0
  7 19  1  0  0  0  0
  8 20  1  0  0  0  0
  8 21  1  0  0  0  0
  8 22  1  0  0  0  0
  9 23  1  0  0  0  0
  9 24  1  0  0  0  0
 11 25  1  0  0  0  0
 12 26  1  0  0  0  0
M  END
> <id>
EN300-1922598

> <smiles>
CC(C)(CO)C=1C=C(Cl)C=C(Br)C1O

> <IUPAC Name>
2-bromo-4-chloro-6-(1-hydroxy-2-methylpropan-2-yl)phenol

> <CAS>
2228239-92-5

> <URL>
https://www.enaminestore.com/catalog/EN300-1922598

> <ROCS_ShapeQuery>
_x1604L0AP1_x0771L0AP1

> <ROCS_TanimotoCombo>
0.929 

> <ROCS_ShapeTanimoto>
0.446 

> <ROCS_ColorTanimoto>
0.483 

> <ROCS_RefTversky>
0.425 

> <ROCS_RefColorTversky>
0.531 

> <ROCS_RefTverskyCombo>
0.956 

> <ROCS_FitTversky>
1.129 

> <ROCS_FitColorTversky>
0.842 

> <ROCS_FitTverskyCombo>
1.971 

> <ROCS_ColorScore>
-6.092

> <ROCS_Overlap>
720.421

> <ROCS_Rank>
92                  

$$$$
untitled-dbase-465_242
  -OEChem-06042309053D

 23 23  0     0  0  0  0  0  0999 V2000
   -4.7504   12.6212  -29.8766 C   0  0  0  0  0  0  0  0  0  0  0  0
   -5.1642   11.2465  -31.8197 C   0  0  0  0  0  0  0  0  0  0  0  0
   -4.5005   12.3133  -31.2139 C   0  0  0  0  0  0  0  0  0  0  0  0
   -5.6640   11.8623  -29.1451 C   0  0  0  0  0  0  0  0  0  0  0  0
   -6.3277   10.7955  -29.7509 C   0  0  0  0  0  0  0  0  0  0  0  0
   -6.0778   10.4876  -31.0883 C   0  0  0  0  0  0  0  0  0  0  0  0
   -5.0745   11.5413  -26.8636 C   0  0  0  0  0  0  0  0  0  0  0  0
   -3.5243   13.1255  -31.9958 C   0  0  0  0  0  0  0  0  0  0  0  0
   -3.5324   15.0689  -30.7309 N   0  0  0  0  0  0  0  0  0  0  0  0
   -7.2185   10.0656  -29.0192 O   0  0  0  0  0  0  0  0  0  0  0  0
   -5.8979   12.1757  -27.8401 O   0  0  0  0  0  0  0  0  0  0  0  0
   -2.7397   13.9083  -31.1043 O   0  0  0  0  0  0  0  0  0  0  0  0
   -6.9605    9.0456  -31.9459 Br  0  0  0  0  0  0  0  0  0  0  0  0
   -4.2344   13.4526  -29.4021 H   0  0  0  0  0  0  0  0  0  0  0  0
   -4.9629   11.0144  -32.8633 H   0  0  0  0  0  0  0  0  0  0  0  0
   -5.3655   11.8786  -25.8658 H   0  0  0  0  0  0  0  0  0  0  0  0
   -4.0269   11.7890  -27.0525 H   0  0  0  0  0  0  0  0  0  0  0  0
   -5.2093   10.4593  -26.9337 H   0  0  0  0  0  0  0  0  0  0  0  0
   -2.8527   12.4867  -32.5856 H   0  0  0  0  0  0  0  0  0  0  0  0
   -4.0384   13.7975  -32.6965 H   0  0  0  0  0  0  0  0  0  0  0  0
   -2.8914   15.8196  -30.9832 H   0  0  0  0  0  0  0  0  0  0  0  0
   -3.5054   14.9926  -29.7153 H   0  0  0  0  0  0  0  0  0  0  0  0
   -7.2712   10.4132  -28.1158 H   0  0  0  0  0  0  0  0  0  0  0  0
  1  3  1  0  0  0  0
  1  4  2  0  0  0  0
  2  3  2  0  0  0  0
  2  6  1  0  0  0  0
  3  8  1  0  0  0  0
  4  5  1  0  0  0  0
  4 11  1  0  0  0  0
  5  6  2  0  0  0  0
  5 10  1  0  0  0  0
  6 13  1  0  0  0  0
  7 11  1  0  0  0  0
  8 12  1  0  0  0  0
  9 12  1  0  0  0  0
  1 14  1  0  0  0  0
  2 15  1  0  0  0  0
  7 16  1  0  0  0  0
  7 17  1  0  0  0  0
  7 18  1  0  0  0  0
  8 19  1  0  0  0  0
  8 20  1  0  0  0  0
  9 21  1  0  0  0  0
  9 22  1  0  0  0  0
 10 23  1  0  0  0  0
M  END
> <id>
EN300-1926992

> <smiles>
COC=1C=C(CON)C=C(Br)C1O

> <IUPAC Name>
4-[(aminooxy)methyl]-2-bromo-6-methoxyphenol

> <CAS>
2229002-57-5

> <URL>
https://www.enaminestore.com/catalog/EN300-1926992

> <ROCS_ShapeQuery>
_x1604L0AP1_x0771L0AP1

> <ROCS_TanimotoCombo>
0.929 

> <ROCS_ShapeTanimoto>
0.517 

> <ROCS_ColorTanimoto>
0.412 

> <ROCS_RefTversky>
0.463 

> <ROCS_RefColorTversky>
0.428 

> <ROCS_RefTverskyCombo>
0.891 

> <ROCS_FitTversky>
1.293 

> <ROCS_FitColorTversky>
0.913 

> <ROCS_FitTverskyCombo>
2.205 

> <ROCS_ColorScore>
-4.869

> <ROCS_Overlap>
784.714

> <ROCS_Rank>
93                  

$$$$
untitled-dbase-1757_22
  -OEChem-06042309053D

 21 21  0     0  0  0  0  0  0999 V2000
   -4.9132   11.0612  -31.7140 C   0  0  0  0  0  0  0  0  0  0  0  0
   -4.6626   12.5859  -29.8567 C   0  0  0  0  0  0  0  0  0  0  0  0
   -5.9014   10.3699  -31.0132 C   0  0  0  0  0  0  0  0  0  0  0  0
   -6.2702   10.7865  -29.7341 C   0  0  0  0  0  0  0  0  0  0  0  0
   -4.2938   12.1692  -31.1358 C   0  0  0  0  0  0  0  0  0  0  0  0
   -5.6508   11.8945  -29.1558 C   0  0  0  0  0  0  0  0  0  0  0  0
   -6.5517    9.1862  -31.6509 C   0  0  0  0  0  0  0  0  0  0  0  0
   -7.6161    9.5589  -32.6883 C   0  0  0  0  0  0  0  0  0  0  0  0
   -6.1679    9.0698  -35.6132 N   0  5  0  0  0  0  0  0  0  0  0  0
   -7.0026   10.3326  -33.7712 N   0  0  0  0  0  0  0  0  0  0  0  0
   -6.5685    9.6700  -34.7298 N   0  3  0  0  0  0  0  0  0  0  0  0
   -7.2385   10.0995  -29.0611 O   0  0  0  0  0  0  0  0  0  0  0  0
   -3.0744   13.0219  -32.0009 Cl  0  0  0  0  0  0  0  0  0  0  0  0
   -6.1246   12.4910  -27.4196 Br  0  0  0  0  0  0  0  0  0  0  0  0
   -4.6288   10.7334  -32.7117 H   0  0  0  0  0  0  0  0  0  0  0  0
   -4.1768   13.4501  -29.4091 H   0  0  0  0  0  0  0  0  0  0  0  0
   -5.7955    8.5357  -32.1210 H   0  0  0  0  0  0  0  0  0  0  0  0
   -7.0228    8.5666  -30.8701 H   0  0  0  0  0  0  0  0  0  0  0  0
   -8.0549    8.6530  -33.1188 H   0  0  0  0  0  0  0  0  0  0  0  0
   -8.4276   10.1392  -32.2363 H   0  0  0  0  0  0  0  0  0  0  0  0
   -7.3881   10.5011  -28.1918 H   0  0  0  0  0  0  0  0  0  0  0  0
  1  3  2  0  0  0  0
  1  5  1  0  0  0  0
  2  5  2  0  0  0  0
  2  6  1  0  0  0  0
  3  4  1  0  0  0  0
  3  7  1  0  0  0  0
  4  6  2  0  0  0  0
  4 12  1  0  0  0  0
  5 13  1  0  0  0  0
  6 14  1  0  0  0  0
  7  8  1  0  0  0  0
  8 10  1  0  0  0  0
  9 11  2  0  0  0  0
 10 11  2  0  0  0  0
  1 15  1  0  0  0  0
  2 16  1  0  0  0  0
  7 17  1  0  0  0  0
  7 18  1  0  0  0  0
  8 19  1  0  0  0  0
  8 20  1  0  0  0  0
 12 21  1  0  0  0  0
M  CHG  2   9  -1  11   1
M  END
> <id>
EN300-1922928

> <smiles>
OC=1C(Br)=CC(Cl)=CC1CCN=[N+]=[N-]

> <IUPAC Name>
2-(2-azidoethyl)-6-bromo-4-chlorophenol

> <CAS>
2228201-41-8

> <URL>
https://www.enaminestore.com/catalog/EN300-1922928

> <ROCS_ShapeQuery>
_x1604L0AP1_x0771L0AP1

> <ROCS_TanimotoCombo>
0.928 

> <ROCS_ShapeTanimoto>
0.599 

> <ROCS_ColorTanimoto>
0.329 

> <ROCS_RefTversky>
0.516 

> <ROCS_RefColorTversky>
0.343 

> <ROCS_RefTverskyCombo>
0.860 

> <ROCS_FitTversky>
1.366 

> <ROCS_FitColorTversky>
0.886 

> <ROCS_FitTverskyCombo>
2.252 

> <ROCS_ColorScore>
-3.887

> <ROCS_Overlap>
876.315

> <ROCS_Rank>
94                  

$$$$
untitled-dbase-502_26
  -OEChem-06042309053D

 22 22  0     1  0  0  0  0  0999 V2000
   -4.8759   12.7101  -30.1913 C   0  0  0  0  0  0  0  0  0  0  0  0
   -5.0244   10.9861  -31.8774 C   0  0  0  0  0  0  0  0  0  0  0  0
   -5.8400   12.0490  -29.4304 C   0  0  0  0  0  0  0  0  0  0  0  0
   -6.3962   10.8564  -29.8929 C   0  0  0  0  0  0  0  0  0  0  0  0
   -4.4681   12.1787  -31.4149 C   0  0  0  0  0  0  0  0  0  0  0  0
   -5.9884   10.3249  -31.1164 C   0  0  0  0  0  0  0  0  0  0  0  0
   -6.0166   11.6973  -26.9285 C   0  0  0  0  0  0  0  0  0  0  0  0
   -6.2623   12.6353  -28.1233 C   0  0  2  0  0  0  0  0  0  0  0  0
   -7.6616   13.0322  -28.1369 N   0  0  0  0  0  0  0  0  0  0  0  0
   -7.3385   10.2214  -29.1369 O   0  0  0  0  0  0  0  0  0  0  0  0
   -6.0280   12.4437  -25.7160 O   0  0  0  0  0  0  0  0  0  0  0  0
   -3.2786   12.9951  -32.3536 Cl  0  0  0  0  0  0  0  0  0  0  0  0
   -6.7212    8.7065  -31.7786 Br  0  0  0  0  0  0  0  0  0  0  0  0
   -4.4442   13.6399  -29.8268 H   0  0  0  0  0  0  0  0  0  0  0  0
   -4.7039   10.5752  -32.8323 H   0  0  0  0  0  0  0  0  0  0  0  0
   -6.8109   10.9457  -26.8623 H   0  0  0  0  0  0  0  0  0  0  0  0
   -5.0525   11.1832  -27.0068 H   0  0  0  0  0  0  0  0  0  0  0  0
   -5.7153   13.5745  -27.9280 H   0  0  0  0  0  0  0  0  0  0  0  0
   -7.8875   13.4258  -27.2521 H   0  0  0  0  0  0  0  0  0  0  0  0
   -7.7925   13.7037  -28.8584 H   0  0  0  0  0  0  0  0  0  0  0  0
   -7.6317    9.4118  -29.5818 H   0  0  0  0  0  0  0  0  0  0  0  0
   -6.9033   12.8570  -25.6527 H   0  0  0  0  0  0  0  0  0  0  0  0
  1  3  2  0  0  0  0
  1  5  1  0  0  0  0
  2  5  2  0  0  0  0
  2  6  1  0  0  0  0
  3  4  1  0  0  0  0
  3  8  1  0  0  0  0
  4  6  2  0  0  0  0
  4 10  1  0  0  0  0
  5 12  1  0  0  0  0
  6 13  1  0  0  0  0
  7  8  1  0  0  0  0
  7 11  1  0  0  0  0
  8  9  1  6  0  0  0
  1 14  1  0  0  0  0
  2 15  1  0  0  0  0
  7 16  1  0  0  0  0
  7 17  1  0  0  0  0
  8 18  1  0  0  0  0
  9 19  1  0  0  0  0
  9 20  1  0  0  0  0
 10 21  1  0  0  0  0
 11 22  1  0  0  0  0
M  END
> <id>
EN300-1914424

> <smiles>
N[C@@H](CO)C=1C=C(Cl)C=C(Br)C1O

> <MDLNUMBER>
MFCD09253944

> <IUPAC Name>
2-[(1R)-1-amino-2-hydroxyethyl]-6-bromo-4-chlorophenol

> <CAS>
1212807-06-1

> <URL>
https://www.enaminestore.com/catalog/EN300-1914424

> <ROCS_ShapeQuery>
_x1604L0AP1_x0771L0AP1

> <ROCS_TanimotoCombo>
0.928 

> <ROCS_ShapeTanimoto>
0.440 

> <ROCS_ColorTanimoto>
0.488 

> <ROCS_RefTversky>
0.414 

> <ROCS_RefColorTversky>
0.561 

> <ROCS_RefTverskyCombo>
0.975 

> <ROCS_FitTversky>
1.171 

> <ROCS_FitColorTversky>
0.789 

> <ROCS_FitTverskyCombo>
1.961 

> <ROCS_ColorScore>
-6.460

> <ROCS_Overlap>
700.903

> <ROCS_Rank>
95                  

$$$$
untitled-dbase-512_70
  -OEChem-06042309053D

 29 29  0     1  0  0  0  0  0999 V2000
   -4.2477   12.2006  -31.1434 C   0  0  0  0  0  0  0  0  0  0  0  0
   -4.9046   11.1617  -31.8027 C   0  0  0  0  0  0  0  0  0  0  0  0
   -4.5903   12.5198  -29.8294 C   0  0  0  0  0  0  0  0  0  0  0  0
   -5.9043   10.4420  -31.1481 C   0  0  0  0  0  0  0  0  0  0  0  0
   -6.2469   10.7612  -29.8342 C   0  0  0  0  0  0  0  0  0  0  0  0
   -5.5899   11.8001  -29.1748 C   0  0  0  0  0  0  0  0  0  0  0  0
   -6.7314    8.0323  -34.1584 C   0  0  0  0  0  0  0  0  0  0  0  0
   -8.1484    9.5284  -32.0251 C   0  0  0  0  0  0  0  0  0  0  0  0
   -6.4806    7.9775  -31.0874 C   0  0  0  0  0  0  0  0  0  0  0  0
   -6.0193    9.0875  -33.3271 C   0  0  2  0  0  0  0  0  0  0  0  0
   -6.6197    9.2959  -31.8982 C   0  0  0  0  0  0  0  0  0  0  0  0
   -6.3896    6.8586  -34.2328 O   0  0  0  0  0  0  0  0  0  0  0  0
   -7.2282   10.0490  -29.2077 O   0  0  0  0  0  0  0  0  0  0  0  0
   -7.8158    8.5237  -34.8089 O   0  0  0  0  0  0  0  0  0  0  0  0
   -6.0930   10.2950  -34.0834 O   0  0  0  0  0  0  0  0  0  0  0  0
   -6.0258   12.2639  -27.3891 Br  0  0  0  0  0  0  0  0  0  0  0  0
   -3.4690   12.7607  -31.6528 H   0  0  0  0  0  0  0  0  0  0  0  0
   -4.6298   10.9181  -32.8255 H   0  0  0  0  0  0  0  0  0  0  0  0
   -4.0669   13.3323  -29.3317 H   0  0  0  0  0  0  0  0  0  0  0  0
   -8.6583    8.7190  -32.5556 H   0  0  0  0  0  0  0  0  0  0  0  0
   -8.3651   10.4597  -32.5625 H   0  0  0  0  0  0  0  0  0  0  0  0
   -8.6175    9.6051  -31.0369 H   0  0  0  0  0  0  0  0  0  0  0  0
   -6.9816    7.1481  -31.6010 H   0  0  0  0  0  0  0  0  0  0  0  0
   -5.4406    7.6708  -30.9381 H   0  0  0  0  0  0  0  0  0  0  0  0
   -6.9356    8.0766  -30.0943 H   0  0  0  0  0  0  0  0  0  0  0  0
   -4.9536    8.8364  -33.2623 H   0  0  0  0  0  0  0  0  0  0  0  0
   -7.3563   10.3810  -28.3062 H   0  0  0  0  0  0  0  0  0  0  0  0
   -7.9904    9.4791  -34.6732 H   0  0  0  0  0  0  0  0  0  0  0  0
   -5.6451   10.1197  -34.9250 H   0  0  0  0  0  0  0  0  0  0  0  0
  1  2  1  0  0  0  0
  1  3  2  0  0  0  0
  2  4  2  0  0  0  0
  3  6  1  0  0  0  0
  4  5  1  0  0  0  0
  4 11  1  0  0  0  0
  5  6  2  0  0  0  0
  5 13  1  0  0  0  0
  6 16  1  0  0  0  0
  7 10  1  0  0  0  0
  7 12  2  0  0  0  0
  7 14  1  0  0  0  0
  8 11  1  0  0  0  0
  9 11  1  0  0  0  0
 10 11  1  0  0  0  0
 10 15  1  0  0  0  0
  1 17  1  0  0  0  0
  2 18  1  0  0  0  0
  3 19  1  0  0  0  0
  8 20  1  0  0  0  0
  8 21  1  0  0  0  0
  8 22  1  0  0  0  0
  9 23  1  0  0  0  0
  9 24  1  0  0  0  0
  9 25  1  0  0  0  0
 10 26  1  0  0  0  0
 13 27  1  0  0  0  0
 14 28  1  0  0  0  0
 15 29  1  0  0  0  0
M  END
> <id>
EN300-1923119

> <smiles>
CC(C)(C(O)C(=O)O)C=1C=CC=C(Br)C1O

> <IUPAC Name>
3-(3-bromo-2-hydroxyphenyl)-2-hydroxy-3-methylbutanoic acid

> <CAS>
2228871-69-8

> <URL>
https://www.enaminestore.com/catalog/EN300-1923119

> <ROCS_ShapeQuery>
_x1604L0AP1_x0771L0AP1

> <ROCS_TanimotoCombo>
0.928 

> <ROCS_ShapeTanimoto>
0.584 

> <ROCS_ColorTanimoto>
0.344 

> <ROCS_RefTversky>
0.528 

> <ROCS_RefColorTversky>
0.479 

> <ROCS_RefTverskyCombo>
1.007 

> <ROCS_FitTversky>
1.219 

> <ROCS_FitColorTversky>
0.550 

> <ROCS_FitTverskyCombo>
1.770 

> <ROCS_ColorScore>
-5.560

> <ROCS_Overlap>
898.857

> <ROCS_Rank>
96                  

$$$$
untitled-dbase-1514_2
  -OEChem-06042309053D

 15 15  0     0  0  0  0  0  0999 V2000
   -5.0640   11.1290  -31.8052 C   0  0  0  0  0  0  0  0  0  0  0  0
   -5.5678   11.7795  -29.1396 C   0  0  0  0  0  0  0  0  0  0  0  0
   -4.3382   12.1468  -31.1866 C   0  0  0  0  0  0  0  0  0  0  0  0
   -6.2937   10.7617  -29.7583 C   0  0  0  0  0  0  0  0  0  0  0  0
   -4.5900   12.4721  -29.8538 C   0  0  0  0  0  0  0  0  0  0  0  0
   -6.0418   10.4364  -31.0911 C   0  0  0  0  0  0  0  0  0  0  0  0
   -3.3204   12.8677  -31.9350 C   0  0  0  0  0  0  0  0  0  0  0  0
   -2.6441   13.7777  -31.4479 O   0  0  0  0  0  0  0  0  0  0  0  0
   -7.2421   10.1040  -29.0328 O   0  0  0  0  0  0  0  0  0  0  0  0
   -3.8995   13.4496  -29.2496 F   0  0  0  0  0  0  0  0  0  0  0  0
   -7.0101    9.0608  -31.9642 Br  0  0  0  0  0  0  0  0  0  0  0  0
   -4.8629   10.8811  -32.8453 H   0  0  0  0  0  0  0  0  0  0  0  0
   -5.7580   12.0380  -28.1015 H   0  0  0  0  0  0  0  0  0  0  0  0
   -3.1586   12.5713  -32.9942 H   0  0  0  0  0  0  0  0  0  0  0  0
   -7.6693    9.4255  -29.5784 H   0  0  0  0  0  0  0  0  0  0  0  0
  1  3  1  0  0  0  0
  1  6  2  0  0  0  0
  2  4  2  0  0  0  0
  2  5  1  0  0  0  0
  3  5  2  0  0  0  0
  3  7  1  0  0  0  0
  4  6  1  0  0  0  0
  4  9  1  0  0  0  0
  5 10  1  0  0  0  0
  6 11  1  0  0  0  0
  7  8  2  0  0  0  0
  1 12  1  0  0  0  0
  2 13  1  0  0  0  0
  7 14  1  0  0  0  0
  9 15  1  0  0  0  0
M  END
> <id>
EN300-1276385

> <smiles>
OC=1C=C(F)C(C=O)=CC1Br

> <MDLNUMBER>
MFCD22036550

> <IUPAC Name>
5-bromo-2-fluoro-4-hydroxybenzaldehyde

> <CAS>
914397-21-0

> <Purity>
95

> <URL>
https://www.enaminestore.com/catalog/EN300-1276385

> <ROCS_ShapeQuery>
_x1604L0AP1_x0771L0AP1

> <ROCS_TanimotoCombo>
0.927 

> <ROCS_ShapeTanimoto>
0.515 

> <ROCS_ColorTanimoto>
0.413 

> <ROCS_RefTversky>
0.447 

> <ROCS_RefColorTversky>
0.429 

> <ROCS_RefTverskyCombo>
0.876 

> <ROCS_FitTversky>
1.416 

> <ROCS_FitColorTversky>
0.915 

> <ROCS_FitTverskyCombo>
2.331 

> <ROCS_ColorScore>
-4.879

> <ROCS_Overlap>
756.070

> <ROCS_Rank>
97                  

$$$$
untitled-dbase-918_8
  -OEChem-06042309053D

 27 27  0     0  0  0  0  0  0999 V2000
   -4.9417   11.2849  -31.7356 C   0  0  0  0  0  0  0  0  0  0  0  0
   -4.5737   12.5397  -29.7041 C   0  0  0  0  0  0  0  0  0  0  0  0
   -5.9365   10.5440  -31.0978 C   0  0  0  0  0  0  0  0  0  0  0  0
   -6.2500   10.8010  -29.7631 C   0  0  0  0  0  0  0  0  0  0  0  0
   -4.2602   12.2827  -31.0387 C   0  0  0  0  0  0  0  0  0  0  0  0
   -5.5686   11.7988  -29.0662 C   0  0  0  0  0  0  0  0  0  0  0  0
   -6.4689    8.0822  -31.2082 C   0  0  0  0  0  0  0  0  0  0  0  0
   -8.1792    9.7669  -31.9486 C   0  0  0  0  0  0  0  0  0  0  0  0
   -6.7664   10.3801  -34.0943 C   0  0  0  0  0  0  0  0  0  0  0  0
   -6.6735    9.4510  -31.8833 C   0  0  0  0  0  0  0  0  0  0  0  0
   -6.1891    9.3405  -33.2538 N   0  0  0  0  0  0  0  0  0  0  0  0
   -7.2258   10.0674  -29.1529 O   0  0  0  0  0  0  0  0  0  0  0  0
   -3.0324   13.1966  -31.8263 Cl  0  0  0  0  0  0  0  0  0  0  0  0
   -5.9661   12.1774  -27.2514 Br  0  0  0  0  0  0  0  0  0  0  0  0
   -4.7004   11.0816  -32.7769 H   0  0  0  0  0  0  0  0  0  0  0  0
   -4.0396   13.3185  -29.1641 H   0  0  0  0  0  0  0  0  0  0  0  0
   -6.9905    7.2902  -31.7592 H   0  0  0  0  0  0  0  0  0  0  0  0
   -5.4064    7.8109  -31.1789 H   0  0  0  0  0  0  0  0  0  0  0  0
   -6.8432    8.0656  -30.1789 H   0  0  0  0  0  0  0  0  0  0  0  0
   -8.7194    8.9933  -32.5078 H   0  0  0  0  0  0  0  0  0  0  0  0
   -8.3610   10.7214  -32.4577 H   0  0  0  0  0  0  0  0  0  0  0  0
   -8.6348    9.8304  -30.9545 H   0  0  0  0  0  0  0  0  0  0  0  0
   -6.4929   11.3683  -33.6959 H   0  0  0  0  0  0  0  0  0  0  0  0
   -6.3809   10.2787  -35.1195 H   0  0  0  0  0  0  0  0  0  0  0  0
   -7.8617   10.2786  -34.1027 H   0  0  0  0  0  0  0  0  0  0  0  0
   -6.4447    8.4267  -33.6260 H   0  0  0  0  0  0  0  0  0  0  0  0
   -7.3330   10.3556  -28.2338 H   0  0  0  0  0  0  0  0  0  0  0  0
  1  3  2  0  0  0  0
  1  5  1  0  0  0  0
  2  5  2  0  0  0  0
  2  6  1  0  0  0  0
  3  4  1  0  0  0  0
  3 10  1  0  0  0  0
  4  6  2  0  0  0  0
  4 12  1  0  0  0  0
  5 13  1  0  0  0  0
  6 14  1  0  0  0  0
  7 10  1  0  0  0  0
  8 10  1  0  0  0  0
  9 11  1  0  0  0  0
 10 11  1  0  0  0  0
  1 15  1  0  0  0  0
  2 16  1  0  0  0  0
  7 17  1  0  0  0  0
  7 18  1  0  0  0  0
  7 19  1  0  0  0  0
  8 20  1  0  0  0  0
  8 21  1  0  0  0  0
  8 22  1  0  0  0  0
  9 23  1  0  0  0  0
  9 24  1  0  0  0  0
  9 25  1  0  0  0  0
 11 26  1  0  0  0  0
 12 27  1  0  0  0  0
M  END
> <id>
EN300-1922939

> <smiles>
CNC(C)(C)C=1C=C(Cl)C=C(Br)C1O

> <IUPAC Name>
2-bromo-4-chloro-6-[2-(methylamino)propan-2-yl]phenol

> <CAS>
2228379-79-9

> <URL>
https://www.enaminestore.com/catalog/EN300-1922939

> <ROCS_ShapeQuery>
_x1604L0AP1_x0771L0AP1

> <ROCS_TanimotoCombo>
0.927 

> <ROCS_ShapeTanimoto>
0.582 

> <ROCS_ColorTanimoto>
0.345 

> <ROCS_RefTversky>
0.507 

> <ROCS_RefColorTversky>
0.419 

> <ROCS_RefTverskyCombo>
0.926 

> <ROCS_FitTversky>
1.340 

> <ROCS_FitColorTversky>
0.663 

> <ROCS_FitTverskyCombo>
2.003 

> <ROCS_ColorScore>
-4.799

> <ROCS_Overlap>
860.650

> <ROCS_Rank>
98                  

$$$$
untitled-dbase-448_19
  -OEChem-06042309053D

 27 27  0     0  0  0  0  0  0999 V2000
   -4.9309   11.2981  -31.7206 C   0  0  0  0  0  0  0  0  0  0  0  0
   -4.5796   12.5509  -29.6849 C   0  0  0  0  0  0  0  0  0  0  0  0
   -5.9262   10.5519  -31.0897 C   0  0  0  0  0  0  0  0  0  0  0  0
   -6.2483   10.8053  -29.7563 C   0  0  0  0  0  0  0  0  0  0  0  0
   -4.2575   12.2976  -31.0182 C   0  0  0  0  0  0  0  0  0  0  0  0
   -5.5750   11.8048  -29.0539 C   0  0  0  0  0  0  0  0  0  0  0  0
   -6.5051    8.0361  -31.2792 C   0  0  0  0  0  0  0  0  0  0  0  0
   -8.1724    9.7682  -31.8858 C   0  0  0  0  0  0  0  0  0  0  0  0
   -6.1679    9.4156  -33.3586 C   0  0  0  0  0  0  0  0  0  0  0  0
   -6.6566    9.4536  -31.8839 C   0  0  0  0  0  0  0  0  0  0  0  0
   -6.7697   10.4193  -34.1982 N   0  0  0  0  0  0  0  0  0  0  0  0
   -7.2244   10.0665  -29.1530 O   0  0  0  0  0  0  0  0  0  0  0  0
   -3.0292   13.2180  -31.7972 Cl  0  0  0  0  0  0  0  0  0  0  0  0
   -5.9843   12.1785  -27.2407 Br  0  0  0  0  0  0  0  0  0  0  0  0
   -4.6830   11.0978  -32.7608 H   0  0  0  0  0  0  0  0  0  0  0  0
   -4.0518   13.3309  -29.1405 H   0  0  0  0  0  0  0  0  0  0  0  0
   -7.0345    7.2766  -31.8647 H   0  0  0  0  0  0  0  0  0  0  0  0
   -5.4519    7.7366  -31.2198 H   0  0  0  0  0  0  0  0  0  0  0  0
   -6.9073    7.9978  -30.2598 H   0  0  0  0  0  0  0  0  0  0  0  0
   -8.7502    9.0189  -32.4382 H   0  0  0  0  0  0  0  0  0  0  0  0
   -8.3739   10.7428  -32.3464 H   0  0  0  0  0  0  0  0  0  0  0  0
   -8.5718    9.7927  -30.8650 H   0  0  0  0  0  0  0  0  0  0  0  0
   -5.0835    9.5665  -33.4133 H   0  0  0  0  0  0  0  0  0  0  0  0
   -6.3785    8.4484  -33.8280 H   0  0  0  0  0  0  0  0  0  0  0  0
   -6.5186   11.3258  -33.8618 H   0  0  0  0  0  0  0  0  0  0  0  0
   -6.4416   10.3062  -35.1349 H   0  0  0  0  0  0  0  0  0  0  0  0
   -7.3379   10.3526  -28.2339 H   0  0  0  0  0  0  0  0  0  0  0  0
  1  3  2  0  0  0  0
  1  5  1  0  0  0  0
  2  5  2  0  0  0  0
  2  6  1  0  0  0  0
  3  4  1  0  0  0  0
  3 10  1  0  0  0  0
  4  6  2  0  0  0  0
  4 12  1  0  0  0  0
  5 13  1  0  0  0  0
  6 14  1  0  0  0  0
  7 10  1  0  0  0  0
  8 10  1  0  0  0  0
  9 10  1  0  0  0  0
  9 11  1  0  0  0  0
  1 15  1  0  0  0  0
  2 16  1  0  0  0  0
  7 17  1  0  0  0  0
  7 18  1  0  0  0  0
  7 19  1  0  0  0  0
  8 20  1  0  0  0  0
  8 21  1  0  0  0  0
  8 22  1  0  0  0  0
  9 23  1  0  0  0  0
  9 24  1  0  0  0  0
 11 25  1  0  0  0  0
 11 26  1  0  0  0  0
 12 27  1  0  0  0  0
M  END
> <id>
EN300-1922601

> <smiles>
CC(C)(CN)C=1C=C(Cl)C=C(Br)C1O

> <IUPAC Name>
2-(1-amino-2-methylpropan-2-yl)-6-bromo-4-chlorophenol

> <CAS>
2228872-78-2

> <URL>
https://www.enaminestore.com/catalog/EN300-1922601

> <ROCS_ShapeQuery>
_x1604L0AP1_x0771L0AP1

> <ROCS_TanimotoCombo>
0.927 

> <ROCS_ShapeTanimoto>
0.582 

> <ROCS_ColorTanimoto>
0.345 

> <ROCS_RefTversky>
0.506 

> <ROCS_RefColorTversky>
0.418 

> <ROCS_RefTverskyCombo>
0.924 

> <ROCS_FitTversky>
1.348 

> <ROCS_FitColorTversky>
0.663 

> <ROCS_FitTverskyCombo>
2.011 

> <ROCS_ColorScore>
-4.797

> <ROCS_Overlap>
858.232

> <ROCS_Rank>
99                  

$$$$
untitled-dbase-1279_6
  -OEChem-06042309053D

 24 24  0     1  0  0  0  0  0999 V2000
   -5.1303   11.4066  -31.8244 C   0  0  0  0  0  0  0  0  0  0  0  0
   -4.4332   12.3453  -29.7102 C   0  0  0  0  0  0  0  0  0  0  0  0
   -6.1146   10.6653  -31.1708 C   0  0  0  0  0  0  0  0  0  0  0  0
   -6.2582   10.7641  -29.7869 C   0  0  0  0  0  0  0  0  0  0  0  0
   -4.2896   12.2466  -31.0941 C   0  0  0  0  0  0  0  0  0  0  0  0
   -5.4175   11.6040  -29.0565 C   0  0  0  0  0  0  0  0  0  0  0  0
   -6.2588    8.6803  -32.7631 C   0  0  0  0  0  0  0  0  0  0  0  0
   -7.1899    7.7207  -33.5089 C   0  0  0  0  0  0  0  0  0  0  0  0
   -7.0135    9.7627  -31.9803 C   0  0  2  0  0  0  0  0  0  0  0  0
   -6.4094    6.7136  -34.2197 N   0  0  0  0  0  0  0  0  0  0  0  0
   -7.2259   10.0322  -29.1618 O   0  0  0  0  0  0  0  0  0  0  0  0
   -7.7985   10.4467  -32.8661 F   0  0  0  0  0  0  0  0  0  0  0  0
   -3.0750   13.1610  -31.9011 Cl  0  0  0  0  0  0  0  0  0  0  0  0
   -5.5817   11.7648  -27.1745 Br  0  0  0  0  0  0  0  0  0  0  0  0
   -5.0218   11.3272  -32.9041 H   0  0  0  0  0  0  0  0  0  0  0  0
   -3.7753   13.0012  -29.1443 H   0  0  0  0  0  0  0  0  0  0  0  0
   -5.5542    9.1411  -33.4668 H   0  0  0  0  0  0  0  0  0  0  0  0
   -5.6639    8.0998  -32.0457 H   0  0  0  0  0  0  0  0  0  0  0  0
   -7.8090    8.2634  -34.2306 H   0  0  0  0  0  0  0  0  0  0  0  0
   -7.8597    7.2183  -32.8031 H   0  0  0  0  0  0  0  0  0  0  0  0
   -7.7097    9.2753  -31.2872 H   0  0  0  0  0  0  0  0  0  0  0  0
   -7.0389    6.0923  -34.6711 H   0  0  0  0  0  0  0  0  0  0  0  0
   -5.8368    7.1764  -34.8860 H   0  0  0  0  0  0  0  0  0  0  0  0
   -7.2070   10.2017  -28.2077 H   0  0  0  0  0  0  0  0  0  0  0  0
  1  3  2  0  0  0  0
  1  5  1  0  0  0  0
  2  5  2  0  0  0  0
  2  6  1  0  0  0  0
  3  4  1  0  0  0  0
  3  9  1  0  0  0  0
  4  6  2  0  0  0  0
  4 11  1  0  0  0  0
  5 13  1  0  0  0  0
  6 14  1  0  0  0  0
  7  8  1  0  0  0  0
  7  9  1  0  0  0  0
  8 10  1  0  0  0  0
  9 12  1  0  0  0  0
  1 15  1  0  0  0  0
  2 16  1  0  0  0  0
  7 17  1  0  0  0  0
  7 18  1  0  0  0  0
  8 19  1  0  0  0  0
  8 20  1  0  0  0  0
  9 21  1  0  0  0  0
 10 22  1  0  0  0  0
 10 23  1  0  0  0  0
 11 24  1  0  0  0  0
M  END
> <id>
EN300-1922901

> <smiles>
NCCC(F)C=1C=C(Cl)C=C(Br)C1O

> <IUPAC Name>
2-(3-amino-1-fluoropropyl)-6-bromo-4-chlorophenol

> <CAS>
2228514-23-4

> <URL>
https://www.enaminestore.com/catalog/EN300-1922901

> <ROCS_ShapeQuery>
_x1604L0AP1_x0771L0AP1

> <ROCS_TanimotoCombo>
0.927 

> <ROCS_ShapeTanimoto>
0.564 

> <ROCS_ColorTanimoto>
0.363 

> <ROCS_RefTversky>
0.495 

> <ROCS_RefColorTversky>
0.413 

> <ROCS_RefTverskyCombo>
0.908 

> <ROCS_FitTversky>
1.325 

> <ROCS_FitColorTversky>
0.750 

> <ROCS_FitTverskyCombo>
2.075 

> <ROCS_ColorScore>
-4.715

> <ROCS_Overlap>
839.958

> <ROCS_Rank>
100                 

$$$$
untitled-dbase-1440_400
  -OEChem-06042309053D

 29 29  0     1  0  0  0  0  0999 V2000
   -4.6193   12.5002  -29.8158 C   0  0  0  0  0  0  0  0  0  0  0  0
   -5.0724   11.1655  -31.7779 C   0  0  0  0  0  0  0  0  0  0  0  0
   -4.3596   12.1868  -31.1499 C   0  0  0  0  0  0  0  0  0  0  0  0
   -5.5918   11.7922  -29.1095 C   0  0  0  0  0  0  0  0  0  0  0  0
   -6.3046   10.7709  -29.7375 C   0  0  0  0  0  0  0  0  0  0  0  0
   -6.0450   10.4575  -31.0717 C   0  0  0  0  0  0  0  0  0  0  0  0
   -2.6968   12.1031  -33.0364 C   0  0  0  0  0  0  0  0  0  0  0  0
   -5.0606   13.1673  -27.2434 C   0  0  0  0  0  0  0  0  0  0  0  0
   -2.1996   13.5010  -30.9969 C   0  0  0  0  0  0  0  0  0  0  0  0
   -3.3205   12.9446  -31.9048 C   0  0  2  0  0  0  0  0  0  0  0  0
   -1.5660   15.1974  -29.5488 N   0  0  0  0  0  0  0  0  0  0  0  0
   -7.2526   10.0905  -29.0304 O   0  0  0  0  0  0  0  0  0  0  0  0
   -5.8345   12.1104  -27.8072 O   0  0  0  0  0  0  0  0  0  0  0  0
   -2.6457   14.7092  -30.3911 O   0  0  0  0  0  0  0  0  0  0  0  0
   -6.9932    9.0763  -31.9590 Br  0  0  0  0  0  0  0  0  0  0  0  0
   -4.0651   13.2962  -29.3241 H   0  0  0  0  0  0  0  0  0  0  0  0
   -4.8630   10.9287  -32.8188 H   0  0  0  0  0  0  0  0  0  0  0  0
   -2.2065   11.2044  -32.6463 H   0  0  0  0  0  0  0  0  0  0  0  0
   -3.4520   11.7805  -33.7613 H   0  0  0  0  0  0  0  0  0  0  0  0
   -1.9430   12.6873  -33.5760 H   0  0  0  0  0  0  0  0  0  0  0  0
   -5.3535   13.3186  -26.2015 H   0  0  0  0  0  0  0  0  0  0  0  0
   -5.2230   14.0843  -27.8155 H   0  0  0  0  0  0  0  0  0  0  0  0
   -4.0032   12.8958  -27.2864 H   0  0  0  0  0  0  0  0  0  0  0  0
   -1.2981   13.7328  -31.5742 H   0  0  0  0  0  0  0  0  0  0  0  0
   -1.9290   12.7932  -30.2065 H   0  0  0  0  0  0  0  0  0  0  0  0
   -3.7874   13.8222  -32.3943 H   0  0  0  0  0  0  0  0  0  0  0  0
   -2.0530   15.2882  -28.6584 H   0  0  0  0  0  0  0  0  0  0  0  0
   -1.4560   16.1408  -29.9174 H   0  0  0  0  0  0  0  0  0  0  0  0
   -7.3039   10.4346  -28.1256 H   0  0  0  0  0  0  0  0  0  0  0  0
  1  3  1  0  0  0  0
  1  4  2  0  0  0  0
  2  3  2  0  0  0  0
  2  6  1  0  0  0  0
  3 10  1  0  0  0  0
  4  5  1  0  0  0  0
  4 13  1  0  0  0  0
  5  6  2  0  0  0  0
  5 12  1  0  0  0  0
  6 15  1  0  0  0  0
  7 10  1  0  0  0  0
  8 13  1  0  0  0  0
  9 10  1  0  0  0  0
  9 14  1  0  0  0  0
 11 14  1  0  0  0  0
  1 16  1  0  0  0  0
  2 17  1  0  0  0  0
  7 18  1  0  0  0  0
  7 19  1  0  0  0  0
  7 20  1  0  0  0  0
  8 21  1  0  0  0  0
  8 22  1  0  0  0  0
  8 23  1  0  0  0  0
  9 24  1  0  0  0  0
  9 25  1  0  0  0  0
 10 26  1  0  0  0  0
 11 27  1  0  0  0  0
 11 28  1  0  0  0  0
 12 29  1  0  0  0  0
M  END
> <id>
EN300-1927002

> <smiles>
COC=1C=C(C=C(Br)C1O)C(C)CON

> <IUPAC Name>
4-[1-(aminooxy)propan-2-yl]-2-bromo-6-methoxyphenol

> <CAS>
2229368-29-8

> <URL>
https://www.enaminestore.com/catalog/EN300-1927002

> <ROCS_ShapeQuery>
_x1604L0AP1_x0771L0AP1

> <ROCS_TanimotoCombo>
0.927 

> <ROCS_ShapeTanimoto>
0.544 

> <ROCS_ColorTanimoto>
0.382 

> <ROCS_RefTversky>
0.494 

> <ROCS_RefColorTversky>
0.429 

> <ROCS_RefTverskyCombo>
0.923 

> <ROCS_FitTversky>
1.229 

> <ROCS_FitColorTversky>
0.779 

> <ROCS_FitTverskyCombo>
2.008 

> <ROCS_ColorScore>
-4.897

> <ROCS_Overlap>
839.548

> <ROCS_Rank>
101                 

$$$$
untitled-dbase-1222_141
  -OEChem-06042309053D

 26 27  0     0  0  0  0  0  0999 V2000
   -4.6113   12.4920  -29.8400 C   0  0  0  0  0  0  0  0  0  0  0  0
   -5.5842   11.7893  -29.1292 C   0  0  0  0  0  0  0  0  0  0  0  0
   -5.0725   11.1516  -31.7965 C   0  0  0  0  0  0  0  0  0  0  0  0
   -4.3555   12.1732  -31.1736 C   0  0  0  0  0  0  0  0  0  0  0  0
   -6.3013   10.7677  -29.7520 C   0  0  0  0  0  0  0  0  0  0  0  0
   -6.0454   10.4489  -31.0857 C   0  0  0  0  0  0  0  0  0  0  0  0
   -1.8937   12.3944  -31.9041 C   0  0  0  0  0  0  0  0  0  0  0  0
   -2.2339   13.6358  -31.1402 C   0  0  0  0  0  0  0  0  0  0  0  0
   -3.3160   12.9244  -31.9324 C   0  0  0  0  0  0  0  0  0  0  0  0
   -3.7981   13.5723  -33.2006 C   0  0  0  0  0  0  0  0  0  0  0  0
   -3.1453   11.9606  -34.7345 N   0  0  0  0  0  0  0  0  0  0  0  0
   -7.2450   10.1001  -29.0295 O   0  0  0  0  0  0  0  0  0  0  0  0
   -4.2927   12.5722  -34.0840 O   0  0  0  0  0  0  0  0  0  0  0  0
   -7.0002    9.0670  -31.9641 Br  0  0  0  0  0  0  0  0  0  0  0  0
   -4.0580   13.2862  -29.3457 H   0  0  0  0  0  0  0  0  0  0  0  0
   -5.7781   12.0430  -28.0905 H   0  0  0  0  0  0  0  0  0  0  0  0
   -4.8668   10.9093  -32.8368 H   0  0  0  0  0  0  0  0  0  0  0  0
   -1.2832   12.5017  -32.7932 H   0  0  0  0  0  0  0  0  0  0  0  0
   -1.6833   11.4958  -31.3355 H   0  0  0  0  0  0  0  0  0  0  0  0
   -2.2505   13.5706  -30.0583 H   0  0  0  0  0  0  0  0  0  0  0  0
   -1.8532   14.5788  -31.5154 H   0  0  0  0  0  0  0  0  0  0  0  0
   -2.9824   14.1061  -33.7053 H   0  0  0  0  0  0  0  0  0  0  0  0
   -4.6084   14.2842  -32.9964 H   0  0  0  0  0  0  0  0  0  0  0  0
   -3.3998   12.0849  -35.7132 H   0  0  0  0  0  0  0  0  0  0  0  0
   -3.3088   10.9795  -34.5139 H   0  0  0  0  0  0  0  0  0  0  0  0
   -7.6663    9.4200  -29.5776 H   0  0  0  0  0  0  0  0  0  0  0  0
  1  2  1  0  0  0  0
  1  4  2  0  0  0  0
  2  5  2  0  0  0  0
  3  4  1  0  0  0  0
  3  6  2  0  0  0  0
  4  9  1  0  0  0  0
  5  6  1  0  0  0  0
  5 12  1  0  0  0  0
  6 14  1  0  0  0  0
  7  8  1  0  0  0  0
  7  9  1  0  0  0  0
  8  9  1  0  0  0  0
  9 10  1  0  0  0  0
 10 13  1  0  0  0  0
 11 13  1  0  0  0  0
  1 15  1  0  0  0  0
  2 16  1  0  0  0  0
  3 17  1  0  0  0  0
  7 18  1  0  0  0  0
  7 19  1  0  0  0  0
  8 20  1  0  0  0  0
  8 21  1  0  0  0  0
 10 22  1  0  0  0  0
 10 23  1  0  0  0  0
 11 24  1  0  0  0  0
 11 25  1  0  0  0  0
 12 26  1  0  0  0  0
M  END
> <id>
EN300-1906344

> <smiles>
NOCC1(CC1)C=2C=CC(O)=C(Br)C2

> <IUPAC Name>
4-{1-[(aminooxy)methyl]cyclopropyl}-2-bromophenol

> <CAS>
2229616-29-7

> <URL>
https://www.enaminestore.com/catalog/EN300-1906344

> <ROCS_ShapeQuery>
_x1604L0AP1_x0771L0AP1

> <ROCS_TanimotoCombo>
0.926 

> <ROCS_ShapeTanimoto>
0.476 

> <ROCS_ColorTanimoto>
0.451 

> <ROCS_RefTversky>
0.446 

> <ROCS_RefColorTversky>
0.431 

> <ROCS_RefTverskyCombo>
0.877 

> <ROCS_FitTversky>
1.161 

> <ROCS_FitColorTversky>
1.112 

> <ROCS_FitTverskyCombo>
2.273 

> <ROCS_ColorScore>
-4.878

> <ROCS_Overlap>
757.494

> <ROCS_Rank>
102                 

$$$$
untitled-dbase-2114_11
  -OEChem-06042309053D

 27 27  0     1  0  0  0  0  0999 V2000
   -5.1193   11.4440  -31.8045 C   0  0  0  0  0  0  0  0  0  0  0  0
   -4.4406   12.3582  -29.6736 C   0  0  0  0  0  0  0  0  0  0  0  0
   -6.1042   10.6895  -31.1672 C   0  0  0  0  0  0  0  0  0  0  0  0
   -6.2573   10.7693  -29.7830 C   0  0  0  0  0  0  0  0  0  0  0  0
   -4.2875   12.2784  -31.0577 C   0  0  0  0  0  0  0  0  0  0  0  0
   -5.4256   11.6037  -29.0362 C   0  0  0  0  0  0  0  0  0  0  0  0
   -7.5866    8.7020  -34.9772 C   0  0  0  0  0  0  0  0  0  0  0  0
   -6.9925    9.7940  -31.9935 C   0  0  0  0  0  0  0  0  0  0  0  0
   -6.2253    8.7826  -32.8584 C   0  0  0  0  0  0  0  0  0  0  0  0
   -7.1150    7.9110  -33.7603 C   0  0  2  0  0  0  0  0  0  0  0  0
   -6.4199    6.7214  -34.1920 N   0  0  0  0  0  0  0  0  0  0  0  0
   -7.2255   10.0247  -29.1741 O   0  0  0  0  0  0  0  0  0  0  0  0
   -3.0721   13.2091  -31.8447 Cl  0  0  0  0  0  0  0  0  0  0  0  0
   -5.6028   11.7389  -27.1534 Br  0  0  0  0  0  0  0  0  0  0  0  0
   -5.0034   11.3793  -32.8844 H   0  0  0  0  0  0  0  0  0  0  0  0
   -3.7896   13.0097  -29.0948 H   0  0  0  0  0  0  0  0  0  0  0  0
   -6.7385    9.0634  -35.5695 H   0  0  0  0  0  0  0  0  0  0  0  0
   -8.2194    8.0858  -35.6240 H   0  0  0  0  0  0  0  0  0  0  0  0
   -8.1689    9.5774  -34.6692 H   0  0  0  0  0  0  0  0  0  0  0  0
   -7.7098    9.2723  -31.3482 H   0  0  0  0  0  0  0  0  0  0  0  0
   -7.6011   10.4308  -32.6491 H   0  0  0  0  0  0  0  0  0  0  0  0
   -5.6209    8.1336  -32.2120 H   0  0  0  0  0  0  0  0  0  0  0  0
   -5.5189    9.3439  -33.4843 H   0  0  0  0  0  0  0  0  0  0  0  0
   -7.9974    7.5745  -33.2057 H   0  0  0  0  0  0  0  0  0  0  0  0
   -6.1577    6.1870  -33.3912 H   0  0  0  0  0  0  0  0  0  0  0  0
   -7.0250    6.1829  -34.7747 H   0  0  0  0  0  0  0  0  0  0  0  0
   -7.2136   10.1817  -28.2177 H   0  0  0  0  0  0  0  0  0  0  0  0
  1  3  2  0  0  0  0
  1  5  1  0  0  0  0
  2  5  2  0  0  0  0
  2  6  1  0  0  0  0
  3  4  1  0  0  0  0
  3  8  1  0  0  0  0
  4  6  2  0  0  0  0
  4 12  1  0  0  0  0
  5 13  1  0  0  0  0
  6 14  1  0  0  0  0
  7 10  1  1  0  0  0
  8  9  1  0  0  0  0
  9 10  1  0  0  0  0
 10 11  1  0  0  0  0
  1 15  1  0  0  0  0
  2 16  1  0  0  0  0
  7 17  1  0  0  0  0
  7 18  1  0  0  0  0
  7 19  1  0  0  0  0
  8 20  1  0  0  0  0
  8 21  1  0  0  0  0
  9 22  1  0  0  0  0
  9 23  1  0  0  0  0
 10 24  1  0  0  0  0
 11 25  1  0  0  0  0
 11 26  1  0  0  0  0
 12 27  1  0  0  0  0
M  END
> <id>
EN300-1922589

> <smiles>
C[C@@H](N)CCC=1C=C(Cl)C=C(Br)C1O

> <IUPAC Name>
2-[(3R)-3-aminobutyl]-6-bromo-4-chlorophenol

> <CAS>
2227916-57-4

> <URL>
https://www.enaminestore.com/catalog/EN300-1922589

> <ROCS_ShapeQuery>
_x1604L0AP1_x0771L0AP1

> <ROCS_TanimotoCombo>
0.926 

> <ROCS_ShapeTanimoto>
0.567 

> <ROCS_ColorTanimoto>
0.360 

> <ROCS_RefTversky>
0.496 

> <ROCS_RefColorTversky>
0.410 

> <ROCS_RefTverskyCombo>
0.906 

> <ROCS_FitTversky>
1.336 

> <ROCS_FitColorTversky>
0.745 

> <ROCS_FitTverskyCombo>
2.081 

> <ROCS_ColorScore>
-4.684

> <ROCS_Overlap>
841.257

> <ROCS_Rank>
103                 

$$$$
untitled-dbase-1269_169
  -OEChem-06042309053D

 22 22  0     0  0  0  0  0  0999 V2000
   -4.5565   12.4399  -29.8073 C   0  0  0  0  0  0  0  0  0  0  0  0
   -5.5516   11.7561  -29.1090 C   0  0  0  0  0  0  0  0  0  0  0  0
   -5.0305   11.1206  -31.7749 C   0  0  0  0  0  0  0  0  0  0  0  0
   -4.2960   12.1222  -31.1403 C   0  0  0  0  0  0  0  0  0  0  0  0
   -6.2862   10.7545  -29.7436 C   0  0  0  0  0  0  0  0  0  0  0  0
   -6.0256   10.4367  -31.0766 C   0  0  0  0  0  0  0  0  0  0  0  0
   -3.2316   12.8539  -31.8858 C   0  0  0  0  0  0  0  0  0  0  0  0
   -3.0365   14.2920  -31.4010 C   0  0  0  0  0  0  0  0  0  0  0  0
   -4.8699   14.6064  -32.7852 N   0  0  0  0  0  0  0  0  0  0  0  0
   -7.2506   10.1040  -29.0329 O   0  0  0  0  0  0  0  0  0  0  0  0
   -4.2576   15.0091  -31.5291 O   0  0  0  0  0  0  0  0  0  0  0  0
   -7.0030    9.0805  -31.9700 Br  0  0  0  0  0  0  0  0  0  0  0  0
   -3.9896   13.2187  -29.3037 H   0  0  0  0  0  0  0  0  0  0  0  0
   -5.7490   12.0092  -28.0706 H   0  0  0  0  0  0  0  0  0  0  0  0
   -4.8208   10.8799  -32.8149 H   0  0  0  0  0  0  0  0  0  0  0  0
   -2.2751   12.3139  -31.8065 H   0  0  0  0  0  0  0  0  0  0  0  0
   -3.4813   12.8774  -32.9577 H   0  0  0  0  0  0  0  0  0  0  0  0
   -2.7538   14.2980  -30.3433 H   0  0  0  0  0  0  0  0  0  0  0  0
   -2.2611   14.8094  -31.9755 H   0  0  0  0  0  0  0  0  0  0  0  0
   -4.9986   15.5150  -33.2281 H   0  0  0  0  0  0  0  0  0  0  0  0
   -5.7879   14.3103  -32.4574 H   0  0  0  0  0  0  0  0  0  0  0  0
   -7.6824    9.4366  -29.5886 H   0  0  0  0  0  0  0  0  0  0  0  0
  1  2  1  0  0  0  0
  1  4  2  0  0  0  0
  2  5  2  0  0  0  0
  3  4  1  0  0  0  0
  3  6  2  0  0  0  0
  4  7  1  0  0  0  0
  5  6  1  0  0  0  0
  5 10  1  0  0  0  0
  6 12  1  0  0  0  0
  7  8  1  0  0  0  0
  8 11  1  0  0  0  0
  9 11  1  0  0  0  0
  1 13  1  0  0  0  0
  2 14  1  0  0  0  0
  3 15  1  0  0  0  0
  7 16  1  0  0  0  0
  7 17  1  0  0  0  0
  8 18  1  0  0  0  0
  8 19  1  0  0  0  0
  9 20  1  0  0  0  0
  9 21  1  0  0  0  0
 10 22  1  0  0  0  0
M  END
> <id>
EN300-1906339

> <smiles>
NOCCC=1C=CC(O)=C(Br)C1

> <IUPAC Name>
4-[2-(aminooxy)ethyl]-2-bromophenol

> <CAS>
1891556-17-4

> <URL>
https://www.enaminestore.com/catalog/EN300-1906339

> <ROCS_ShapeQuery>
_x1604L0AP1_x0771L0AP1

> <ROCS_TanimotoCombo>
0.926 

> <ROCS_ShapeTanimoto>
0.476 

> <ROCS_ColorTanimoto>
0.451 

> <ROCS_RefTversky>
0.429 

> <ROCS_RefColorTversky>
0.431 

> <ROCS_RefTverskyCombo>
0.860 

> <ROCS_FitTversky>
1.300 

> <ROCS_FitColorTversky>
1.112 

> <ROCS_FitTverskyCombo>
2.412 

> <ROCS_ColorScore>
-4.877

> <ROCS_Overlap>
725.468

> <ROCS_Rank>
104                 

$$$$
untitled-dbase-1481_0
  -OEChem-06042309053D

 16 16  0     0  0  0  0  0  0999 V2000
   -5.5730   11.7818  -29.1279 C   0  0  0  0  0  0  0  0  0  0  0  0
   -4.5990   12.4870  -29.8348 C   0  0  0  0  0  0  0  0  0  0  0  0
   -5.0652   11.1611  -31.7999 C   0  0  0  0  0  0  0  0  0  0  0  0
   -6.2930   10.7661  -29.7570 C   0  0  0  0  0  0  0  0  0  0  0  0
   -4.3452   12.1767  -31.1708 C   0  0  0  0  0  0  0  0  0  0  0  0
   -6.0391   10.4558  -31.0930 C   0  0  0  0  0  0  0  0  0  0  0  0
   -4.7583   10.8642  -33.2328 C   0  0  0  0  0  0  0  0  0  0  0  0
   -7.2371   10.0989  -29.0342 O   0  0  0  0  0  0  0  0  0  0  0  0
   -3.4073   12.8616  -31.8402 F   0  0  0  0  0  0  0  0  0  0  0  0
   -3.7773   11.6564  -33.7542 F   0  0  0  0  0  0  0  0  0  0  0  0
   -4.3362    9.5839  -33.4437 F   0  0  0  0  0  0  0  0  0  0  0  0
   -5.8408   11.0347  -34.0440 F   0  0  0  0  0  0  0  0  0  0  0  0
   -7.0268    9.0682  -31.9413 Br  0  0  0  0  0  0  0  0  0  0  0  0
   -5.7655   12.0298  -28.0875 H   0  0  0  0  0  0  0  0  0  0  0  0
   -4.0382   13.2778  -29.3453 H   0  0  0  0  0  0  0  0  0  0  0  0
   -7.6623    9.4226  -29.5839 H   0  0  0  0  0  0  0  0  0  0  0  0
  1  2  1  0  0  0  0
  1  4  2  0  0  0  0
  2  5  2  0  0  0  0
  3  5  1  0  0  0  0
  3  6  2  0  0  0  0
  3  7  1  0  0  0  0
  4  6  1  0  0  0  0
  4  8  1  0  0  0  0
  5  9  1  0  0  0  0
  6 13  1  0  0  0  0
  7 10  1  0  0  0  0
  7 11  1  0  0  0  0
  7 12  1  0  0  0  0
  1 14  1  0  0  0  0
  2 15  1  0  0  0  0
  8 16  1  0  0  0  0
M  END
> <id>
EN300-7504014

> <smiles>
OC=1C=CC(F)=C(C1Br)C(F)(F)F

> <MDLNUMBER>
MFCD28739058

> <IUPAC Name>
2-bromo-4-fluoro-3-(trifluoromethyl)phenol

> <CAS>
1805498-52-5

> <Purity>
95

> <URL>
https://www.enaminestore.com/catalog/EN300-7504014

> <ROCS_ShapeQuery>
_x1604L0AP1_x0771L0AP1

> <ROCS_TanimotoCombo>
0.926 

> <ROCS_ShapeTanimoto>
0.474 

> <ROCS_ColorTanimoto>
0.451 

> <ROCS_RefTversky>
0.442 

> <ROCS_RefColorTversky>
0.431 

> <ROCS_RefTverskyCombo>
0.874 

> <ROCS_FitTversky>
1.180 

> <ROCS_FitColorTversky>
1.113 

> <ROCS_FitTverskyCombo>
2.294 

> <ROCS_ColorScore>
-4.883

> <ROCS_Overlap>
750.504

> <ROCS_Rank>
105                 

$$$$
untitled-dbase-1462_0
  -OEChem-06042309053D

 19 19  0     0  0  0  0  0  0999 V2000
   -4.3588   12.1500  -31.2234 C   0  0  0  0  0  0  0  0  0  0  0  0
   -5.0852   11.1251  -31.8296 C   0  0  0  0  0  0  0  0  0  0  0  0
   -5.5700   11.7903  -29.1641 C   0  0  0  0  0  0  0  0  0  0  0  0
   -4.6012   12.4826  -29.8906 C   0  0  0  0  0  0  0  0  0  0  0  0
   -6.2964   10.7654  -29.7703 C   0  0  0  0  0  0  0  0  0  0  0  0
   -6.0540   10.4328  -31.1031 C   0  0  0  0  0  0  0  0  0  0  0  0
   -3.8429   13.5505  -29.2584 C   0  0  0  0  0  0  0  0  0  0  0  0
   -2.1312   15.1735  -29.6163 C   0  0  0  0  0  0  0  0  0  0  0  0
   -3.9899   13.9131  -28.0837 O   0  0  0  0  0  0  0  0  0  0  0  0
   -7.2360   10.1079  -29.0331 O   0  0  0  0  0  0  0  0  0  0  0  0
   -2.9416   14.1080  -30.1238 O   0  0  0  0  0  0  0  0  0  0  0  0
   -7.0218    9.0468  -31.9601 Br  0  0  0  0  0  0  0  0  0  0  0  0
   -3.6059   12.6827  -31.7986 H   0  0  0  0  0  0  0  0  0  0  0  0
   -4.8829   10.8796  -32.8691 H   0  0  0  0  0  0  0  0  0  0  0  0
   -5.7613   12.0468  -28.1246 H   0  0  0  0  0  0  0  0  0  0  0  0
   -1.4593   15.5273  -30.4021 H   0  0  0  0  0  0  0  0  0  0  0  0
   -1.5524   14.8165  -28.7607 H   0  0  0  0  0  0  0  0  0  0  0  0
   -2.7799   15.9931  -29.2983 H   0  0  0  0  0  0  0  0  0  0  0  0
   -7.6644    9.4242  -29.5710 H   0  0  0  0  0  0  0  0  0  0  0  0
  1  2  1  0  0  0  0
  1  4  2  0  0  0  0
  2  6  2  0  0  0  0
  3  4  1  0  0  0  0
  3  5  2  0  0  0  0
  4  7  1  0  0  0  0
  5  6  1  0  0  0  0
  5 10  1  0  0  0  0
  6 12  1  0  0  0  0
  7  9  2  0  0  0  0
  7 11  1  0  0  0  0
  8 11  1  0  0  0  0
  1 13  1  0  0  0  0
  2 14  1  0  0  0  0
  3 15  1  0  0  0  0
  8 16  1  0  0  0  0
  8 17  1  0  0  0  0
  8 18  1  0  0  0  0
 10 19  1  0  0  0  0
M  END
> <id>
EN300-198690

> <smiles>
COC(=O)C=1C=CC(Br)=C(O)C1

> <MDLNUMBER>
MFCD08056372

> <IUPAC Name>
methyl 4-bromo-3-hydroxybenzoate

> <CAS>
106291-80-9

> <Purity>
95

> <URL>
https://www.enaminestore.com/catalog/EN300-198690

> <MP>
121-123

> <ROCS_ShapeQuery>
_x1604L0AP1_x0771L0AP1

> <ROCS_TanimotoCombo>
0.926 

> <ROCS_ShapeTanimoto>
0.513 

> <ROCS_ColorTanimoto>
0.413 

> <ROCS_RefTversky>
0.454 

> <ROCS_RefColorTversky>
0.429 

> <ROCS_RefTverskyCombo>
0.883 

> <ROCS_FitTversky>
1.338 

> <ROCS_FitColorTversky>
0.914 

> <ROCS_FitTverskyCombo>
2.252 

> <ROCS_ColorScore>
-4.878

> <ROCS_Overlap>
769.184

> <ROCS_Rank>
106                 

$$$$
untitled-dbase-87_21
  -OEChem-06042309053D

 17 17  0     0  0  0  0  0  0999 V2000
   -4.6036   12.4855  -29.8660 C   0  0  0  0  0  0  0  0  0  0  0  0
   -5.5727   11.7859  -29.1470 C   0  0  0  0  0  0  0  0  0  0  0  0
   -4.3575   12.1635  -31.2007 C   0  0  0  0  0  0  0  0  0  0  0  0
   -6.2958   10.7643  -29.7627 C   0  0  0  0  0  0  0  0  0  0  0  0
   -5.0806   11.1419  -31.8164 C   0  0  0  0  0  0  0  0  0  0  0  0
   -6.0498   10.4423  -31.0975 C   0  0  0  0  0  0  0  0  0  0  0  0
   -5.8677   10.9819  -34.0675 C   0  0  0  0  0  0  0  0  0  0  0  0
   -7.2354   10.1022  -29.0294 O   0  0  0  0  0  0  0  0  0  0  0  0
   -4.8131   10.8544  -33.1221 O   0  0  0  0  0  0  0  0  0  0  0  0
   -7.0091   11.3872  -33.4715 F   0  0  0  0  0  0  0  0  0  0  0  0
   -6.0971    9.7723  -34.6273 F   0  0  0  0  0  0  0  0  0  0  0  0
   -5.5354   11.8404  -35.0548 F   0  0  0  0  0  0  0  0  0  0  0  0
   -7.0356    9.0495  -31.9370 Br  0  0  0  0  0  0  0  0  0  0  0  0
   -4.0405   13.2809  -29.3865 H   0  0  0  0  0  0  0  0  0  0  0  0
   -5.7590   12.0425  -28.1076 H   0  0  0  0  0  0  0  0  0  0  0  0
   -3.6008   12.7129  -31.7543 H   0  0  0  0  0  0  0  0  0  0  0  0
   -7.6629    9.4211  -29.5712 H   0  0  0  0  0  0  0  0  0  0  0  0
  1  2  1  0  0  0  0
  1  3  2  0  0  0  0
  2  4  2  0  0  0  0
  3  5  1  0  0  0  0
  4  6  1  0  0  0  0
  4  8  1  0  0  0  0
  5  6  2  0  0  0  0
  5  9  1  0  0  0  0
  6 13  1  0  0  0  0
  7  9  1  0  0  0  0
  7 10  1  0  0  0  0
  7 11  1  0  0  0  0
  7 12  1  0  0  0  0
  1 14  1  0  0  0  0
  2 15  1  0  0  0  0
  3 16  1  0  0  0  0
  8 17  1  0  0  0  0
M  END
> <id>
EN300-256632

> <smiles>
OC=1C=CC=C(OC(F)(F)F)C1Br

> <MDLNUMBER>
MFCD22208541

> <IUPAC Name>
2-bromo-3-(trifluoromethoxy)phenol

> <CAS>
1392059-76-5

> <Purity>
95

> <URL>
https://www.enaminestore.com/catalog/EN300-256632

> <ROCS_ShapeQuery>
_x1604L0AP1_x0771L0AP1

> <ROCS_TanimotoCombo>
0.925 

> <ROCS_ShapeTanimoto>
0.512 

> <ROCS_ColorTanimoto>
0.413 

> <ROCS_RefTversky>
0.465 

> <ROCS_RefColorTversky>
0.429 

> <ROCS_RefTverskyCombo>
0.894 

> <ROCS_FitTversky>
1.249 

> <ROCS_FitColorTversky>
0.915 

> <ROCS_FitTverskyCombo>
2.164 

> <ROCS_ColorScore>
-4.881

> <ROCS_Overlap>
788.439

> <ROCS_Rank>
107                 

$$$$
untitled-dbase-195_2
  -OEChem-06042309053D

 18 18  0     0  0  0  0  0  0999 V2000
   -5.0737   11.1373  -31.8112 C   0  0  0  0  0  0  0  0  0  0  0  0
   -5.5722   11.7876  -29.1445 C   0  0  0  0  0  0  0  0  0  0  0  0
   -4.3496   12.1580  -31.1952 C   0  0  0  0  0  0  0  0  0  0  0  0
   -4.5988   12.4831  -29.8618 C   0  0  0  0  0  0  0  0  0  0  0  0
   -6.2964   10.7669  -29.7606 C   0  0  0  0  0  0  0  0  0  0  0  0
   -6.0471   10.4418  -31.0940 C   0  0  0  0  0  0  0  0  0  0  0  0
   -3.3394   12.8691  -31.9668 C   0  0  0  0  0  0  0  0  0  0  0  0
   -3.8390   13.5728  -29.1785 C   0  0  0  0  0  0  0  0  0  0  0  0
   -2.3295   13.3612  -31.4589 O   0  0  0  0  0  0  0  0  0  0  0  0
   -7.2409   10.1063  -29.0327 O   0  0  0  0  0  0  0  0  0  0  0  0
   -7.0121    9.0612  -31.9629 Br  0  0  0  0  0  0  0  0  0  0  0  0
   -4.8746   10.8880  -32.8515 H   0  0  0  0  0  0  0  0  0  0  0  0
   -5.7690   12.0387  -28.1049 H   0  0  0  0  0  0  0  0  0  0  0  0
   -3.5060   12.9613  -33.0612 H   0  0  0  0  0  0  0  0  0  0  0  0
   -2.9376   13.1675  -28.7049 H   0  0  0  0  0  0  0  0  0  0  0  0
   -3.5403   14.3530  -29.8891 H   0  0  0  0  0  0  0  0  0  0  0  0
   -4.4505   14.0590  -28.4084 H   0  0  0  0  0  0  0  0  0  0  0  0
   -7.6670    9.4262  -29.5769 H   0  0  0  0  0  0  0  0  0  0  0  0
  1  3  2  0  0  0  0
  1  6  1  0  0  0  0
  2  4  2  0  0  0  0
  2  5  1  0  0  0  0
  3  4  1  0  0  0  0
  3  7  1  0  0  0  0
  4  8  1  0  0  0  0
  5  6  2  0  0  0  0
  5 10  1  0  0  0  0
  6 11  1  0  0  0  0
  7  9  2  0  0  0  0
  1 12  1  0  0  0  0
  2 13  1  0  0  0  0
  7 14  1  0  0  0  0
  8 15  1  0  0  0  0
  8 16  1  0  0  0  0
  8 17  1  0  0  0  0
 10 18  1  0  0  0  0
M  END
> <id>
EN300-1276582

> <smiles>
CC=1C=C(O)C(Br)=CC1C=O

> <MDLNUMBER>
MFCD28637640

> <IUPAC Name>
5-bromo-4-hydroxy-2-methylbenzaldehyde

> <CAS>
1232911-14-6

> <URL>
https://www.enaminestore.com/catalog/EN300-1276582

> <ROCS_ShapeQuery>
_x1604L0AP1_x0771L0AP1

> <ROCS_TanimotoCombo>
0.925 

> <ROCS_ShapeTanimoto>
0.513 

> <ROCS_ColorTanimoto>
0.413 

> <ROCS_RefTversky>
0.445 

> <ROCS_RefColorTversky>
0.429 

> <ROCS_RefTverskyCombo>
0.874 

> <ROCS_FitTversky>
1.423 

> <ROCS_FitColorTversky>
0.914 

> <ROCS_FitTverskyCombo>
2.338 

> <ROCS_ColorScore>
-4.879

> <ROCS_Overlap>
752.089

> <ROCS_Rank>
108                 

$$$$
untitled-dbase-391_5
  -OEChem-06042309053D

 21 22  0     0  0  0  0  0  0999 V2000
   -7.1106   10.4807  -34.6068 C   0  0  0  0  0  0  0  0  0  0  0  0
   -6.7113   11.0437  -33.3947 C   0  0  0  0  0  0  0  0  0  0  0  0
   -7.0231    9.1017  -34.7977 C   0  0  0  0  0  0  0  0  0  0  0  0
   -5.3868   11.6876  -29.1631 C   0  0  0  0  0  0  0  0  0  0  0  0
   -6.2242   10.2278  -32.3736 C   0  0  0  0  0  0  0  0  0  0  0  0
   -6.2143   10.7660  -29.8276 C   0  0  0  0  0  0  0  0  0  0  0  0
   -6.5360    8.2858  -33.7766 C   0  0  0  0  0  0  0  0  0  0  0  0
   -6.1366    8.8488  -32.5645 C   0  0  0  0  0  0  0  0  0  0  0  0
   -5.8244   10.8632  -31.1370 C   0  0  0  0  0  0  0  0  0  0  0  0
   -4.5478   12.3090  -29.9967 N   0  0  0  0  0  0  0  0  0  0  0  0
   -7.1662    9.9745  -29.2978 N   0  0  0  0  0  0  0  0  0  0  0  0
   -4.8304   11.7809  -31.2507 O   0  0  0  0  0  0  0  0  0  0  0  0
   -6.4654    6.9429  -34.0026 O   0  0  0  0  0  0  0  0  0  0  0  0
   -5.4757    7.7046  -31.1882 Br  0  0  0  0  0  0  0  0  0  0  0  0
   -7.4892   11.1157  -35.4021 H   0  0  0  0  0  0  0  0  0  0  0  0
   -6.7871   12.1209  -33.2642 H   0  0  0  0  0  0  0  0  0  0  0  0
   -7.3349    8.6705  -35.7450 H   0  0  0  0  0  0  0  0  0  0  0  0
   -5.3547   11.9363  -28.1121 H   0  0  0  0  0  0  0  0  0  0  0  0
   -7.3540    9.9411  -28.2829 H   0  0  0  0  0  0  0  0  0  0  0  0
   -7.6935    9.2911  -29.8645 H   0  0  0  0  0  0  0  0  0  0  0  0
   -6.1126    6.4909  -33.2206 H   0  0  0  0  0  0  0  0  0  0  0  0
  1  2  1  0  0  0  0
  1  3  2  0  0  0  0
  2  5  2  0  0  0  0
  3  7  1  0  0  0  0
  4  6  1  0  0  0  0
  4 10  2  0  0  0  0
  5  8  1  0  0  0  0
  5  9  1  0  0  0  0
  6  9  2  0  0  0  0
  6 11  1  0  0  0  0
  7  8  2  0  0  0  0
  7 13  1  0  0  0  0
  8 14  1  0  0  0  0
  9 12  1  0  0  0  0
 10 12  1  0  0  0  0
  1 15  1  0  0  0  0
  2 16  1  0  0  0  0
  3 17  1  0  0  0  0
  4 18  1  0  0  0  0
 11 19  1  0  0  0  0
 11 20  1  0  0  0  0
 13 21  1  0  0  0  0
M  END
> <id>
EN300-1904648

> <smiles>
NC=1C=NOC1C=2C=CC=C(O)C2Br

> <IUPAC Name>
3-(4-amino-1,2-oxazol-5-yl)-2-bromophenol

> <CAS>
2228321-30-8

> <URL>
https://www.enaminestore.com/catalog/EN300-1904648

> <ROCS_ShapeQuery>
_x1604L0AP1_x0771L0AP1

> <ROCS_TanimotoCombo>
0.925 

> <ROCS_ShapeTanimoto>
0.572 

> <ROCS_ColorTanimoto>
0.353 

> <ROCS_RefTversky>
0.511 

> <ROCS_RefColorTversky>
0.446 

> <ROCS_RefTverskyCombo>
0.957 

> <ROCS_FitTversky>
1.268 

> <ROCS_FitColorTversky>
0.628 

> <ROCS_FitTverskyCombo>
1.895 

> <ROCS_ColorScore>
-5.137

> <ROCS_Overlap>
867.730

> <ROCS_Rank>
109                 

$$$$
untitled-dbase-150_1
  -OEChem-06042309053D

 18 18  0     0  0  0  0  0  0999 V2000
   -5.0636   11.1372  -31.8027 C   0  0  0  0  0  0  0  0  0  0  0  0
   -5.5652   11.7774  -29.1341 C   0  0  0  0  0  0  0  0  0  0  0  0
   -4.3364   12.1518  -31.1803 C   0  0  0  0  0  0  0  0  0  0  0  0
   -6.2925   10.7629  -29.7565 C   0  0  0  0  0  0  0  0  0  0  0  0
   -4.5871   12.4719  -29.8460 C   0  0  0  0  0  0  0  0  0  0  0  0
   -6.0417   10.4428  -31.0908 C   0  0  0  0  0  0  0  0  0  0  0  0
   -3.3235   12.8497  -31.9631 C   0  0  0  0  0  0  0  0  0  0  0  0
   -3.4900   14.3288  -32.1446 C   0  0  0  0  0  0  0  0  0  0  0  0
   -2.3478   12.3135  -32.4878 O   0  0  0  0  0  0  0  0  0  0  0  0
   -7.2412   10.1025  -29.0338 O   0  0  0  0  0  0  0  0  0  0  0  0
   -3.7095   13.7206  -29.0387 Cl  0  0  0  0  0  0  0  0  0  0  0  0
   -7.0111    9.0695  -31.9675 Br  0  0  0  0  0  0  0  0  0  0  0  0
   -4.8641   10.8909  -32.8436 H   0  0  0  0  0  0  0  0  0  0  0  0
   -5.7675   12.0200  -28.0932 H   0  0  0  0  0  0  0  0  0  0  0  0
   -3.0052   14.9337  -31.3620 H   0  0  0  0  0  0  0  0  0  0  0  0
   -4.5438   14.6432  -32.1995 H   0  0  0  0  0  0  0  0  0  0  0  0
   -3.0412   14.7037  -33.0816 H   0  0  0  0  0  0  0  0  0  0  0  0
   -7.6690    9.4269  -29.5824 H   0  0  0  0  0  0  0  0  0  0  0  0
  1  3  2  0  0  0  0
  1  6  1  0  0  0  0
  2  4  1  0  0  0  0
  2  5  2  0  0  0  0
  3  5  1  0  0  0  0
  3  7  1  0  0  0  0
  4  6  2  0  0  0  0
  4 10  1  0  0  0  0
  5 11  1  0  0  0  0
  6 12  1  0  0  0  0
  7  8  1  0  0  0  0
  7  9  2  0  0  0  0
  1 13  1  0  0  0  0
  2 14  1  0  0  0  0
  8 15  1  0  0  0  0
  8 16  1  0  0  0  0
  8 17  1  0  0  0  0
 10 18  1  0  0  0  0
M  END
> <id>
EN300-1276900

> <smiles>
CC(=O)C=1C=C(Br)C(O)=CC1Cl

> <MDLNUMBER>
MFCD30661255

> <IUPAC Name>
1-(5-bromo-2-chloro-4-hydroxyphenyl)ethan-1-one

> <CAS>
2144008-66-0

> <URL>
https://www.enaminestore.com/catalog/EN300-1276900

> <ROCS_ShapeQuery>
_x1604L0AP1_x0771L0AP1

> <ROCS_TanimotoCombo>
0.925 

> <ROCS_ShapeTanimoto>
0.512 

> <ROCS_ColorTanimoto>
0.413 

> <ROCS_RefTversky>
0.451 

> <ROCS_RefColorTversky>
0.429 

> <ROCS_RefTverskyCombo>
0.881 

> <ROCS_FitTversky>
1.357 

> <ROCS_FitColorTversky>
0.914 

> <ROCS_FitTverskyCombo>
2.271 

> <ROCS_ColorScore>
-4.879

> <ROCS_Overlap>
764.237

> <ROCS_Rank>
110                 

$$$$
untitled-dbase-1719_70
  -OEChem-06042309053D

 25 25  0     1  0  0  0  0  0999 V2000
   -4.3104   12.0758  -31.2905 C   0  0  0  0  0  0  0  0  0  0  0  0
   -5.1630   11.1858  -31.9436 C   0  0  0  0  0  0  0  0  0  0  0  0
   -4.4357   12.2806  -29.9164 C   0  0  0  0  0  0  0  0  0  0  0  0
   -6.1411   10.5008  -31.2227 C   0  0  0  0  0  0  0  0  0  0  0  0
   -6.2665   10.7056  -29.8486 C   0  0  0  0  0  0  0  0  0  0  0  0
   -5.4138   11.5955  -29.1955 C   0  0  0  0  0  0  0  0  0  0  0  0
   -6.3116    8.3994  -32.6633 C   0  0  0  0  0  0  0  0  0  0  0  0
   -7.1439    7.7190  -33.7453 C   0  0  0  0  0  0  0  0  0  0  0  0
   -7.0569    9.5402  -31.9520 C   0  0  2  0  0  0  0  0  0  0  0  0
   -7.8908   10.2580  -32.8922 N   0  0  0  0  0  0  0  0  0  0  0  0
   -7.2294   10.0291  -29.1574 O   0  0  0  0  0  0  0  0  0  0  0  0
   -6.3739    6.6725  -34.3228 O   0  0  0  0  0  0  0  0  0  0  0  0
   -5.5514   11.9006  -27.3295 Br  0  0  0  0  0  0  0  0  0  0  0  0
   -3.5485   12.6089  -31.8516 H   0  0  0  0  0  0  0  0  0  0  0  0
   -5.0569   11.0305  -33.0139 H   0  0  0  0  0  0  0  0  0  0  0  0
   -3.7618   12.9776  -29.4246 H   0  0  0  0  0  0  0  0  0  0  0  0
   -5.3960    8.7942  -33.1253 H   0  0  0  0  0  0  0  0  0  0  0  0
   -5.9590    7.6459  -31.9468 H   0  0  0  0  0  0  0  0  0  0  0  0
   -8.0574    7.2818  -33.3314 H   0  0  0  0  0  0  0  0  0  0  0  0
   -7.4121    8.4284  -34.5345 H   0  0  0  0  0  0  0  0  0  0  0  0
   -7.7593    9.0930  -31.2374 H   0  0  0  0  0  0  0  0  0  0  0  0
   -8.5110    9.6137  -33.3323 H   0  0  0  0  0  0  0  0  0  0  0  0
   -8.4116   10.9502  -32.3993 H   0  0  0  0  0  0  0  0  0  0  0  0
   -7.1973   10.2709  -28.2194 H   0  0  0  0  0  0  0  0  0  0  0  0
   -6.9287    6.2607  -35.0046 H   0  0  0  0  0  0  0  0  0  0  0  0
  1  2  1  0  0  0  0
  1  3  2  0  0  0  0
  2  4  2  0  0  0  0
  3  6  1  0  0  0  0
  4  5  1  0  0  0  0
  4  9  1  0  0  0  0
  5  6  2  0  0  0  0
  5 11  1  0  0  0  0
  6 13  1  0  0  0  0
  7  8  1  0  0  0  0
  7  9  1  0  0  0  0
  8 12  1  0  0  0  0
  9 10  1  0  0  0  0
  1 14  1  0  0  0  0
  2 15  1  0  0  0  0
  3 16  1  0  0  0  0
  7 17  1  0  0  0  0
  7 18  1  0  0  0  0
  8 19  1  0  0  0  0
  8 20  1  0  0  0  0
  9 21  1  0  0  0  0
 10 22  1  0  0  0  0
 10 23  1  0  0  0  0
 11 24  1  0  0  0  0
 12 25  1  0  0  0  0
M  END
> <id>
EN300-1896540

> <smiles>
NC(CCO)C=1C=CC=C(Br)C1O

> <MDLNUMBER>
MFCD24528788

> <IUPAC Name>
2-(1-amino-3-hydroxypropyl)-6-bromophenol

> <CAS>
1337462-85-7

> <URL>
https://www.enaminestore.com/catalog/EN300-1896540

> <ROCS_ShapeQuery>
_x1604L0AP1_x0771L0AP1

> <ROCS_TanimotoCombo>
0.925 

> <ROCS_ShapeTanimoto>
0.518 

> <ROCS_ColorTanimoto>
0.407 

> <ROCS_RefTversky>
0.462 

> <ROCS_RefColorTversky>
0.494 

> <ROCS_RefTverskyCombo>
0.956 

> <ROCS_FitTversky>
1.309 

> <ROCS_FitColorTversky>
0.696 

> <ROCS_FitTverskyCombo>
2.004 

> <ROCS_ColorScore>
-5.694

> <ROCS_Overlap>
782.446

> <ROCS_Rank>
111                 

$$$$
untitled-dbase-381_1
  -OEChem-06042309053D

 20 20  0     0  0  0  0  0  0999 V2000
   -4.8964   12.6997  -29.8051 C   0  0  0  0  0  0  0  0  0  0  0  0
   -4.9643   11.1505  -31.6578 C   0  0  0  0  0  0  0  0  0  0  0  0
   -5.8957   11.9716  -29.1596 C   0  0  0  0  0  0  0  0  0  0  0  0
   -6.4294   10.8329  -29.7632 C   0  0  0  0  0  0  0  0  0  0  0  0
   -4.4306   12.2892  -31.0543 C   0  0  0  0  0  0  0  0  0  0  0  0
   -5.9636   10.4224  -31.0123 C   0  0  0  0  0  0  0  0  0  0  0  0
   -6.3799   12.4286  -27.8228 C   0  0  0  0  0  0  0  0  0  0  0  0
   -5.9877   12.5726  -25.5224 N   0  0  0  0  0  0  0  0  0  0  0  0
   -5.4435   12.1273  -26.7710 N   0  0  0  0  0  0  0  0  0  0  0  0
   -7.4068   10.1313  -29.1190 O   0  0  0  0  0  0  0  0  0  0  0  0
   -3.1975   13.1882  -31.8504 Cl  0  0  0  0  0  0  0  0  0  0  0  0
   -6.6641    8.8804  -31.8647 Br  0  0  0  0  0  0  0  0  0  0  0  0
   -4.4824   13.5871  -29.3308 H   0  0  0  0  0  0  0  0  0  0  0  0
   -4.5986   10.8340  -32.6322 H   0  0  0  0  0  0  0  0  0  0  0  0
   -6.5493   13.5137  -27.8149 H   0  0  0  0  0  0  0  0  0  0  0  0
   -7.3347   11.9551  -27.5588 H   0  0  0  0  0  0  0  0  0  0  0  0
   -6.8501   12.0634  -25.3310 H   0  0  0  0  0  0  0  0  0  0  0  0
   -5.3473   12.3290  -24.7679 H   0  0  0  0  0  0  0  0  0  0  0  0
   -5.2846   11.1164  -26.7133 H   0  0  0  0  0  0  0  0  0  0  0  0
   -7.6784    9.3707  -29.6549 H   0  0  0  0  0  0  0  0  0  0  0  0
  1  3  2  0  0  0  0
  1  5  1  0  0  0  0
  2  5  2  0  0  0  0
  2  6  1  0  0  0  0
  3  4  1  0  0  0  0
  3  7  1  0  0  0  0
  4  6  2  0  0  0  0
  4 10  1  0  0  0  0
  5 11  1  0  0  0  0
  6 12  1  0  0  0  0
  7  9  1  0  0  0  0
  8  9  1  0  0  0  0
  1 13  1  0  0  0  0
  2 14  1  0  0  0  0
  7 15  1  0  0  0  0
  7 16  1  0  0  0  0
  8 17  1  0  0  0  0
  8 18  1  0  0  0  0
  9 19  1  0  0  0  0
 10 20  1  0  0  0  0
M  END
> <id>
EN300-1926027

> <smiles>
NNCC=1C=C(Cl)C=C(Br)C1O

> <IUPAC Name>
2-bromo-4-chloro-6-(hydrazinylmethyl)phenol

> <CAS>
1049104-38-2

> <URL>
https://www.enaminestore.com/catalog/EN300-1926027

> <ROCS_ShapeQuery>
_x1604L0AP1_x0771L0AP1

> <ROCS_TanimotoCombo>
0.925 

> <ROCS_ShapeTanimoto>
0.456 

> <ROCS_ColorTanimoto>
0.468 

> <ROCS_RefTversky>
0.416 

> <ROCS_RefColorTversky>
0.501 

> <ROCS_RefTverskyCombo>
0.917 

> <ROCS_FitTversky>
1.267 

> <ROCS_FitColorTversky>
0.877 

> <ROCS_FitTverskyCombo>
2.144 

> <ROCS_ColorScore>
-5.728

> <ROCS_Overlap>
704.435

> <ROCS_Rank>
112                 

$$$$
untitled-dbase-740_1
  -OEChem-06042309053D

 19 19  0     0  0  0  0  0  0999 V2000
   -4.9634   11.1235  -31.8008 C   0  0  0  0  0  0  0  0  0  0  0  0
   -4.6391   12.5316  -29.8645 C   0  0  0  0  0  0  0  0  0  0  0  0
   -5.9428   10.4055  -31.1146 C   0  0  0  0  0  0  0  0  0  0  0  0
   -6.2704   10.7505  -29.8034 C   0  0  0  0  0  0  0  0  0  0  0  0
   -4.3115   12.1865  -31.1757 C   0  0  0  0  0  0  0  0  0  0  0  0
   -5.6185   11.8136  -29.1783 C   0  0  0  0  0  0  0  0  0  0  0  0
   -6.6068    9.3000  -31.7930 C   0  0  0  0  0  0  0  0  0  0  0  0
   -6.0599    8.5391  -32.7631 C   0  0  0  0  0  0  0  0  0  0  0  0
   -6.8597    7.4553  -33.3687 C   0  0  0  0  0  0  0  0  0  0  0  0
   -6.4107    6.7355  -34.2526 O   0  0  0  0  0  0  0  0  0  0  0  0
   -7.2302   10.0438  -29.1363 O   0  0  0  0  0  0  0  0  0  0  0  0
   -3.1029   13.0724  -32.0224 Cl  0  0  0  0  0  0  0  0  0  0  0  0
   -6.0349   12.3141  -27.3974 Br  0  0  0  0  0  0  0  0  0  0  0  0
   -4.7060   10.8569  -32.8241 H   0  0  0  0  0  0  0  0  0  0  0  0
   -4.1278   13.3614  -29.3804 H   0  0  0  0  0  0  0  0  0  0  0  0
   -7.6395    9.0975  -31.4895 H   0  0  0  0  0  0  0  0  0  0  0  0
   -5.0541    8.6850  -33.1374 H   0  0  0  0  0  0  0  0  0  0  0  0
   -7.8846    7.3281  -32.9821 H   0  0  0  0  0  0  0  0  0  0  0  0
   -7.3439   10.4008  -28.2429 H   0  0  0  0  0  0  0  0  0  0  0  0
  1  3  2  0  0  0  0
  1  5  1  0  0  0  0
  2  5  2  0  0  0  0
  2  6  1  0  0  0  0
  3  4  1  0  0  0  0
  3  7  1  0  0  0  0
  4  6  2  0  0  0  0
  4 11  1  0  0  0  0
  5 12  1  0  0  0  0
  6 13  1  0  0  0  0
  7  8  2  3  0  0  0
  8  9  1  0  0  0  0
  9 10  2  0  0  0  0
  1 14  1  0  0  0  0
  2 15  1  0  0  0  0
  7 16  1  0  0  0  0
  8 17  1  0  0  0  0
  9 18  1  0  0  0  0
 11 19  1  0  0  0  0
M  END
> <id>
EN300-1894111

> <smiles>
OC=1C(Br)=CC(Cl)=CC1C=CC=O

> <IUPAC Name>
3-(3-bromo-5-chloro-2-hydroxyphenyl)prop-2-enal

> <CAS>
1216325-94-8

> <URL>
https://www.enaminestore.com/catalog/EN300-1894111

> <ROCS_ShapeQuery>
_x1604L0AP1_x0771L0AP1

> <ROCS_TanimotoCombo>
0.925 

> <ROCS_ShapeTanimoto>
0.528 

> <ROCS_ColorTanimoto>
0.396 

> <ROCS_RefTversky>
0.468 

> <ROCS_RefColorTversky>
0.417 

> <ROCS_RefTverskyCombo>
0.885 

> <ROCS_FitTversky>
1.323 

> <ROCS_FitColorTversky>
0.888 

> <ROCS_FitTverskyCombo>
2.211 

> <ROCS_ColorScore>
-4.740

> <ROCS_Overlap>
793.057

> <ROCS_Rank>
113                 

$$$$
untitled-dbase-1589_20
  -OEChem-06042309053D

 22 22  0     0  0  0  0  0  0999 V2000
   -4.6001   12.4868  -29.8441 C   0  0  0  0  0  0  0  0  0  0  0  0
   -4.3380   12.1644  -31.1756 C   0  0  0  0  0  0  0  0  0  0  0  0
   -5.5778   11.7874  -29.1365 C   0  0  0  0  0  0  0  0  0  0  0  0
   -5.0537   11.1426  -31.7996 C   0  0  0  0  0  0  0  0  0  0  0  0
   -6.2935   10.7656  -29.7605 C   0  0  0  0  0  0  0  0  0  0  0  0
   -6.0314   10.4432  -31.0921 C   0  0  0  0  0  0  0  0  0  0  0  0
   -4.7352   10.8361  -33.2277 C   0  0  0  0  0  0  0  0  0  0  0  0
   -5.3393   11.8440  -34.2055 C   0  0  0  0  0  0  0  0  0  0  0  0
   -7.2962   10.7330  -34.7648 N   0  0  0  0  0  0  0  0  0  0  0  0
   -7.2418   10.1046  -29.0376 O   0  0  0  0  0  0  0  0  0  0  0  0
   -6.7521   11.8757  -34.0483 O   0  0  0  0  0  0  0  0  0  0  0  0
   -7.0139    9.0470  -31.9326 Br  0  0  0  0  0  0  0  0  0  0  0  0
   -4.0432   13.2828  -29.3584 H   0  0  0  0  0  0  0  0  0  0  0  0
   -3.5740   12.7160  -31.7175 H   0  0  0  0  0  0  0  0  0  0  0  0
   -5.7766   12.0449  -28.0996 H   0  0  0  0  0  0  0  0  0  0  0  0
   -3.6449   10.8017  -33.3692 H   0  0  0  0  0  0  0  0  0  0  0  0
   -5.1107    9.8335  -33.4789 H   0  0  0  0  0  0  0  0  0  0  0  0
   -4.9561   12.8474  -33.9936 H   0  0  0  0  0  0  0  0  0  0  0  0
   -5.1053   11.5900  -35.2446 H   0  0  0  0  0  0  0  0  0  0  0  0
   -7.9662   11.1990  -35.3749 H   0  0  0  0  0  0  0  0  0  0  0  0
   -7.8371   10.2900  -34.0237 H   0  0  0  0  0  0  0  0  0  0  0  0
   -7.6632    9.4230  -29.5837 H   0  0  0  0  0  0  0  0  0  0  0  0
  1  2  1  0  0  0  0
  1  3  2  0  0  0  0
  2  4  2  0  0  0  0
  3  5  1  0  0  0  0
  4  6  1  0  0  0  0
  4  7  1  0  0  0  0
  5  6  2  0  0  0  0
  5 10  1  0  0  0  0
  6 12  1  0  0  0  0
  7  8  1  0  0  0  0
  8 11  1  0  0  0  0
  9 11  1  0  0  0  0
  1 13  1  0  0  0  0
  2 14  1  0  0  0  0
  3 15  1  0  0  0  0
  7 16  1  0  0  0  0
  7 17  1  0  0  0  0
  8 18  1  0  0  0  0
  8 19  1  0  0  0  0
  9 20  1  0  0  0  0
  9 21  1  0  0  0  0
 10 22  1  0  0  0  0
M  END
> <id>
EN300-1904522

> <smiles>
NOCCC=1C=CC=C(O)C1Br

> <IUPAC Name>
3-[2-(aminooxy)ethyl]-2-bromophenol

> <CAS>
2228574-21-6

> <URL>
https://www.enaminestore.com/catalog/EN300-1904522

> <ROCS_ShapeQuery>
_x1604L0AP1_x0771L0AP1

> <ROCS_TanimotoCombo>
0.924 

> <ROCS_ShapeTanimoto>
0.473 

> <ROCS_ColorTanimoto>
0.451 

> <ROCS_RefTversky>
0.427 

> <ROCS_RefColorTversky>
0.432 

> <ROCS_RefTverskyCombo>
0.858 

> <ROCS_FitTversky>
1.297 

> <ROCS_FitColorTversky>
1.114 

> <ROCS_FitTverskyCombo>
2.410 

> <ROCS_ColorScore>
-4.883

> <ROCS_Overlap>
722.396

> <ROCS_Rank>
114                 

$$$$
untitled-dbase-1055_59
  -OEChem-06042309053D

 25 25  0     1  0  0  0  0  0999 V2000
   -4.2185   12.4533  -30.8312 C   0  0  0  0  0  0  0  0  0  0  0  0
   -5.1732   11.8442  -31.6455 C   0  0  0  0  0  0  0  0  0  0  0  0
   -4.2625   12.2713  -29.4489 C   0  0  0  0  0  0  0  0  0  0  0  0
   -6.1719   11.0533  -31.0776 C   0  0  0  0  0  0  0  0  0  0  0  0
   -6.2160   10.8713  -29.6954 C   0  0  0  0  0  0  0  0  0  0  0  0
   -5.2612   11.4804  -28.8810 C   0  0  0  0  0  0  0  0  0  0  0  0
   -7.2082    8.8790  -31.8053 C   0  0  0  0  0  0  0  0  0  0  0  0
   -6.9914   10.7718  -33.4578 C   0  0  0  0  0  0  0  0  0  0  0  0
   -7.1848   10.4114  -31.9678 C   0  0  2  0  0  0  0  0  0  0  0  0
   -5.7835   10.3575  -35.3933 N   0  0  0  0  0  0  0  0  0  0  0  0
   -7.2003   10.0960  -29.1545 O   0  0  0  0  0  0  0  0  0  0  0  0
   -5.9315    9.9883  -33.9949 O   0  0  0  0  0  0  0  0  0  0  0  0
   -5.2862   11.2568  -26.9986 Br  0  0  0  0  0  0  0  0  0  0  0  0
   -3.4405   13.0687  -31.2733 H   0  0  0  0  0  0  0  0  0  0  0  0
   -5.1301   11.9893  -32.7217 H   0  0  0  0  0  0  0  0  0  0  0  0
   -3.5096   12.7536  -28.8305 H   0  0  0  0  0  0  0  0  0  0  0  0
   -6.2406    8.4336  -32.0612 H   0  0  0  0  0  0  0  0  0  0  0  0
   -7.4464    8.5862  -30.7770 H   0  0  0  0  0  0  0  0  0  0  0  0
   -7.9643    8.4359  -32.4630 H   0  0  0  0  0  0  0  0  0  0  0  0
   -6.7187   11.8258  -33.5789 H   0  0  0  0  0  0  0  0  0  0  0  0
   -7.8973   10.5819  -34.0428 H   0  0  0  0  0  0  0  0  0  0  0  0
   -8.1955   10.7681  -31.6895 H   0  0  0  0  0  0  0  0  0  0  0  0
   -5.8662    9.4433  -35.8354 H   0  0  0  0  0  0  0  0  0  0  0  0
   -4.7951   10.6032  -35.4161 H   0  0  0  0  0  0  0  0  0  0  0  0
   -7.1045   10.0612  -28.1907 H   0  0  0  0  0  0  0  0  0  0  0  0
  1  2  1  0  0  0  0
  1  3  2  0  0  0  0
  2  4  2  0  0  0  0
  3  6  1  0  0  0  0
  4  5  1  0  0  0  0
  4  9  1  0  0  0  0
  5  6  2  0  0  0  0
  5 11  1  0  0  0  0
  6 13  1  0  0  0  0
  7  9  1  0  0  0  0
  8  9  1  0  0  0  0
  8 12  1  0  0  0  0
 10 12  1  0  0  0  0
  1 14  1  0  0  0  0
  2 15  1  0  0  0  0
  3 16  1  0  0  0  0
  7 17  1  0  0  0  0
  7 18  1  0  0  0  0
  7 19  1  0  0  0  0
  8 20  1  0  0  0  0
  8 21  1  0  0  0  0
  9 22  1  0  0  0  0
 10 23  1  0  0  0  0
 10 24  1  0  0  0  0
 11 25  1  0  0  0  0
M  END
> <id>
EN300-1923144

> <smiles>
CC(CON)C=1C=CC=C(Br)C1O

> <IUPAC Name>
2-[1-(aminooxy)propan-2-yl]-6-bromophenol

> <CAS>
2228480-13-3

> <URL>
https://www.enaminestore.com/catalog/EN300-1923144

> <ROCS_ShapeQuery>
_x1604L0AP1_x0771L0AP1

> <ROCS_TanimotoCombo>
0.924 

> <ROCS_ShapeTanimoto>
0.531 

> <ROCS_ColorTanimoto>
0.394 

> <ROCS_RefTversky>
0.469 

> <ROCS_RefColorTversky>
0.415 

> <ROCS_RefTverskyCombo>
0.884 

> <ROCS_FitTversky>
1.328 

> <ROCS_FitColorTversky>
0.884 

> <ROCS_FitTverskyCombo>
2.212 

> <ROCS_ColorScore>
-4.718

> <ROCS_Overlap>
795.171

> <ROCS_Rank>
115                 

$$$$
untitled-dbase-1406_43
  -OEChem-06042309053D

 19 19  0     0  0  0  0  0  0999 V2000
   -4.6059   12.4914  -29.8546 C   0  0  0  0  0  0  0  0  0  0  0  0
   -4.3533   12.1738  -31.1890 C   0  0  0  0  0  0  0  0  0  0  0  0
   -5.5765   11.7875  -29.1417 C   0  0  0  0  0  0  0  0  0  0  0  0
   -5.0713   11.1522  -31.8107 C   0  0  0  0  0  0  0  0  0  0  0  0
   -6.2945   10.7659  -29.7634 C   0  0  0  0  0  0  0  0  0  0  0  0
   -6.0419   10.4482  -31.0979 C   0  0  0  0  0  0  0  0  0  0  0  0
   -4.7631   10.8509  -33.2422 C   0  0  0  0  0  0  0  0  0  0  0  0
   -6.6098   12.2253  -33.5213 N   0  0  0  0  0  0  0  0  0  0  0  0
   -7.2357   10.1003  -29.0352 O   0  0  0  0  0  0  0  0  0  0  0  0
   -5.9353   11.0386  -34.0236 O   0  0  0  0  0  0  0  0  0  0  0  0
   -7.0275    9.0524  -31.9352 Br  0  0  0  0  0  0  0  0  0  0  0  0
   -4.0472   13.2872  -29.3706 H   0  0  0  0  0  0  0  0  0  0  0  0
   -3.5948   12.7290  -31.7351 H   0  0  0  0  0  0  0  0  0  0  0  0
   -5.7680   12.0412  -28.1025 H   0  0  0  0  0  0  0  0  0  0  0  0
   -3.9736   11.5095  -33.6258 H   0  0  0  0  0  0  0  0  0  0  0  0
   -4.4187    9.8159  -33.3609 H   0  0  0  0  0  0  0  0  0  0  0  0
   -7.5358   11.8454  -33.3304 H   0  0  0  0  0  0  0  0  0  0  0  0
   -6.6900   12.7701  -34.3784 H   0  0  0  0  0  0  0  0  0  0  0  0
   -7.6596    9.4195  -29.5802 H   0  0  0  0  0  0  0  0  0  0  0  0
  1  2  1  0  0  0  0
  1  3  2  0  0  0  0
  2  4  2  0  0  0  0
  3  5  1  0  0  0  0
  4  6  1  0  0  0  0
  4  7  1  0  0  0  0
  5  6  2  0  0  0  0
  5  9  1  0  0  0  0
  6 11  1  0  0  0  0
  7 10  1  0  0  0  0
  8 10  1  0  0  0  0
  1 12  1  0  0  0  0
  2 13  1  0  0  0  0
  3 14  1  0  0  0  0
  7 15  1  0  0  0  0
  7 16  1  0  0  0  0
  8 17  1  0  0  0  0
  8 18  1  0  0  0  0
  9 19  1  0  0  0  0
M  END
> <id>
EN300-1904519

> <smiles>
NOCC=1C=CC=C(O)C1Br

> <MDLNUMBER>
MFCD33499664

> <IUPAC Name>
3-[(aminooxy)methyl]-2-bromophenol

> <CAS>
20978-38-5

> <URL>
https://www.enaminestore.com/catalog/EN300-1904519

> <ROCS_ShapeQuery>
_x1604L0AP1_x0771L0AP1

> <ROCS_TanimotoCombo>
0.924 

> <ROCS_ShapeTanimoto>
0.473 

> <ROCS_ColorTanimoto>
0.451 

> <ROCS_RefTversky>
0.420 

> <ROCS_RefColorTversky>
0.432 

> <ROCS_RefTverskyCombo>
0.852 

> <ROCS_FitTversky>
1.361 

> <ROCS_FitColorTversky>
1.113 

> <ROCS_FitTverskyCombo>
2.474 

> <ROCS_ColorScore>
-4.883

> <ROCS_Overlap>
710.096

> <ROCS_Rank>
116                 

$$$$
untitled-dbase-397_65
  -OEChem-06042309053D

 27 28  0     0  0  0  0  0  0999 V2000
   -4.2595   11.6425  -30.5684 C   0  0  0  0  0  0  0  0  0  0  0  0
   -4.4565   11.2685  -31.8976 C   0  0  0  0  0  0  0  0  0  0  0  0
   -5.1872   11.2720  -29.5948 C   0  0  0  0  0  0  0  0  0  0  0  0
   -5.5813   10.5241  -32.2533 C   0  0  0  0  0  0  0  0  0  0  0  0
   -6.3119   10.5277  -29.9505 C   0  0  0  0  0  0  0  0  0  0  0  0
   -6.5090   10.1537  -31.2797 C   0  0  0  0  0  0  0  0  0  0  0  0
   -3.9022    8.3836  -34.1159 C   0  0  0  0  0  0  0  0  0  0  0  0
   -4.6487    7.9563  -32.8845 C   0  0  0  0  0  0  0  0  0  0  0  0
   -5.3699    8.7137  -33.9750 C   0  0  0  0  0  0  0  0  0  0  0  0
   -5.7484   10.1445  -33.7080 C   0  0  0  0  0  0  0  0  0  0  0  0
   -6.3483    7.9568  -34.8304 C   0  0  0  0  0  0  0  0  0  0  0  0
   -7.1972   10.1845  -28.9719 O   0  0  0  0  0  0  0  0  0  0  0  0
   -6.2433    6.5657  -34.5500 O   0  0  0  0  0  0  0  0  0  0  0  0
   -8.0470    9.1380  -31.7530 Br  0  0  0  0  0  0  0  0  0  0  0  0
   -3.3840   12.2225  -30.2915 H   0  0  0  0  0  0  0  0  0  0  0  0
   -3.7273   11.5628  -32.6482 H   0  0  0  0  0  0  0  0  0  0  0  0
   -5.0270   11.5677  -28.5614 H   0  0  0  0  0  0  0  0  0  0  0  0
   -3.1782    9.1832  -34.0129 H   0  0  0  0  0  0  0  0  0  0  0  0
   -3.6085    7.6130  -34.8187 H   0  0  0  0  0  0  0  0  0  0  0  0
   -4.8548    6.8995  -32.7628 H   0  0  0  0  0  0  0  0  0  0  0  0
   -4.4245    8.4697  -31.9569 H   0  0  0  0  0  0  0  0  0  0  0  0
   -6.7929   10.3313  -34.0080 H   0  0  0  0  0  0  0  0  0  0  0  0
   -5.1430   10.8274  -34.3270 H   0  0  0  0  0  0  0  0  0  0  0  0
   -6.1402    8.1112  -35.8970 H   0  0  0  0  0  0  0  0  0  0  0  0
   -7.3787    8.2741  -34.6250 H   0  0  0  0  0  0  0  0  0  0  0  0
   -7.9292    9.6721  -29.3485 H   0  0  0  0  0  0  0  0  0  0  0  0
   -5.3310    6.3080  -34.7571 H   0  0  0  0  0  0  0  0  0  0  0  0
  1  2  1  0  0  0  0
  1  3  2  0  0  0  0
  2  4  2  0  0  0  0
  3  5  1  0  0  0  0
  4  6  1  0  0  0  0
  4 10  1  0  0  0  0
  5  6  2  0  0  0  0
  5 12  1  0  0  0  0
  6 14  1  0  0  0  0
  7  8  1  0  0  0  0
  7  9  1  0  0  0  0
  8  9  1  0  0  0  0
  9 10  1  0  0  0  0
  9 11  1  0  0  0  0
 11 13  1  0  0  0  0
  1 15  1  0  0  0  0
  2 16  1  0  0  0  0
  3 17  1  0  0  0  0
  7 18  1  0  0  0  0
  7 19  1  0  0  0  0
  8 20  1  0  0  0  0
  8 21  1  0  0  0  0
 10 22  1  0  0  0  0
 10 23  1  0  0  0  0
 11 24  1  0  0  0  0
 11 25  1  0  0  0  0
 12 26  1  0  0  0  0
 13 27  1  0  0  0  0
M  END
> <id>
EN300-1904805

> <smiles>
OCC1(CC=2C=CC=C(O)C2Br)CC1

> <IUPAC Name>
2-bromo-3-{[1-(hydroxymethyl)cyclopropyl]methyl}phenol

> <CAS>
2229356-05-0

> <URL>
https://www.enaminestore.com/catalog/EN300-1904805

> <ROCS_ShapeQuery>
_x1604L0AP1_x0771L0AP1

> <ROCS_TanimotoCombo>
0.924 

> <ROCS_ShapeTanimoto>
0.444 

> <ROCS_ColorTanimoto>
0.480 

> <ROCS_RefTversky>
0.425 

> <ROCS_RefColorTversky>
0.503 

> <ROCS_RefTverskyCombo>
0.928 

> <ROCS_FitTversky>
1.107 

> <ROCS_FitColorTversky>
0.913 

> <ROCS_FitTverskyCombo>
2.021 

> <ROCS_ColorScore>
-5.740

> <ROCS_Overlap>
721.859

> <ROCS_Rank>
117                 

$$$$
untitled-dbase-2303_8
  -OEChem-06042309053D

 21 22  0     0  0  0  0  0  0999 V2000
   -3.3470   12.8659  -31.9154 C   0  0  0  0  0  0  0  0  0  0  0  0
   -5.0734   11.1281  -31.8103 C   0  0  0  0  0  0  0  0  0  0  0  0
   -2.6555   13.8698  -31.2548 C   0  0  0  0  0  0  0  0  0  0  0  0
   -3.8191   13.5216  -29.3055 C   0  0  0  0  0  0  0  0  0  0  0  0
   -4.3295   12.1586  -31.2128 C   0  0  0  0  0  0  0  0  0  0  0  0
   -4.5783   12.4921  -29.8653 C   0  0  0  0  0  0  0  0  0  0  0  0
   -6.2896   10.7734  -29.7520 C   0  0  0  0  0  0  0  0  0  0  0  0
   -5.5601   11.7941  -29.1428 C   0  0  0  0  0  0  0  0  0  0  0  0
   -6.0468   10.4412  -31.0828 C   0  0  0  0  0  0  0  0  0  0  0  0
   -2.8662   14.2163  -29.9671 N   0  0  0  0  0  0  0  0  0  0  0  0
   -6.3601   10.9662  -26.7998 O   0  0  0  0  0  0  0  0  0  0  0  0
   -4.8636   13.0139  -26.9233 O   0  0  0  0  0  0  0  0  0  0  0  0
   -7.2410   10.0995  -29.0408 O   0  0  0  0  0  0  0  0  0  0  0  0
   -5.9107   12.1724  -27.4592 S   0  0  0  0  0  0  0  0  0  0  0  0
   -7.5474   13.3849  -27.6286 Cl  0  0  0  0  0  0  0  0  0  0  0  0
   -7.0192    9.0602  -31.9460 Br  0  0  0  0  0  0  0  0  0  0  0  0
   -3.1209   12.6436  -32.9537 H   0  0  0  0  0  0  0  0  0  0  0  0
   -4.8872   10.8663  -32.8508 H   0  0  0  0  0  0  0  0  0  0  0  0
   -1.8872   14.4410  -31.7657 H   0  0  0  0  0  0  0  0  0  0  0  0
   -3.9425   13.8439  -28.2764 H   0  0  0  0  0  0  0  0  0  0  0  0
   -7.6570    9.4255  -29.5989 H   0  0  0  0  0  0  0  0  0  0  0  0
  1  3  2  0  0  0  0
  1  5  1  0  0  0  0
  2  5  2  0  0  0  0
  2  9  1  0  0  0  0
  3 10  1  0  0  0  0
  4  6  1  0  0  0  0
  4 10  2  0  0  0  0
  5  6  1  0  0  0  0
  6  8  2  0  0  0  0
  7  8  1  0  0  0  0
  7  9  2  0  0  0  0
  7 13  1  0  0  0  0
  8 14  1  0  0  0  0
  9 16  1  0  0  0  0
 11 14  2  0  0  0  0
 12 14  2  0  0  0  0
 14 15  1  0  0  0  0
  1 17  1  0  0  0  0
  2 18  1  0  0  0  0
  3 19  1  0  0  0  0
  4 20  1  0  0  0  0
 13 21  1  0  0  0  0
M  END
> <id>
EN300-43394975

> <smiles>
OC=1C(Br)=CC=2C=CN=CC2C1S(=O)(=O)Cl

> <IUPAC Name>
6-bromo-7-hydroxyisoquinoline-8-sulfonyl chloride

> <URL>
https://www.enaminestore.com/catalog/EN300-43394975

> <ROCS_ShapeQuery>
_x1604L0AP1_x0771L0AP1

> <ROCS_TanimotoCombo>
0.922 

> <ROCS_ShapeTanimoto>
0.541 

> <ROCS_ColorTanimoto>
0.381 

> <ROCS_RefTversky>
0.505 

> <ROCS_RefColorTversky>
0.428 

> <ROCS_RefTverskyCombo>
0.933 

> <ROCS_FitTversky>
1.153 

> <ROCS_FitColorTversky>
0.776 

> <ROCS_FitTverskyCombo>
1.930 

> <ROCS_ColorScore>
-4.884

> <ROCS_Overlap>
859.812

> <ROCS_Rank>
118                 

$$$$
untitled-dbase-1742_40
  -OEChem-06042309053D

 22 22  0     1  0  0  0  0  0999 V2000
   -4.6089   12.4957  -29.8424 C   0  0  0  0  0  0  0  0  0  0  0  0
   -4.3518   12.1808  -31.1767 C   0  0  0  0  0  0  0  0  0  0  0  0
   -5.5809   11.7894  -29.1339 C   0  0  0  0  0  0  0  0  0  0  0  0
   -5.0667   11.1595  -31.8025 C   0  0  0  0  0  0  0  0  0  0  0  0
   -6.2958   10.7681  -29.7597 C   0  0  0  0  0  0  0  0  0  0  0  0
   -6.0387   10.4532  -31.0940 C   0  0  0  0  0  0  0  0  0  0  0  0
   -3.3138   11.2060  -33.6120 C   0  0  0  0  0  0  0  0  0  0  0  0
   -4.7537   10.8613  -33.2336 C   0  0  2  0  0  0  0  0  0  0  0  0
   -6.9012   10.9161  -34.1063 N   0  0  0  0  0  0  0  0  0  0  0  0
   -7.2386   10.1002  -29.0357 O   0  0  0  0  0  0  0  0  0  0  0  0
   -5.6328   11.6208  -34.0692 O   0  0  0  0  0  0  0  0  0  0  0  0
   -7.0202    9.0578  -31.9370 Br  0  0  0  0  0  0  0  0  0  0  0  0
   -4.0526   13.2913  -29.3553 H   0  0  0  0  0  0  0  0  0  0  0  0
   -3.5922   12.7378  -31.7193 H   0  0  0  0  0  0  0  0  0  0  0  0
   -5.7759   12.0410  -28.0948 H   0  0  0  0  0  0  0  0  0  0  0  0
   -3.0866   12.2535  -33.3899 H   0  0  0  0  0  0  0  0  0  0  0  0
   -3.1273   11.0301  -34.6774 H   0  0  0  0  0  0  0  0  0  0  0  0
   -2.6068   10.5721  -33.0655 H   0  0  0  0  0  0  0  0  0  0  0  0
   -4.9265    9.8005  -33.4774 H   0  0  0  0  0  0  0  0  0  0  0  0
   -7.0231   10.8143  -35.1128 H   0  0  0  0  0  0  0  0  0  0  0  0
   -7.5314   11.6601  -33.8110 H   0  0  0  0  0  0  0  0  0  0  0  0
   -7.6600    9.4199  -29.5832 H   0  0  0  0  0  0  0  0  0  0  0  0
  1  2  1  0  0  0  0
  1  3  2  0  0  0  0
  2  4  2  0  0  0  0
  3  5  1  0  0  0  0
  4  6  1  0  0  0  0
  4  8  1  0  0  0  0
  5  6  2  0  0  0  0
  5 10  1  0  0  0  0
  6 12  1  0  0  0  0
  7  8  1  0  0  0  0
  8 11  1  0  0  0  0
  9 11  1  0  0  0  0
  1 13  1  0  0  0  0
  2 14  1  0  0  0  0
  3 15  1  0  0  0  0
  7 16  1  0  0  0  0
  7 17  1  0  0  0  0
  7 18  1  0  0  0  0
  8 19  1  0  0  0  0
  9 20  1  0  0  0  0
  9 21  1  0  0  0  0
 10 22  1  0  0  0  0
M  END
> <id>
EN300-1904532

> <smiles>
CC(ON)C=1C=CC=C(O)C1Br

> <IUPAC Name>
3-[1-(aminooxy)ethyl]-2-bromophenol

> <CAS>
2229348-42-7

> <URL>
https://www.enaminestore.com/catalog/EN300-1904532

> <ROCS_ShapeQuery>
_x1604L0AP1_x0771L0AP1

> <ROCS_TanimotoCombo>
0.922 

> <ROCS_ShapeTanimoto>
0.470 

> <ROCS_ColorTanimoto>
0.451 

> <ROCS_RefTversky>
0.427 

> <ROCS_RefColorTversky>
0.432 

> <ROCS_RefTverskyCombo>
0.858 

> <ROCS_FitTversky>
1.280 

> <ROCS_FitColorTversky>
1.114 

> <ROCS_FitTverskyCombo>
2.393 

> <ROCS_ColorScore>
-4.883

> <ROCS_Overlap>
722.069

> <ROCS_Rank>
119                 

$$$$
untitled-dbase-486_46
  -OEChem-06042309053D

 18 18  0     0  0  0  0  0  0999 V2000
   -5.0605   11.2345  -31.7783 C   0  0  0  0  0  0  0  0  0  0  0  0
   -4.5361   12.4760  -29.7731 C   0  0  0  0  0  0  0  0  0  0  0  0
   -6.0434   10.5288  -31.0843 C   0  0  0  0  0  0  0  0  0  0  0  0
   -6.2727   10.7967  -29.7348 C   0  0  0  0  0  0  0  0  0  0  0  0
   -4.3069   12.2081  -31.1226 C   0  0  0  0  0  0  0  0  0  0  0  0
   -5.5190   11.7703  -29.0791 C   0  0  0  0  0  0  0  0  0  0  0  0
   -6.8389    9.4906  -31.8054 C   0  0  0  0  0  0  0  0  0  0  0  0
   -6.2572    8.2048  -34.7887 N   0  5  0  0  0  0  0  0  0  0  0  0
   -7.0321    9.8243  -33.2214 N   0  0  0  0  0  0  0  0  0  0  0  0
   -6.6262    8.9767  -34.0344 N   0  3  0  0  0  0  0  0  0  0  0  0
   -7.2378   10.0976  -29.0696 O   0  0  0  0  0  0  0  0  0  0  0  0
   -3.0940   13.0785  -31.9794 Cl  0  0  0  0  0  0  0  0  0  0  0  0
   -5.8011   12.1627  -27.2457 Br  0  0  0  0  0  0  0  0  0  0  0  0
   -4.8851   11.0229  -32.8310 H   0  0  0  0  0  0  0  0  0  0  0  0
   -3.9459   13.2357  -29.2654 H   0  0  0  0  0  0  0  0  0  0  0  0
   -6.3492    8.5087  -31.7324 H   0  0  0  0  0  0  0  0  0  0  0  0
   -7.8256    9.3674  -31.3371 H   0  0  0  0  0  0  0  0  0  0  0  0
   -7.6627    9.4650  -29.6684 H   0  0  0  0  0  0  0  0  0  0  0  0
  1  3  2  0  0  0  0
  1  5  1  0  0  0  0
  2  5  2  0  0  0  0
  2  6  1  0  0  0  0
  3  4  1  0  0  0  0
  3  7  1  0  0  0  0
  4  6  2  0  0  0  0
  4 11  1  0  0  0  0
  5 12  1  0  0  0  0
  6 13  1  0  0  0  0
  7  9  1  0  0  0  0
  8 10  2  0  0  0  0
  9 10  2  0  0  0  0
  1 14  1  0  0  0  0
  2 15  1  0  0  0  0
  7 16  1  0  0  0  0
  7 17  1  0  0  0  0
 11 18  1  0  0  0  0
M  CHG  2   8  -1  10   1
M  END
> <id>
EN300-1922886

> <smiles>
OC=1C(Br)=CC(Cl)=CC1CN=[N+]=[N-]

> <IUPAC Name>
2-(azidomethyl)-6-bromo-4-chlorophenol

> <CAS>
2229143-99-9

> <URL>
https://www.enaminestore.com/catalog/EN300-1922886

> <ROCS_ShapeQuery>
_x1604L0AP1_x0771L0AP1

> <ROCS_TanimotoCombo>
0.922 

> <ROCS_ShapeTanimoto>
0.593 

> <ROCS_ColorTanimoto>
0.329 

> <ROCS_RefTversky>
0.505 

> <ROCS_RefColorTversky>
0.343 

> <ROCS_RefTverskyCombo>
0.848 

> <ROCS_FitTversky>
1.415 

> <ROCS_FitColorTversky>
0.886 

> <ROCS_FitTverskyCombo>
2.301 

> <ROCS_ColorScore>
-3.885

> <ROCS_Overlap>
856.088

> <ROCS_Rank>
120                 

$$$$
untitled-dbase-1300_0
  -OEChem-06042309053D

 21 22  0     0  0  0  0  0  0999 V2000
   -6.5441   10.4926  -33.9612 C   0  0  0  0  0  0  0  0  0  0  0  0
   -5.5443   11.2580  -33.3787 C   0  0  0  0  0  0  0  0  0  0  0  0
   -4.3913   12.2094  -29.9752 C   0  0  0  0  0  0  0  0  0  0  0  0
   -7.4283    9.8497  -33.1187 C   0  0  0  0  0  0  0  0  0  0  0  0
   -5.4563   11.3591  -31.9837 C   0  0  0  0  0  0  0  0  0  0  0  0
   -4.4557   12.1262  -31.3631 C   0  0  0  0  0  0  0  0  0  0  0  0
   -6.4068   10.6648  -31.2063 C   0  0  0  0  0  0  0  0  0  0  0  0
   -6.3188   10.7655  -29.8206 C   0  0  0  0  0  0  0  0  0  0  0  0
   -5.3241   11.5280  -29.2033 C   0  0  0  0  0  0  0  0  0  0  0  0
   -3.4274   12.8775  -32.1500 C   0  0  0  0  0  0  0  0  0  0  0  0
   -7.3782    9.9212  -31.7688 N   0  0  0  0  0  0  0  0  0  0  0  0
   -7.2360   10.0972  -29.0543 O   0  0  0  0  0  0  0  0  0  0  0  0
   -5.2130   11.6593  -27.3145 Br  0  0  0  0  0  0  0  0  0  0  0  0
   -6.6264   10.4035  -35.0381 H   0  0  0  0  0  0  0  0  0  0  0  0
   -4.8418   11.7676  -34.0334 H   0  0  0  0  0  0  0  0  0  0  0  0
   -3.6135   12.8068  -29.5051 H   0  0  0  0  0  0  0  0  0  0  0  0
   -8.2313    9.2382  -33.5171 H   0  0  0  0  0  0  0  0  0  0  0  0
   -2.5522   12.2438  -32.3272 H   0  0  0  0  0  0  0  0  0  0  0  0
   -3.8306   13.1998  -33.1165 H   0  0  0  0  0  0  0  0  0  0  0  0
   -3.1073   13.7800  -31.6173 H   0  0  0  0  0  0  0  0  0  0  0  0
   -7.8544    9.6194  -29.6249 H   0  0  0  0  0  0  0  0  0  0  0  0
  1  2  1  0  0  0  0
  1  4  2  0  0  0  0
  2  5  2  0  0  0  0
  3  6  2  0  0  0  0
  3  9  1  0  0  0  0
  4 11  1  0  0  0  0
  5  6  1  0  0  0  0
  5  7  1  0  0  0  0
  6 10  1  0  0  0  0
  7  8  1  0  0  0  0
  7 11  2  0  0  0  0
  8  9  2  0  0  0  0
  8 12  1  0  0  0  0
  9 13  1  0  0  0  0
  1 14  1  0  0  0  0
  2 15  1  0  0  0  0
  3 16  1  0  0  0  0
  4 17  1  0  0  0  0
 10 18  1  0  0  0  0
 10 19  1  0  0  0  0
 10 20  1  0  0  0  0
 12 21  1  0  0  0  0
M  END
> <id>
EN300-25989833

> <smiles>
CC=1C=C(Br)C(O)=C2N=CC=CC12

> <MDLNUMBER>
MFCD00864659

> <IUPAC Name>
7-bromo-5-methylquinolin-8-ol

> <CAS>
7175-09-9

> <URL>
https://www.enaminestore.com/catalog/EN300-25989833

> <ROCS_ShapeQuery>
_x1604L0AP1_x0771L0AP1

> <ROCS_TanimotoCombo>
0.920 

> <ROCS_ShapeTanimoto>
0.546 

> <ROCS_ColorTanimoto>
0.375 

> <ROCS_RefTversky>
0.486 

> <ROCS_RefColorTversky>
0.423 

> <ROCS_RefTverskyCombo>
0.909 

> <ROCS_FitTversky>
1.287 

> <ROCS_FitColorTversky>
0.767 

> <ROCS_FitTverskyCombo>
2.054 

> <ROCS_ColorScore>
-4.829

> <ROCS_Overlap>
825.234

> <ROCS_Rank>
121                 

$$$$
untitled-dbase-853_77
  -OEChem-06042309053D

 18 18  0     0  0  0  0  0  0999 V2000
   -4.5744   12.4555  -29.8209 C   0  0  0  0  0  0  0  0  0  0  0  0
   -5.5603   11.7642  -29.1169 C   0  0  0  0  0  0  0  0  0  0  0  0
   -5.0487   11.1314  -31.7853 C   0  0  0  0  0  0  0  0  0  0  0  0
   -4.3186   12.1391  -31.1552 C   0  0  0  0  0  0  0  0  0  0  0  0
   -6.2904   10.7565  -29.7470 C   0  0  0  0  0  0  0  0  0  0  0  0
   -6.0346   10.4400  -31.0812 C   0  0  0  0  0  0  0  0  0  0  0  0
   -3.2899   12.8598  -31.8884 C   0  0  0  0  0  0  0  0  0  0  0  0
   -3.4102   14.3779  -32.0613 C   0  0  0  0  0  0  0  0  0  0  0  0
   -2.3152   12.2501  -32.3737 O   0  0  0  0  0  0  0  0  0  0  0  0
   -7.2474   10.1006  -29.0313 O   0  0  0  0  0  0  0  0  0  0  0  0
   -3.4081   15.2178  -30.4967 Cl  0  0  0  0  0  0  0  0  0  0  0  0
   -7.0075    9.0774  -31.9697 Br  0  0  0  0  0  0  0  0  0  0  0  0
   -4.0114   13.2390  -29.3202 H   0  0  0  0  0  0  0  0  0  0  0  0
   -5.7546   12.0167  -28.0779 H   0  0  0  0  0  0  0  0  0  0  0  0
   -4.8431   10.8895  -32.8259 H   0  0  0  0  0  0  0  0  0  0  0  0
   -2.5571   14.7513  -32.6331 H   0  0  0  0  0  0  0  0  0  0  0  0
   -4.3529   14.6171  -32.5593 H   0  0  0  0  0  0  0  0  0  0  0  0
   -7.6768    9.4293  -29.5840 H   0  0  0  0  0  0  0  0  0  0  0  0
  1  2  1  0  0  0  0
  1  4  2  0  0  0  0
  2  5  2  0  0  0  0
  3  4  1  0  0  0  0
  3  6  2  0  0  0  0
  4  7  1  0  0  0  0
  5  6  1  0  0  0  0
  5 10  1  0  0  0  0
  6 12  1  0  0  0  0
  7  8  1  0  0  0  0
  7  9  2  0  0  0  0
  8 11  1  0  0  0  0
  1 13  1  0  0  0  0
  2 14  1  0  0  0  0
  3 15  1  0  0  0  0
  8 16  1  0  0  0  0
  8 17  1  0  0  0  0
 10 18  1  0  0  0  0
M  END
> <id>
EN300-1911789

> <smiles>
OC=1C=CC(=CC1Br)C(=O)CCl

> <MDLNUMBER>
MFCD28741207

> <IUPAC Name>
1-(3-bromo-4-hydroxyphenyl)-2-chloroethan-1-one

> <CAS>
1807163-83-2

> <URL>
https://www.enaminestore.com/catalog/EN300-1911789

> <ROCS_ShapeQuery>
_x1604L0AP1_x0771L0AP1

> <ROCS_TanimotoCombo>
0.920 

> <ROCS_ShapeTanimoto>
0.507 

> <ROCS_ColorTanimoto>
0.413 

> <ROCS_RefTversky>
0.448 

> <ROCS_RefColorTversky>
0.429 

> <ROCS_RefTverskyCombo>
0.877 

> <ROCS_FitTversky>
1.354 

> <ROCS_FitColorTversky>
0.914 

> <ROCS_FitTverskyCombo>
2.268 

> <ROCS_ColorScore>
-4.878

> <ROCS_Overlap>
758.277

> <ROCS_Rank>
122                 

$$$$
untitled-dbase-829_32
  -OEChem-06042309053D

 27 28  0     0  0  0  0  0  0999 V2000
   -6.7212   10.2323  -35.0001 C   0  0  0  0  0  0  0  0  0  0  0  0
   -6.6153   10.7156  -33.6959 C   0  0  0  0  0  0  0  0  0  0  0  0
   -6.6201    8.8631  -35.2469 C   0  0  0  0  0  0  0  0  0  0  0  0
   -6.4081    9.8297  -32.6386 C   0  0  0  0  0  0  0  0  0  0  0  0
   -6.4129    7.9773  -34.1895 C   0  0  0  0  0  0  0  0  0  0  0  0
   -6.3069    8.4606  -32.8853 C   0  0  0  0  0  0  0  0  0  0  0  0
   -4.4564   11.5413  -30.8854 C   0  0  0  0  0  0  0  0  0  0  0  0
   -4.9557   10.1819  -30.3651 C   0  0  0  0  0  0  0  0  0  0  0  0
   -5.9312   11.9612  -31.0161 C   0  0  0  0  0  0  0  0  0  0  0  0
   -6.2927   10.4377  -31.1503 C   0  0  0  0  0  0  0  0  0  0  0  0
   -7.5391   10.0461  -30.3530 C   0  0  0  0  0  0  0  0  0  0  0  0
   -6.3190    6.6461  -34.4691 O   0  0  0  0  0  0  0  0  0  0  0  0
   -7.2380   10.1531  -28.9755 O   0  0  0  0  0  0  0  0  0  0  0  0
   -6.0245    7.2468  -31.4487 Br  0  0  0  0  0  0  0  0  0  0  0  0
   -6.8825   10.9220  -35.8234 H   0  0  0  0  0  0  0  0  0  0  0  0
   -6.6954   11.7838  -33.5133 H   0  0  0  0  0  0  0  0  0  0  0  0
   -6.7036    8.4941  -36.2656 H   0  0  0  0  0  0  0  0  0  0  0  0
   -3.8935   12.1202  -30.1466 H   0  0  0  0  0  0  0  0  0  0  0  0
   -3.8894   11.5107  -31.8181 H   0  0  0  0  0  0  0  0  0  0  0  0
   -4.3725    9.3350  -30.7395 H   0  0  0  0  0  0  0  0  0  0  0  0
   -5.0409   10.0987  -29.2808 H   0  0  0  0  0  0  0  0  0  0  0  0
   -6.3474   12.4820  -30.1529 H   0  0  0  0  0  0  0  0  0  0  0  0
   -6.1346   12.5496  -31.9157 H   0  0  0  0  0  0  0  0  0  0  0  0
   -7.8159    9.0200  -30.5865 H   0  0  0  0  0  0  0  0  0  0  0  0
   -8.3584   10.7182  -30.5999 H   0  0  0  0  0  0  0  0  0  0  0  0
   -6.1762    6.1427  -33.6527 H   0  0  0  0  0  0  0  0  0  0  0  0
   -8.0400    9.9009  -28.4857 H   0  0  0  0  0  0  0  0  0  0  0  0
  1  2  1  0  0  0  0
  1  3  2  0  0  0  0
  2  4  2  0  0  0  0
  3  5  1  0  0  0  0
  4  6  1  0  0  0  0
  4 10  1  0  0  0  0
  5  6  2  0  0  0  0
  5 12  1  0  0  0  0
  6 14  1  0  0  0  0
  7  8  1  0  0  0  0
  7  9  1  0  0  0  0
  8 10  1  0  0  0  0
  9 10  1  0  0  0  0
 10 11  1  0  0  0  0
 11 13  1  0  0  0  0
  1 15  1  0  0  0  0
  2 16  1  0  0  0  0
  3 17  1  0  0  0  0
  7 18  1  0  0  0  0
  7 19  1  0  0  0  0
  8 20  1  0  0  0  0
  8 21  1  0  0  0  0
  9 22  1  0  0  0  0
  9 23  1  0  0  0  0
 11 24  1  0  0  0  0
 11 25  1  0  0  0  0
 12 26  1  0  0  0  0
 13 27  1  0  0  0  0
M  END
> <id>
EN300-1904568

> <smiles>
OCC1(CCC1)C=2C=CC=C(O)C2Br

> <IUPAC Name>
2-bromo-3-[1-(hydroxymethyl)cyclobutyl]phenol

> <CAS>
2229598-77-8

> <URL>
https://www.enaminestore.com/catalog/EN300-1904568

> <ROCS_ShapeQuery>
_x1604L0AP1_x0771L0AP1

> <ROCS_TanimotoCombo>
0.920 

> <ROCS_ShapeTanimoto>
0.495 

> <ROCS_ColorTanimoto>
0.425 

> <ROCS_RefTversky>
0.459 

> <ROCS_RefColorTversky>
0.486 

> <ROCS_RefTverskyCombo>
0.945 

> <ROCS_FitTversky>
1.191 

> <ROCS_FitColorTversky>
0.770 

> <ROCS_FitTverskyCombo>
1.962 

> <ROCS_ColorScore>
-5.574

> <ROCS_Overlap>
778.807

> <ROCS_Rank>
123                 

$$$$
untitled-dbase-1242_469
  -OEChem-06042309053D

 27 27  0     0  0  0  0  0  0999 V2000
   -3.0967   14.7766  -30.2260 C   0  0  0  0  0  0  0  0  0  0  0  0
   -5.2053   11.3610  -31.8240 C   0  0  0  0  0  0  0  0  0  0  0  0
   -4.3932   12.2996  -29.7513 C   0  0  0  0  0  0  0  0  0  0  0  0
   -4.3072   12.1787  -31.1383 C   0  0  0  0  0  0  0  0  0  0  0  0
   -6.1895   10.6643  -31.1229 C   0  0  0  0  0  0  0  0  0  0  0  0
   -6.2755   10.7851  -29.7359 C   0  0  0  0  0  0  0  0  0  0  0  0
   -5.3773   11.6028  -29.0501 C   0  0  0  0  0  0  0  0  0  0  0  0
   -6.8776    8.9642  -34.0159 C   0  0  0  0  0  0  0  0  0  0  0  0
   -2.3410   13.7796  -30.9986 C   0  0  0  0  0  0  0  0  0  0  0  0
   -3.2546   12.9228  -31.8882 C   0  0  0  0  0  0  0  0  0  0  0  0
   -6.4998    8.7948  -32.5598 C   0  0  0  0  0  0  0  0  0  0  0  0
   -3.6925   15.5625  -29.6147 N   0  0  0  0  0  0  0  0  0  0  0  0
   -7.2444   10.0948  -29.0677 O   0  0  0  0  0  0  0  0  0  0  0  0
   -7.0591    9.8690  -31.8067 O   0  0  0  0  0  0  0  0  0  0  0  0
   -5.4628   11.7922  -27.1657 Br  0  0  0  0  0  0  0  0  0  0  0  0
   -5.1402   11.2649  -32.9052 H   0  0  0  0  0  0  0  0  0  0  0  0
   -3.6879   12.9395  -29.2253 H   0  0  0  0  0  0  0  0  0  0  0  0
   -7.9639    8.9498  -34.1413 H   0  0  0  0  0  0  0  0  0  0  0  0
   -6.4889    9.9097  -34.4081 H   0  0  0  0  0  0  0  0  0  0  0  0
   -6.4413    8.1643  -34.6233 H   0  0  0  0  0  0  0  0  0  0  0  0
   -1.6138   14.3027  -31.6311 H   0  0  0  0  0  0  0  0  0  0  0  0
   -1.7667   13.1419  -30.3163 H   0  0  0  0  0  0  0  0  0  0  0  0
   -2.6222   12.2033  -32.4331 H   0  0  0  0  0  0  0  0  0  0  0  0
   -3.7070   13.5585  -32.6668 H   0  0  0  0  0  0  0  0  0  0  0  0
   -5.4122    8.8101  -32.4413 H   0  0  0  0  0  0  0  0  0  0  0  0
   -6.8896    7.8501  -32.1693 H   0  0  0  0  0  0  0  0  0  0  0  0
   -7.7769    9.5793  -29.6925 H   0  0  0  0  0  0  0  0  0  0  0  0
  1  9  1  0  0  0  0
  1 12  3  0  0  0  0
  2  4  1  0  0  0  0
  2  5  2  0  0  0  0
  3  4  2  0  0  0  0
  3  7  1  0  0  0  0
  4 10  1  0  0  0  0
  5  6  1  0  0  0  0
  5 14  1  0  0  0  0
  6  7  2  0  0  0  0
  6 13  1  0  0  0  0
  7 15  1  0  0  0  0
  8 11  1  0  0  0  0
  9 10  1  0  0  0  0
 11 14  1  0  0  0  0
  2 16  1  0  0  0  0
  3 17  1  0  0  0  0
  8 18  1  0  0  0  0
  8 19  1  0  0  0  0
  8 20  1  0  0  0  0
  9 21  1  0  0  0  0
  9 22  1  0  0  0  0
 10 23  1  0  0  0  0
 10 24  1  0  0  0  0
 11 25  1  0  0  0  0
 11 26  1  0  0  0  0
 13 27  1  0  0  0  0
M  END
> <id>
EN300-1920236

> <smiles>
CCOC=1C=C(CCC#N)C=C(Br)C1O

> <IUPAC Name>
3-(3-bromo-5-ethoxy-4-hydroxyphenyl)propanenitrile

> <CAS>
2228370-69-0

> <URL>
https://www.enaminestore.com/catalog/EN300-1920236

> <ROCS_ShapeQuery>
_x1604L0AP1_x0771L0AP1

> <ROCS_TanimotoCombo>
0.920 

> <ROCS_ShapeTanimoto>
0.638 

> <ROCS_ColorTanimoto>
0.281 

> <ROCS_RefTversky>
0.546 

> <ROCS_RefColorTversky>
0.341 

> <ROCS_RefTverskyCombo>
0.886 

> <ROCS_FitTversky>
1.360 

> <ROCS_FitColorTversky>
0.618 

> <ROCS_FitTverskyCombo>
1.979 

> <ROCS_ColorScore>
-3.888

> <ROCS_Overlap>
927.395

> <ROCS_Rank>
124                 

$$$$
untitled-dbase-1384_0
  -OEChem-06042309053D

 23 24  0     0  0  0  0  0  0999 V2000
   -7.3728    9.8825  -31.8459 C   0  0  0  0  0  0  0  0  0  0  0  0
   -4.4725   12.1495  -31.3674 C   0  0  0  0  0  0  0  0  0  0  0  0
   -7.4213    9.7924  -33.2373 C   0  0  0  0  0  0  0  0  0  0  0  0
   -4.4240   12.2396  -29.9760 C   0  0  0  0  0  0  0  0  0  0  0  0
   -5.5151   11.2646  -33.4003 C   0  0  0  0  0  0  0  0  0  0  0  0
   -5.4513   11.3667  -32.0010 C   0  0  0  0  0  0  0  0  0  0  0  0
   -6.3941   10.6653  -31.2122 C   0  0  0  0  0  0  0  0  0  0  0  0
   -6.4943   10.4821  -34.0130 C   0  0  0  0  0  0  0  0  0  0  0  0
   -6.3303   10.7675  -29.8130 C   0  0  0  0  0  0  0  0  0  0  0  0
   -5.3511   11.5499  -29.2002 C   0  0  0  0  0  0  0  0  0  0  0  0
   -7.5714    9.5787  -35.9312 C   0  0  0  0  0  0  0  0  0  0  0  0
   -7.2346   10.0954  -29.0368 O   0  0  0  0  0  0  0  0  0  0  0  0
   -6.5440   10.3945  -35.3705 O   0  0  0  0  0  0  0  0  0  0  0  0
   -5.2461   11.7022  -27.3125 Br  0  0  0  0  0  0  0  0  0  0  0  0
   -8.1129    9.3298  -31.2714 H   0  0  0  0  0  0  0  0  0  0  0  0
   -3.7383   12.6977  -31.9542 H   0  0  0  0  0  0  0  0  0  0  0  0
   -8.1860    9.1818  -33.7095 H   0  0  0  0  0  0  0  0  0  0  0  0
   -3.6541   12.8540  -29.5162 H   0  0  0  0  0  0  0  0  0  0  0  0
   -4.7972   11.7980  -34.0207 H   0  0  0  0  0  0  0  0  0  0  0  0
   -7.4975    9.5965  -37.0213 H   0  0  0  0  0  0  0  0  0  0  0  0
   -8.5483    9.9533  -35.6154 H   0  0  0  0  0  0  0  0  0  0  0  0
   -7.4444    8.5532  -35.5763 H   0  0  0  0  0  0  0  0  0  0  0  0
   -7.0576   10.2680  -28.1008 H   0  0  0  0  0  0  0  0  0  0  0  0
  1  3  1  0  0  0  0
  1  7  2  0  0  0  0
  2  4  2  0  0  0  0
  2  6  1  0  0  0  0
  3  8  2  0  0  0  0
  4 10  1  0  0  0  0
  5  6  2  0  0  0  0
  5  8  1  0  0  0  0
  6  7  1  0  0  0  0
  7  9  1  0  0  0  0
  8 13  1  0  0  0  0
  9 10  2  0  0  0  0
  9 12  1  0  0  0  0
 10 14  1  0  0  0  0
 11 13  1  0  0  0  0
  1 15  1  0  0  0  0
  2 16  1  0  0  0  0
  3 17  1  0  0  0  0
  4 18  1  0  0  0  0
  5 19  1  0  0  0  0
 11 20  1  0  0  0  0
 11 21  1  0  0  0  0
 11 22  1  0  0  0  0
 12 23  1  0  0  0  0
M  END
> <id>
EN300-1144190

> <smiles>
COC=1C=CC=2C(O)=C(Br)C=CC2C1

> <MDLNUMBER>
MFCD21875085

> <IUPAC Name>
2-bromo-6-methoxynaphthalen-1-ol

> <CAS>
857091-19-1

> <URL>
https://www.enaminestore.com/catalog/EN300-1144190

> <ROCS_ShapeQuery>
_x1604L0AP1_x0771L0AP1

> <ROCS_TanimotoCombo>
0.919 

> <ROCS_ShapeTanimoto>
0.544 

> <ROCS_ColorTanimoto>
0.375 

> <ROCS_RefTversky>
0.493 

> <ROCS_RefColorTversky>
0.423 

> <ROCS_RefTverskyCombo>
0.916 

> <ROCS_FitTversky>
1.234 

> <ROCS_FitColorTversky>
0.768 

> <ROCS_FitTverskyCombo>
2.002 

> <ROCS_ColorScore>
-4.830

> <ROCS_Overlap>
837.860

> <ROCS_Rank>
125                 

$$$$
untitled-dbase-200_61
  -OEChem-06042309053D

 27 27  0     0  0  0  0  0  0999 V2000
   -4.5185   12.4569  -29.7546 C   0  0  0  0  0  0  0  0  0  0  0  0
   -6.0561   10.5481  -31.0870 C   0  0  0  0  0  0  0  0  0  0  0  0
   -6.2728   10.7959  -29.7315 C   0  0  0  0  0  0  0  0  0  0  0  0
   -5.0705   11.2548  -31.7762 C   0  0  0  0  0  0  0  0  0  0  0  0
   -4.3017   12.2091  -31.1100 C   0  0  0  0  0  0  0  0  0  0  0  0
   -5.5040   11.7502  -29.0653 C   0  0  0  0  0  0  0  0  0  0  0  0
   -6.8563    9.5419  -31.8085 C   0  0  0  0  0  0  0  0  0  0  0  0
   -6.2861    8.1772  -35.4212 C   0  0  0  0  0  0  0  0  0  0  0  0
   -7.1223   10.4257  -34.7119 C   0  0  0  0  0  0  0  0  0  0  0  0
   -6.2249    8.7985  -32.9858 C   0  0  0  0  0  0  0  0  0  0  0  0
   -6.9944    8.9542  -34.3093 C   0  0  0  0  0  0  0  0  0  0  0  0
   -8.0098    9.2903  -31.4585 O   0  0  0  0  0  0  0  0  0  0  0  0
   -7.2388   10.0967  -29.0670 O   0  0  0  0  0  0  0  0  0  0  0  0
   -4.8654   11.0151  -33.0806 F   0  0  0  0  0  0  0  0  0  0  0  0
   -3.0839   13.0844  -31.9545 Cl  0  0  0  0  0  0  0  0  0  0  0  0
   -5.7681   12.1152  -27.2235 Br  0  0  0  0  0  0  0  0  0  0  0  0
   -3.9177   13.2026  -29.2382 H   0  0  0  0  0  0  0  0  0  0  0  0
   -5.2695    8.5549  -35.5730 H   0  0  0  0  0  0  0  0  0  0  0  0
   -6.8248    8.2618  -36.3712 H   0  0  0  0  0  0  0  0  0  0  0  0
   -6.2114    7.1146  -35.1668 H   0  0  0  0  0  0  0  0  0  0  0  0
   -6.1412   10.8940  -34.8361 H   0  0  0  0  0  0  0  0  0  0  0  0
   -7.6622   10.9905  -33.9443 H   0  0  0  0  0  0  0  0  0  0  0  0
   -7.6689   10.5333  -35.6551 H   0  0  0  0  0  0  0  0  0  0  0  0
   -5.1971    9.1544  -33.1231 H   0  0  0  0  0  0  0  0  0  0  0  0
   -6.1918    7.7375  -32.7089 H   0  0  0  0  0  0  0  0  0  0  0  0
   -8.0032    8.5374  -34.1992 H   0  0  0  0  0  0  0  0  0  0  0  0
   -7.6756    9.4773  -29.6710 H   0  0  0  0  0  0  0  0  0  0  0  0
  1  5  1  0  0  0  0
  1  6  2  0  0  0  0
  2  3  2  0  0  0  0
  2  4  1  0  0  0  0
  2  7  1  0  0  0  0
  3  6  1  0  0  0  0
  3 13  1  0  0  0  0
  4  5  2  0  0  0  0
  4 14  1  0  0  0  0
  5 15  1  0  0  0  0
  6 16  1  0  0  0  0
  7 10  1  0  0  0  0
  7 12  2  0  0  0  0
  8 11  1  0  0  0  0
  9 11  1  0  0  0  0
 10 11  1  0  0  0  0
  1 17  1  0  0  0  0
  8 18  1  0  0  0  0
  8 19  1  0  0  0  0
  8 20  1  0  0  0  0
  9 21  1  0  0  0  0
  9 22  1  0  0  0  0
  9 23  1  0  0  0  0
 10 24  1  0  0  0  0
 10 25  1  0  0  0  0
 11 26  1  0  0  0  0
 13 27  1  0  0  0  0
M  END
> <id>
EN300-1276410

> <smiles>
CC(C)CC(=O)C=1C(O)=C(Br)C=C(Cl)C1F

> <IUPAC Name>
1-(3-bromo-5-chloro-6-fluoro-2-hydroxyphenyl)-3-methylbutan-1-one

> <CAS>
1698093-30-9

> <URL>
https://www.enaminestore.com/catalog/EN300-1276410

> <ROCS_ShapeQuery>
_x1604L0AP1_x0771L0AP1

> <ROCS_TanimotoCombo>
0.919 

> <ROCS_ShapeTanimoto>
0.638 

> <ROCS_ColorTanimoto>
0.281 

> <ROCS_RefTversky>
0.556 

> <ROCS_RefColorTversky>
0.340 

> <ROCS_RefTverskyCombo>
0.896 

> <ROCS_FitTversky>
1.299 

> <ROCS_FitColorTversky>
0.618 

> <ROCS_FitTverskyCombo>
1.918 

> <ROCS_ColorScore>
-3.887

> <ROCS_Overlap>
945.866

> <ROCS_Rank>
126                 

$$$$
untitled-dbase-1527_0
  -OEChem-06042309053D

 15 15  0     0  0  0  0  0  0999 V2000
   -5.0734   11.1235  -31.8160 C   0  0  0  0  0  0  0  0  0  0  0  0
   -5.5288   11.8042  -29.1492 C   0  0  0  0  0  0  0  0  0  0  0  0
   -6.2706   10.7843  -29.7451 C   0  0  0  0  0  0  0  0  0  0  0  0
   -4.5593   12.4838  -29.8867 C   0  0  0  0  0  0  0  0  0  0  0  0
   -4.3317   12.1434  -31.2201 C   0  0  0  0  0  0  0  0  0  0  0  0
   -6.0430   10.4439  -31.0785 C   0  0  0  0  0  0  0  0  0  0  0  0
   -5.7533   12.1760  -27.7585 C   0  0  0  0  0  0  0  0  0  0  0  0
   -6.5924   11.6247  -27.0433 O   0  0  0  0  0  0  0  0  0  0  0  0
   -7.2181   10.1276  -29.0139 O   0  0  0  0  0  0  0  0  0  0  0  0
   -3.8464   13.4636  -29.3101 F   0  0  0  0  0  0  0  0  0  0  0  0
   -3.1370   12.9781  -32.1359 Cl  0  0  0  0  0  0  0  0  0  0  0  0
   -7.0307    9.0640  -31.9241 Br  0  0  0  0  0  0  0  0  0  0  0  0
   -4.8927   10.8600  -32.8560 H   0  0  0  0  0  0  0  0  0  0  0  0
   -5.1295   12.9961  -27.3440 H   0  0  0  0  0  0  0  0  0  0  0  0
   -7.2497   10.4849  -28.1136 H   0  0  0  0  0  0  0  0  0  0  0  0
  1  5  2  0  0  0  0
  1  6  1  0  0  0  0
  2  3  1  0  0  0  0
  2  4  2  0  0  0  0
  2  7  1  0  0  0  0
  3  6  2  0  0  0  0
  3  9  1  0  0  0  0
  4  5  1  0  0  0  0
  4 10  1  0  0  0  0
  5 11  1  0  0  0  0
  6 12  1  0  0  0  0
  7  8  2  0  0  0  0
  1 13  1  0  0  0  0
  7 14  1  0  0  0  0
  9 15  1  0  0  0  0
M  END
> <id>
EN300-1276473

> <smiles>
OC=1C(Br)=CC(Cl)=C(F)C1C=O

> <MDLNUMBER>
MFCD29934849

> <IUPAC Name>
3-bromo-5-chloro-6-fluoro-2-hydroxybenzaldehyde

> <CAS>
1692795-76-8

> <URL>
https://www.enaminestore.com/catalog/EN300-1276473

> <ROCS_ShapeQuery>
_x1604L0AP1_x0771L0AP1

> <ROCS_TanimotoCombo>
0.919 

> <ROCS_ShapeTanimoto>
0.495 

> <ROCS_ColorTanimoto>
0.424 

> <ROCS_RefTversky>
0.443 

> <ROCS_RefColorTversky>
0.437 

> <ROCS_RefTverskyCombo>
0.881 

> <ROCS_FitTversky>
1.310 

> <ROCS_FitColorTversky>
0.931 

> <ROCS_FitTverskyCombo>
2.242 

> <ROCS_ColorScore>
-4.972

> <ROCS_Overlap>
750.433

> <ROCS_Rank>
127                 

$$$$
untitled-dbase-539_664
  -OEChem-06042309053D

 26 26  0     1  0  0  0  0  0999 V2000
   -6.7333   11.5938  -33.5690 C   0  0  0  0  0  0  0  0  0  0  0  0
   -6.7404   11.8854  -32.2050 C   0  0  0  0  0  0  0  0  0  0  0  0
   -6.5761   10.2765  -33.9998 C   0  0  0  0  0  0  0  0  0  0  0  0
   -6.5901   10.8596  -31.2718 C   0  0  0  0  0  0  0  0  0  0  0  0
   -6.4328    9.5423  -31.7026 C   0  0  0  0  0  0  0  0  0  0  0  0
   -6.4258    9.2507  -33.0666 C   0  0  0  0  0  0  0  0  0  0  0  0
   -4.3528   12.2052  -30.2594 C   0  0  0  0  0  0  0  0  0  0  0  0
   -3.0434   14.1565  -30.5131 C   0  0  0  0  0  0  0  0  0  0  0  0
   -5.1846   11.4307  -29.2655 C   0  0  0  0  0  0  0  0  0  0  0  0
   -6.5995   11.1981  -29.7988 C   0  0  2  0  0  0  0  0  0  0  0  0
   -4.1421   11.8337  -31.4067 O   0  0  0  0  0  0  0  0  0  0  0  0
   -6.2852    8.5499  -30.7774 O   0  0  0  0  0  0  0  0  0  0  0  0
   -7.2115   10.1167  -29.0948 O   0  0  0  0  0  0  0  0  0  0  0  0
   -3.8712   13.3409  -29.6780 O   0  0  0  0  0  0  0  0  0  0  0  0
   -6.2156    7.4735  -33.6922 Br  0  0  0  0  0  0  0  0  0  0  0  0
   -6.8508   12.3924  -34.2957 H   0  0  0  0  0  0  0  0  0  0  0  0
   -6.8658   12.9142  -31.8780 H   0  0  0  0  0  0  0  0  0  0  0  0
   -6.5736   10.0686  -35.0669 H   0  0  0  0  0  0  0  0  0  0  0  0
   -2.7132   15.0350  -29.9535 H   0  0  0  0  0  0  0  0  0  0  0  0
   -3.6076   14.4651  -31.3968 H   0  0  0  0  0  0  0  0  0  0  0  0
   -2.1713   13.5765  -30.8243 H   0  0  0  0  0  0  0  0  0  0  0  0
   -5.1959   12.0044  -28.3304 H   0  0  0  0  0  0  0  0  0  0  0  0
   -4.6677   10.4867  -29.0519 H   0  0  0  0  0  0  0  0  0  0  0  0
   -7.2271   12.0806  -29.6261 H   0  0  0  0  0  0  0  0  0  0  0  0
   -6.3117    8.9223  -29.8830 H   0  0  0  0  0  0  0  0  0  0  0  0
   -7.2031   10.3615  -28.1573 H   0  0  0  0  0  0  0  0  0  0  0  0
  1  2  1  0  0  0  0
  1  3  2  0  0  0  0
  2  4  2  0  0  0  0
  3  6  1  0  0  0  0
  4  5  1  0  0  0  0
  4 10  1  0  0  0  0
  5  6  2  0  0  0  0
  5 12  1  0  0  0  0
  6 15  1  0  0  0  0
  7  9  1  0  0  0  0
  7 11  2  0  0  0  0
  7 14  1  0  0  0  0
  8 14  1  0  0  0  0
  9 10  1  0  0  0  0
 10 13  1  6  0  0  0
  1 16  1  0  0  0  0
  2 17  1  0  0  0  0
  3 18  1  0  0  0  0
  8 19  1  0  0  0  0
  8 20  1  0  0  0  0
  8 21  1  0  0  0  0
  9 22  1  0  0  0  0
  9 23  1  0  0  0  0
 10 24  1  0  0  0  0
 12 25  1  0  0  0  0
 13 26  1  0  0  0  0
M  END
> <id>
EN300-1923421

> <smiles>
COC(=O)C[C@H](O)C=1C=CC=C(Br)C1O

> <IUPAC Name>
methyl (3S)-3-(3-bromo-2-hydroxyphenyl)-3-hydroxypropanoate

> <CAS>
2227878-23-9

> <URL>
https://www.enaminestore.com/catalog/EN300-1923421

> <ROCS_ShapeQuery>
_x1604L0AP1_x0771L0AP1

> <ROCS_TanimotoCombo>
0.919 

> <ROCS_ShapeTanimoto>
0.656 

> <ROCS_ColorTanimoto>
0.263 

> <ROCS_RefTversky>
0.557 

> <ROCS_RefColorTversky>
0.340 

> <ROCS_RefTverskyCombo>
0.897 

> <ROCS_FitTversky>
1.369 

> <ROCS_FitColorTversky>
0.538 

> <ROCS_FitTverskyCombo>
1.908 

> <ROCS_ColorScore>
-3.896

> <ROCS_Overlap>
947.064

> <ROCS_Rank>
128                 

$$$$
untitled-dbase-590_664
  -OEChem-06042309053D

 26 26  0     1  0  0  0  0  0999 V2000
   -6.7333   11.5938  -33.5690 C   0  0  0  0  0  0  0  0  0  0  0  0
   -6.7404   11.8854  -32.2050 C   0  0  0  0  0  0  0  0  0  0  0  0
   -6.5761   10.2765  -33.9998 C   0  0  0  0  0  0  0  0  0  0  0  0
   -6.5901   10.8596  -31.2718 C   0  0  0  0  0  0  0  0  0  0  0  0
   -6.4328    9.5423  -31.7026 C   0  0  0  0  0  0  0  0  0  0  0  0
   -6.4258    9.2507  -33.0666 C   0  0  0  0  0  0  0  0  0  0  0  0
   -4.3528   12.2052  -30.2594 C   0  0  0  0  0  0  0  0  0  0  0  0
   -3.0434   14.1565  -30.5131 C   0  0  0  0  0  0  0  0  0  0  0  0
   -5.1846   11.4307  -29.2655 C   0  0  0  0  0  0  0  0  0  0  0  0
   -6.5995   11.1981  -29.7988 C   0  0  2  0  0  0  0  0  0  0  0  0
   -4.1421   11.8337  -31.4067 O   0  0  0  0  0  0  0  0  0  0  0  0
   -6.2852    8.5499  -30.7774 O   0  0  0  0  0  0  0  0  0  0  0  0
   -7.2115   10.1167  -29.0948 O   0  0  0  0  0  0  0  0  0  0  0  0
   -3.8712   13.3409  -29.6780 O   0  0  0  0  0  0  0  0  0  0  0  0
   -6.2156    7.4735  -33.6922 Br  0  0  0  0  0  0  0  0  0  0  0  0
   -6.8508   12.3924  -34.2957 H   0  0  0  0  0  0  0  0  0  0  0  0
   -6.8658   12.9142  -31.8780 H   0  0  0  0  0  0  0  0  0  0  0  0
   -6.5736   10.0686  -35.0669 H   0  0  0  0  0  0  0  0  0  0  0  0
   -2.7132   15.0350  -29.9535 H   0  0  0  0  0  0  0  0  0  0  0  0
   -3.6076   14.4651  -31.3968 H   0  0  0  0  0  0  0  0  0  0  0  0
   -2.1713   13.5765  -30.8243 H   0  0  0  0  0  0  0  0  0  0  0  0
   -5.1959   12.0044  -28.3304 H   0  0  0  0  0  0  0  0  0  0  0  0
   -4.6677   10.4867  -29.0519 H   0  0  0  0  0  0  0  0  0  0  0  0
   -7.2271   12.0806  -29.6261 H   0  0  0  0  0  0  0  0  0  0  0  0
   -6.3117    8.9223  -29.8830 H   0  0  0  0  0  0  0  0  0  0  0  0
   -7.2031   10.3615  -28.1573 H   0  0  0  0  0  0  0  0  0  0  0  0
  1  2  1  0  0  0  0
  1  3  2  0  0  0  0
  2  4  2  0  0  0  0
  3  6  1  0  0  0  0
  4  5  1  0  0  0  0
  4 10  1  0  0  0  0
  5  6  2  0  0  0  0
  5 12  1  0  0  0  0
  6 15  1  0  0  0  0
  7  9  1  0  0  0  0
  7 11  2  0  0  0  0
  7 14  1  0  0  0  0
  8 14  1  0  0  0  0
  9 10  1  0  0  0  0
 10 13  1  0  0  0  0
  1 16  1  0  0  0  0
  2 17  1  0  0  0  0
  3 18  1  0  0  0  0
  8 19  1  0  0  0  0
  8 20  1  0  0  0  0
  8 21  1  0  0  0  0
  9 22  1  0  0  0  0
  9 23  1  0  0  0  0
 10 24  1  0  0  0  0
 12 25  1  0  0  0  0
 13 26  1  0  0  0  0
M  END
> <id>
EN300-1923424

> <smiles>
COC(=O)CC(O)C=1C=CC=C(Br)C1O

> <IUPAC Name>
methyl 3-(3-bromo-2-hydroxyphenyl)-3-hydroxypropanoate

> <CAS>
2229145-80-4

> <URL>
https://www.enaminestore.com/catalog/EN300-1923424

> <ROCS_ShapeQuery>
_x1604L0AP1_x0771L0AP1

> <ROCS_TanimotoCombo>
0.919 

> <ROCS_ShapeTanimoto>
0.656 

> <ROCS_ColorTanimoto>
0.263 

> <ROCS_RefTversky>
0.557 

> <ROCS_RefColorTversky>
0.340 

> <ROCS_RefTverskyCombo>
0.897 

> <ROCS_FitTversky>
1.369 

> <ROCS_FitColorTversky>
0.538 

> <ROCS_FitTverskyCombo>
1.908 

> <ROCS_ColorScore>
-3.896

> <ROCS_Overlap>
947.064

> <ROCS_Rank>
129                 

$$$$
untitled-dbase-886_16
  -OEChem-06042309053D

 31 32  0     0  0  0  0  0  0999 V2000
   -4.2754   12.3010  -31.0477 C   0  0  0  0  0  0  0  0  0  0  0  0
   -4.9578   11.3022  -31.7420 C   0  0  0  0  0  0  0  0  0  0  0  0
   -4.5795   12.5527  -29.7098 C   0  0  0  0  0  0  0  0  0  0  0  0
   -5.9445   10.5551  -31.0986 C   0  0  0  0  0  0  0  0  0  0  0  0
   -6.2486   10.8068  -29.7607 C   0  0  0  0  0  0  0  0  0  0  0  0
   -5.5661   11.8056  -29.0664 C   0  0  0  0  0  0  0  0  0  0  0  0
   -6.2781   10.6525  -34.1744 C   0  0  0  0  0  0  0  0  0  0  0  0
   -7.1558    9.4680  -34.4562 C   0  0  0  0  0  0  0  0  0  0  0  0
   -6.1479    9.4042  -33.3302 C   0  0  0  0  0  0  0  0  0  0  0  0
   -8.1963    9.7744  -31.9149 C   0  0  0  0  0  0  0  0  0  0  0  0
   -6.5261    8.0444  -31.2833 C   0  0  0  0  0  0  0  0  0  0  0  0
   -6.6850    9.4598  -31.8836 C   0  0  0  0  0  0  0  0  0  0  0  0
   -4.9487    8.5570  -33.5032 N   0  0  0  0  0  0  0  0  0  0  0  0
   -7.2176   10.0685  -29.1455 O   0  0  0  0  0  0  0  0  0  0  0  0
   -5.9494   12.1775  -27.2474 Br  0  0  0  0  0  0  0  0  0  0  0  0
   -3.5068   12.8824  -31.5485 H   0  0  0  0  0  0  0  0  0  0  0  0
   -4.7129   11.1111  -32.7835 H   0  0  0  0  0  0  0  0  0  0  0  0
   -4.0367   13.3349  -29.1850 H   0  0  0  0  0  0  0  0  0  0  0  0
   -5.4970   10.8804  -34.8904 H   0  0  0  0  0  0  0  0  0  0  0  0
   -6.7415   11.5293  -33.7374 H   0  0  0  0  0  0  0  0  0  0  0  0
   -8.2074    9.5505  -34.2081 H   0  0  0  0  0  0  0  0  0  0  0  0
   -6.9615    8.9030  -35.3605 H   0  0  0  0  0  0  0  0  0  0  0  0
   -8.7660    9.0180  -32.4657 H   0  0  0  0  0  0  0  0  0  0  0  0
   -8.6130    9.8139  -30.9016 H   0  0  0  0  0  0  0  0  0  0  0  0
   -8.3878   10.7427  -32.3923 H   0  0  0  0  0  0  0  0  0  0  0  0
   -7.0708    7.3001  -31.8767 H   0  0  0  0  0  0  0  0  0  0  0  0
   -5.4757    7.7313  -31.2602 H   0  0  0  0  0  0  0  0  0  0  0  0
   -6.9206    7.9928  -30.2617 H   0  0  0  0  0  0  0  0  0  0  0  0
   -4.9364    8.2558  -34.4431 H   0  0  0  0  0  0  0  0  0  0  0  0
   -4.1633    9.1156  -33.2900 H   0  0  0  0  0  0  0  0  0  0  0  0
   -7.3186   10.3534  -28.2246 H   0  0  0  0  0  0  0  0  0  0  0  0
  1  2  1  0  0  0  0
  1  3  2  0  0  0  0
  2  4  2  0  0  0  0
  3  6  1  0  0  0  0
  4  5  1  0  0  0  0
  4 12  1  0  0  0  0
  5  6  2  0  0  0  0
  5 14  1  0  0  0  0
  6 15  1  0  0  0  0
  7  8  1  0  0  0  0
  7  9  1  0  0  0  0
  8  9  1  0  0  0  0
  9 12  1  0  0  0  0
  9 13  1  0  0  0  0
 10 12  1  0  0  0  0
 11 12  1  0  0  0  0
  1 16  1  0  0  0  0
  2 17  1  0  0  0  0
  3 18  1  0  0  0  0
  7 19  1  0  0  0  0
  7 20  1  0  0  0  0
  8 21  1  0  0  0  0
  8 22  1  0  0  0  0
 10 23  1  0  0  0  0
 10 24  1  0  0  0  0
 10 25  1  0  0  0  0
 11 26  1  0  0  0  0
 11 27  1  0  0  0  0
 11 28  1  0  0  0  0
 13 29  1  0  0  0  0
 13 30  1  0  0  0  0
 14 31  1  0  0  0  0
M  END
> <id>
EN300-1923491

> <smiles>
CC(C)(C=1C=CC=C(Br)C1O)C2(N)CC2

> <IUPAC Name>
2-[2-(1-aminocyclopropyl)propan-2-yl]-6-bromophenol

> <CAS>
2228733-63-7

> <URL>
https://www.enaminestore.com/catalog/EN300-1923491

> <ROCS_ShapeQuery>
_x1604L0AP1_x0771L0AP1

> <ROCS_TanimotoCombo>
0.919 

> <ROCS_ShapeTanimoto>
0.573 

> <ROCS_ColorTanimoto>
0.346 

> <ROCS_RefTversky>
0.514 

> <ROCS_RefColorTversky>
0.419 

> <ROCS_RefTverskyCombo>
0.933 

> <ROCS_FitTversky>
1.248 

> <ROCS_FitColorTversky>
0.664 

> <ROCS_FitTverskyCombo>
1.912 

> <ROCS_ColorScore>
-4.803

> <ROCS_Overlap>
874.385

> <ROCS_Rank>
130                 

$$$$
untitled-dbase-1322_5
  -OEChem-06042309053D

 20 20  0     0  0  0  0  0  0999 V2000
   -4.5834   12.4690  -29.8106 C   0  0  0  0  0  0  0  0  0  0  0  0
   -5.0509   11.1403  -31.7735 C   0  0  0  0  0  0  0  0  0  0  0  0
   -5.5675   11.7752  -29.1065 C   0  0  0  0  0  0  0  0  0  0  0  0
   -6.2933   10.7639  -29.7359 C   0  0  0  0  0  0  0  0  0  0  0  0
   -4.3251   12.1516  -31.1441 C   0  0  0  0  0  0  0  0  0  0  0  0
   -6.0350   10.4465  -31.0694 C   0  0  0  0  0  0  0  0  0  0  0  0
   -5.0217   13.1422  -27.2385 C   0  0  0  0  0  0  0  0  0  0  0  0
   -3.3929   12.9037  -33.4388 O   0  0  0  0  0  0  0  0  0  0  0  0
   -2.9014   14.3014  -31.3731 O   0  0  0  0  0  0  0  0  0  0  0  0
   -7.2518   10.0968  -29.0301 O   0  0  0  0  0  0  0  0  0  0  0  0
   -5.8088   12.0962  -27.8045 O   0  0  0  0  0  0  0  0  0  0  0  0
   -1.7238   12.2410  -31.8233 F   0  0  0  0  0  0  0  0  0  0  0  0
   -3.0931   13.0205  -32.0250 S   0  0  0  0  0  0  0  0  0  0  0  0
   -7.0003    9.0787  -31.9588 Br  0  0  0  0  0  0  0  0  0  0  0  0
   -4.0199   13.2566  -29.3162 H   0  0  0  0  0  0  0  0  0  0  0  0
   -4.8439   10.8984  -32.8135 H   0  0  0  0  0  0  0  0  0  0  0  0
   -5.3149   13.2971  -26.1973 H   0  0  0  0  0  0  0  0  0  0  0  0
   -5.1702   14.0615  -27.8106 H   0  0  0  0  0  0  0  0  0  0  0  0
   -3.9681   12.8561  -27.2793 H   0  0  0  0  0  0  0  0  0  0  0  0
   -7.2996   10.4416  -28.1255 H   0  0  0  0  0  0  0  0  0  0  0  0
  1  3  2  0  0  0  0
  1  5  1  0  0  0  0
  2  5  2  0  0  0  0
  2  6  1  0  0  0  0
  3  4  1  0  0  0  0
  3 11  1  0  0  0  0
  4  6  2  0  0  0  0
  4 10  1  0  0  0  0
  5 13  1  0  0  0  0
  6 14  1  0  0  0  0
  7 11  1  0  0  0  0
  8 13  2  0  0  0  0
  9 13  2  0  0  0  0
 12 13  1  0  0  0  0
  1 15  1  0  0  0  0
  2 16  1  0  0  0  0
  7 17  1  0  0  0  0
  7 18  1  0  0  0  0
  7 19  1  0  0  0  0
 10 20  1  0  0  0  0
M  END
> <id>
EN300-6493422

> <smiles>
COC=1C=C(C=C(Br)C1O)S(=O)(=O)F

> <IUPAC Name>
3-bromo-4-hydroxy-5-methoxybenzene-1-sulfonyl fluoride

> <CAS>
2247103-05-3

> <URL>
https://www.enaminestore.com/catalog/EN300-6493422

> <ROCS_ShapeQuery>
_x1604L0AP1_x0771L0AP1

> <ROCS_TanimotoCombo>
0.918 

> <ROCS_ShapeTanimoto>
0.503 

> <ROCS_ColorTanimoto>
0.415 

> <ROCS_RefTversky>
0.461 

> <ROCS_RefColorTversky>
0.431 

> <ROCS_RefTverskyCombo>
0.892 

> <ROCS_FitTversky>
1.219 

> <ROCS_FitColorTversky>
0.918 

> <ROCS_FitTverskyCombo>
2.137 

> <ROCS_ColorScore>
-4.898

> <ROCS_Overlap>
782.575

> <ROCS_Rank>
131                 

$$$$
untitled-dbase-1413_20
  -OEChem-06042309053D

 22 22  0     0  0  0  0  0  0999 V2000
   -4.9592   11.4397  -31.7189 C   0  0  0  0  0  0  0  0  0  0  0  0
   -4.5936   12.5279  -29.5931 C   0  0  0  0  0  0  0  0  0  0  0  0
   -5.9422   10.6376  -31.1393 C   0  0  0  0  0  0  0  0  0  0  0  0
   -6.2509   10.7807  -29.7866 C   0  0  0  0  0  0  0  0  0  0  0  0
   -4.2848   12.3848  -30.9458 C   0  0  0  0  0  0  0  0  0  0  0  0
   -5.5766   11.7258  -29.0135 C   0  0  0  0  0  0  0  0  0  0  0  0
   -6.6298    9.6589  -31.9715 C   0  0  0  0  0  0  0  0  0  0  0  0
   -6.0824    9.0192  -33.0265 C   0  0  0  0  0  0  0  0  0  0  0  0
   -6.8692    8.0244  -33.8095 C   0  0  0  0  0  0  0  0  0  0  0  0
   -8.1263    8.5266  -34.4699 C   0  0  0  0  0  0  0  0  0  0  0  0
   -6.5083    6.8568  -33.9372 O   0  0  0  0  0  0  0  0  0  0  0  0
   -7.2143    9.9923  -29.2243 O   0  0  0  0  0  0  0  0  0  0  0  0
   -3.0719   13.3745  -31.6610 Cl  0  0  0  0  0  0  0  0  0  0  0  0
   -5.9669   11.9512  -27.1715 Br  0  0  0  0  0  0  0  0  0  0  0  0
   -4.7165   11.3307  -32.7743 H   0  0  0  0  0  0  0  0  0  0  0  0
   -4.0648   13.2662  -28.9935 H   0  0  0  0  0  0  0  0  0  0  0  0
   -7.6613    9.4279  -31.6877 H   0  0  0  0  0  0  0  0  0  0  0  0
   -5.0572    9.1925  -33.3337 H   0  0  0  0  0  0  0  0  0  0  0  0
   -7.8884    8.8860  -35.4743 H   0  0  0  0  0  0  0  0  0  0  0  0
   -8.8518    7.7102  -34.5284 H   0  0  0  0  0  0  0  0  0  0  0  0
   -8.5807    9.3367  -33.8930 H   0  0  0  0  0  0  0  0  0  0  0  0
   -7.3133   10.2088  -28.2852 H   0  0  0  0  0  0  0  0  0  0  0  0
  1  3  2  0  0  0  0
  1  5  1  0  0  0  0
  2  5  2  0  0  0  0
  2  6  1  0  0  0  0
  3  4  1  0  0  0  0
  3  7  1  0  0  0  0
  4  6  2  0  0  0  0
  4 12  1  0  0  0  0
  5 13  1  0  0  0  0
  6 14  1  0  0  0  0
  7  8  2  3  0  0  0
  8  9  1  0  0  0  0
  9 10  1  0  0  0  0
  9 11  2  0  0  0  0
  1 15  1  0  0  0  0
  2 16  1  0  0  0  0
  7 17  1  0  0  0  0
  8 18  1  0  0  0  0
 10 19  1  0  0  0  0
 10 20  1  0  0  0  0
 10 21  1  0  0  0  0
 12 22  1  0  0  0  0
M  END
> <id>
EN300-1922927

> <smiles>
CC(=O)C=CC=1C=C(Cl)C=C(Br)C1O

> <IUPAC Name>
4-(3-bromo-5-chloro-2-hydroxyphenyl)but-3-en-2-one

> <CAS>
2191442-60-9

> <URL>
https://www.enaminestore.com/catalog/EN300-1922927

> <ROCS_ShapeQuery>
_x1604L0AP1_x0771L0AP1

> <ROCS_TanimotoCombo>
0.918 

> <ROCS_ShapeTanimoto>
0.563 

> <ROCS_ColorTanimoto>
0.355 

> <ROCS_RefTversky>
0.496 

> <ROCS_RefColorTversky>
0.385 

> <ROCS_RefTverskyCombo>
0.881 

> <ROCS_FitTversky>
1.315 

> <ROCS_FitColorTversky>
0.820 

> <ROCS_FitTverskyCombo>
2.135 

> <ROCS_ColorScore>
-4.375

> <ROCS_Overlap>
841.613

> <ROCS_Rank>
132                 

$$$$
untitled-dbase-1252_58
  -OEChem-06042309053D

 20 20  0     0  0  0  0  0  0999 V2000
   -4.1634   12.5217  -30.6794 C   0  0  0  0  0  0  0  0  0  0  0  0
   -4.9109   11.7387  -31.5590 C   0  0  0  0  0  0  0  0  0  0  0  0
   -4.4328   12.4845  -29.3113 C   0  0  0  0  0  0  0  0  0  0  0  0
   -5.9279   10.9184  -31.0705 C   0  0  0  0  0  0  0  0  0  0  0  0
   -6.1973   10.8812  -29.7024 C   0  0  0  0  0  0  0  0  0  0  0  0
   -5.4497   11.6642  -28.8228 C   0  0  0  0  0  0  0  0  0  0  0  0
   -7.2249    8.9201  -31.6432 C   0  0  0  0  0  0  0  0  0  0  0  0
   -6.6914   10.1118  -32.0137 C   0  0  0  0  0  0  0  0  0  0  0  0
   -6.9474   10.6303  -33.4164 C   0  0  0  0  0  0  0  0  0  0  0  0
   -7.1950   10.0767  -29.2299 O   0  0  0  0  0  0  0  0  0  0  0  0
   -7.1075    9.2757  -34.5608 Cl  0  0  0  0  0  0  0  0  0  0  0  0
   -5.7822   11.6412  -26.9561 Br  0  0  0  0  0  0  0  0  0  0  0  0
   -3.3715   13.1606  -31.0587 H   0  0  0  0  0  0  0  0  0  0  0  0
   -4.6873   11.7781  -32.6226 H   0  0  0  0  0  0  0  0  0  0  0  0
   -3.8393   13.1014  -28.6412 H   0  0  0  0  0  0  0  0  0  0  0  0
   -7.7949    8.3130  -32.3391 H   0  0  0  0  0  0  0  0  0  0  0  0
   -7.0972    8.5191  -30.6425 H   0  0  0  0  0  0  0  0  0  0  0  0
   -7.8732   11.2113  -33.4864 H   0  0  0  0  0  0  0  0  0  0  0  0
   -6.1381   11.2788  -33.7635 H   0  0  0  0  0  0  0  0  0  0  0  0
   -7.2598   10.1598  -28.2669 H   0  0  0  0  0  0  0  0  0  0  0  0
  1  2  1  0  0  0  0
  1  3  2  0  0  0  0
  2  4  2  0  0  0  0
  3  6  1  0  0  0  0
  4  5  1  0  0  0  0
  4  8  1  0  0  0  0
  5  6  2  0  0  0  0
  5 10  1  0  0  0  0
  6 12  1  0  0  0  0
  7  8  2  0  0  0  0
  8  9  1  0  0  0  0
  9 11  1  0  0  0  0
  1 13  1  0  0  0  0
  2 14  1  0  0  0  0
  3 15  1  0  0  0  0
  7 16  1  0  0  0  0
  7 17  1  0  0  0  0
  9 18  1  0  0  0  0
  9 19  1  0  0  0  0
 10 20  1  0  0  0  0
M  END
> <id>
EN300-1923472

> <smiles>
OC=1C(Br)=CC=CC1C(=C)CCl

> <IUPAC Name>
2-bromo-6-(3-chloroprop-1-en-2-yl)phenol

> <CAS>
2228367-42-6

> <URL>
https://www.enaminestore.com/catalog/EN300-1923472

> <ROCS_ShapeQuery>
_x1604L0AP1_x0771L0AP1

> <ROCS_TanimotoCombo>
0.918 

> <ROCS_ShapeTanimoto>
0.541 

> <ROCS_ColorTanimoto>
0.377 

> <ROCS_RefTversky>
0.467 

> <ROCS_RefColorTversky>
0.402 

> <ROCS_RefTverskyCombo>
0.869 

> <ROCS_FitTversky>
1.417 

> <ROCS_FitColorTversky>
0.856 

> <ROCS_FitTverskyCombo>
2.273 

> <ROCS_ColorScore>
-4.568

> <ROCS_Overlap>
790.031

> <ROCS_Rank>
133                 

$$$$
untitled-dbase-1629_1086
  -OEChem-06042309053D

 26 26  0     1  0  0  0  0  0999 V2000
   -6.8276   11.6905  -31.9235 C   0  0  0  0  0  0  0  0  0  0  0  0
   -7.0826   11.6485  -33.2942 C   0  0  0  0  0  0  0  0  0  0  0  0
   -6.0879    9.3915  -31.9906 C   0  0  0  0  0  0  0  0  0  0  0  0
   -6.3302   10.5620  -31.2717 C   0  0  0  0  0  0  0  0  0  0  0  0
   -6.8402   10.4780  -34.0131 C   0  0  0  0  0  0  0  0  0  0  0  0
   -6.3429    9.3495  -33.3613 C   0  0  0  0  0  0  0  0  0  0  0  0
   -4.5225   12.5752  -30.0304 C   0  0  0  0  0  0  0  0  0  0  0  0
   -2.6359   13.9714  -29.7513 C   0  0  0  0  0  0  0  0  0  0  0  0
   -5.7362   12.0296  -29.3171 C   0  0  0  0  0  0  0  0  0  0  0  0
   -6.0546   10.6087  -29.7864 C   0  0  1  0  0  0  0  0  0  0  0  0
   -4.2204   12.2836  -31.1803 O   0  0  0  0  0  0  0  0  0  0  0  0
   -7.1013   10.4691  -35.3510 O   0  0  0  0  0  0  0  0  0  0  0  0
   -7.2080   10.1194  -29.1010 O   0  0  0  0  0  0  0  0  0  0  0  0
   -3.8277   13.4036  -29.1991 O   0  0  0  0  0  0  0  0  0  0  0  0
   -6.0033    7.7418  -34.3061 Br  0  0  0  0  0  0  0  0  0  0  0  0
   -7.0199   12.6073  -31.3723 H   0  0  0  0  0  0  0  0  0  0  0  0
   -7.4700   12.5317  -33.7952 H   0  0  0  0  0  0  0  0  0  0  0  0
   -5.6994    8.5164  -31.4739 H   0  0  0  0  0  0  0  0  0  0  0  0
   -2.1592   14.6145  -29.0074 H   0  0  0  0  0  0  0  0  0  0  0  0
   -2.8868   14.5514  -30.6429 H   0  0  0  0  0  0  0  0  0  0  0  0
   -1.9514   13.1648  -30.0244 H   0  0  0  0  0  0  0  0  0  0  0  0
   -6.5689   12.7155  -29.5160 H   0  0  0  0  0  0  0  0  0  0  0  0
   -5.5432   12.0701  -28.2377 H   0  0  0  0  0  0  0  0  0  0  0  0
   -5.2309    9.9275  -29.5414 H   0  0  0  0  0  0  0  0  0  0  0  0
   -6.8903    9.6004  -35.7269 H   0  0  0  0  0  0  0  0  0  0  0  0
   -7.0021   10.1613  -28.1551 H   0  0  0  0  0  0  0  0  0  0  0  0
  1  2  1  0  0  0  0
  1  4  2  0  0  0  0
  2  5  2  0  0  0  0
  3  4  1  0  0  0  0
  3  6  2  0  0  0  0
  4 10  1  0  0  0  0
  5  6  1  0  0  0  0
  5 12  1  0  0  0  0
  6 15  1  0  0  0  0
  7  9  1  0  0  0  0
  7 11  2  0  0  0  0
  7 14  1  0  0  0  0
  8 14  1  0  0  0  0
  9 10  1  0  0  0  0
 10 13  1  1  0  0  0
  1 16  1  0  0  0  0
  2 17  1  0  0  0  0
  3 18  1  0  0  0  0
  8 19  1  0  0  0  0
  8 20  1  0  0  0  0
  8 21  1  0  0  0  0
  9 22  1  0  0  0  0
  9 23  1  0  0  0  0
 10 24  1  0  0  0  0
 12 25  1  0  0  0  0
 13 26  1  0  0  0  0
M  END
> <id>
EN300-2002077

> <smiles>
COC(=O)C[C@@H](O)C=1C=CC(O)=C(Br)C1

> <IUPAC Name>
methyl (3R)-3-(3-bromo-4-hydroxyphenyl)-3-hydroxypropanoate

> <CAS>
2227770-79-6

> <URL>
https://www.enaminestore.com/catalog/EN300-2002077

> <ROCS_ShapeQuery>
_x1604L0AP1_x0771L0AP1

> <ROCS_TanimotoCombo>
0.918 

> <ROCS_ShapeTanimoto>
0.655 

> <ROCS_ColorTanimoto>
0.262 

> <ROCS_RefTversky>
0.557 

> <ROCS_RefColorTversky>
0.339 

> <ROCS_RefTverskyCombo>
0.895 

> <ROCS_FitTversky>
1.371 

> <ROCS_FitColorTversky>
0.537 

> <ROCS_FitTverskyCombo>
1.908 

> <ROCS_ColorScore>
-3.886

> <ROCS_Overlap>
945.727

> <ROCS_Rank>
134                 

$$$$
untitled-dbase-2129_8
  -OEChem-06042309053D

 18 18  0     0  0  0  0  0  0999 V2000
   -5.0688   11.1179  -31.8145 C   0  0  0  0  0  0  0  0  0  0  0  0
   -5.5234   11.8037  -29.1488 C   0  0  0  0  0  0  0  0  0  0  0  0
   -6.2677   10.7849  -29.7435 C   0  0  0  0  0  0  0  0  0  0  0  0
   -4.5517   12.4796  -29.8869 C   0  0  0  0  0  0  0  0  0  0  0  0
   -4.3245   12.1367  -31.2198 C   0  0  0  0  0  0  0  0  0  0  0  0
   -6.0404   10.4420  -31.0764 C   0  0  0  0  0  0  0  0  0  0  0  0
   -5.7474   12.1781  -27.7588 C   0  0  0  0  0  0  0  0  0  0  0  0
   -4.9041   13.2839  -27.1966 C   0  0  0  0  0  0  0  0  0  0  0  0
   -6.5728   11.6514  -27.0122 O   0  0  0  0  0  0  0  0  0  0  0  0
   -7.2172   10.1318  -29.0117 O   0  0  0  0  0  0  0  0  0  0  0  0
   -3.8364   13.4583  -29.3115 F   0  0  0  0  0  0  0  0  0  0  0  0
   -3.1273   12.9669  -32.1363 Cl  0  0  0  0  0  0  0  0  0  0  0  0
   -7.0316    9.0636  -31.9204 Br  0  0  0  0  0  0  0  0  0  0  0  0
   -4.8884   10.8524  -32.8540 H   0  0  0  0  0  0  0  0  0  0  0  0
   -5.3407   14.2874  -27.3212 H   0  0  0  0  0  0  0  0  0  0  0  0
   -3.8875   13.3113  -27.6187 H   0  0  0  0  0  0  0  0  0  0  0  0
   -4.7477   13.1992  -26.1064 H   0  0  0  0  0  0  0  0  0  0  0  0
   -7.6485    9.4552  -29.5553 H   0  0  0  0  0  0  0  0  0  0  0  0
  1  5  1  0  0  0  0
  1  6  2  0  0  0  0
  2  3  2  0  0  0  0
  2  4  1  0  0  0  0
  2  7  1  0  0  0  0
  3  6  1  0  0  0  0
  3 10  1  0  0  0  0
  4  5  2  0  0  0  0
  4 11  1  0  0  0  0
  5 12  1  0  0  0  0
  6 13  1  0  0  0  0
  7  8  1  0  0  0  0
  7  9  2  0  0  0  0
  1 14  1  0  0  0  0
  8 15  1  0  0  0  0
  8 16  1  0  0  0  0
  8 17  1  0  0  0  0
 10 18  1  0  0  0  0
M  END
> <id>
EN300-1276915

> <smiles>
CC(=O)C=1C(O)=C(Br)C=C(Cl)C1F

> <IUPAC Name>
1-(3-bromo-5-chloro-6-fluoro-2-hydroxyphenyl)ethan-1-one

> <CAS>
1697975-75-9

> <URL>
https://www.enaminestore.com/catalog/EN300-1276915

> <ROCS_ShapeQuery>
_x1604L0AP1_x0771L0AP1

> <ROCS_TanimotoCombo>
0.917 

> <ROCS_ShapeTanimoto>
0.492 

> <ROCS_ColorTanimoto>
0.425 

> <ROCS_RefTversky>
0.449 

> <ROCS_RefColorTversky>
0.439 

> <ROCS_RefTverskyCombo>
0.888 

> <ROCS_FitTversky>
1.242 

> <ROCS_FitColorTversky>
0.934 

> <ROCS_FitTverskyCombo>
2.176 

> <ROCS_ColorScore>
-4.984

> <ROCS_Overlap>
761.237

> <ROCS_Rank>
135                 

$$$$
untitled-dbase-412_7
  -OEChem-06042309053D

 23 23  0     0  0  0  0  0  0999 V2000
   -6.9429   10.0315  -33.3371 C   0  0  0  0  0  0  0  0  0  0  0  0
   -4.2661   12.2756  -31.0513 C   0  0  0  0  0  0  0  0  0  0  0  0
   -5.0202   11.3437  -31.7644 C   0  0  0  0  0  0  0  0  0  0  0  0
   -4.5048   12.4718  -29.6911 C   0  0  0  0  0  0  0  0  0  0  0  0
   -6.0130   10.6081  -31.1174 C   0  0  0  0  0  0  0  0  0  0  0  0
   -6.2518   10.8043  -29.7571 C   0  0  0  0  0  0  0  0  0  0  0  0
   -5.4976   11.7361  -29.0440 C   0  0  0  0  0  0  0  0  0  0  0  0
   -8.2709    9.3802  -31.3978 C   0  0  0  0  0  0  0  0  0  0  0  0
   -6.1266    8.2150  -31.8803 C   0  0  0  0  0  0  0  0  0  0  0  0
   -6.8094    9.6165  -31.9001 C   0  0  0  0  0  0  0  0  0  0  0  0
   -7.0311   10.3760  -34.4420 N   0  0  0  0  0  0  0  0  0  0  0  0
   -7.2277   10.0781  -29.1385 O   0  0  0  0  0  0  0  0  0  0  0  0
   -5.7907   12.0312  -27.1944 Br  0  0  0  0  0  0  0  0  0  0  0  0
   -3.4927   12.8481  -31.5550 H   0  0  0  0  0  0  0  0  0  0  0  0
   -4.8259   11.1955  -32.8234 H   0  0  0  0  0  0  0  0  0  0  0  0
   -3.9066   13.2020  -29.1518 H   0  0  0  0  0  0  0  0  0  0  0  0
   -8.2792    9.0699  -30.3456 H   0  0  0  0  0  0  0  0  0  0  0  0
   -8.7675    8.6008  -31.9875 H   0  0  0  0  0  0  0  0  0  0  0  0
   -8.8922   10.2825  -31.4656 H   0  0  0  0  0  0  0  0  0  0  0  0
   -5.9947    7.8439  -30.8571 H   0  0  0  0  0  0  0  0  0  0  0  0
   -6.7405    7.4838  -32.4198 H   0  0  0  0  0  0  0  0  0  0  0  0
   -5.1315    8.2213  -32.3420 H   0  0  0  0  0  0  0  0  0  0  0  0
   -7.2788   10.3199  -28.2013 H   0  0  0  0  0  0  0  0  0  0  0  0
  1 10  1  0  0  0  0
  1 11  3  0  0  0  0
  2  3  1  0  0  0  0
  2  4  2  0  0  0  0
  3  5  2  0  0  0  0
  4  7  1  0  0  0  0
  5  6  1  0  0  0  0
  5 10  1  0  0  0  0
  6  7  2  0  0  0  0
  6 12  1  0  0  0  0
  7 13  1  0  0  0  0
  8 10  1  0  0  0  0
  9 10  1  0  0  0  0
  2 14  1  0  0  0  0
  3 15  1  0  0  0  0
  4 16  1  0  0  0  0
  8 17  1  0  0  0  0
  8 18  1  0  0  0  0
  8 19  1  0  0  0  0
  9 20  1  0  0  0  0
  9 21  1  0  0  0  0
  9 22  1  0  0  0  0
 12 23  1  0  0  0  0
M  END
> <id>
EN300-1913683

> <smiles>
CC(C)(C#N)C=1C=CC=C(Br)C1O

> <MDLNUMBER>
MFCD19694918

> <IUPAC Name>
2-(3-bromo-2-hydroxyphenyl)-2-methylpropanenitrile

> <CAS>
1314648-76-4

> <URL>
https://www.enaminestore.com/catalog/EN300-1913683

> <ROCS_ShapeQuery>
_x1604L0AP1_x0771L0AP1

> <ROCS_TanimotoCombo>
0.917 

> <ROCS_ShapeTanimoto>
0.542 

> <ROCS_ColorTanimoto>
0.375 

> <ROCS_RefTversky>
0.478 

> <ROCS_RefColorTversky>
0.423 

> <ROCS_RefTverskyCombo>
0.901 

> <ROCS_FitTversky>
1.329 

> <ROCS_FitColorTversky>
0.769 

> <ROCS_FitTverskyCombo>
2.097 

> <ROCS_ColorScore>
-4.831

> <ROCS_Overlap>
810.060

> <ROCS_Rank>
136                 

$$$$
untitled-dbase-135_0
  -OEChem-06042309053D

 22 23  0     0  0  0  0  0  0999 V2000
   -5.5142   11.2780  -33.4021 C   0  0  0  0  0  0  0  0  0  0  0  0
   -4.4632   12.1448  -31.3658 C   0  0  0  0  0  0  0  0  0  0  0  0
   -6.4991   10.5053  -34.0179 C   0  0  0  0  0  0  0  0  0  0  0  0
   -4.4121   12.2266  -29.9740 C   0  0  0  0  0  0  0  0  0  0  0  0
   -7.3784    9.8987  -31.8530 C   0  0  0  0  0  0  0  0  0  0  0  0
   -5.4478   11.3717  -32.0024 C   0  0  0  0  0  0  0  0  0  0  0  0
   -6.3938   10.6718  -31.2163 C   0  0  0  0  0  0  0  0  0  0  0  0
   -7.4294    9.8170  -33.2449 C   0  0  0  0  0  0  0  0  0  0  0  0
   -6.3275   10.7656  -29.8166 C   0  0  0  0  0  0  0  0  0  0  0  0
   -5.3425   11.5383  -29.2009 C   0  0  0  0  0  0  0  0  0  0  0  0
   -8.4817    8.9918  -33.9054 C   0  0  0  0  0  0  0  0  0  0  0  0
   -7.2346   10.0949  -29.0426 O   0  0  0  0  0  0  0  0  0  0  0  0
   -5.2336   11.6796  -27.3126 Br  0  0  0  0  0  0  0  0  0  0  0  0
   -4.7969   11.8070  -34.0262 H   0  0  0  0  0  0  0  0  0  0  0  0
   -3.7260   12.6913  -31.9503 H   0  0  0  0  0  0  0  0  0  0  0  0
   -6.5314   10.4467  -35.1028 H   0  0  0  0  0  0  0  0  0  0  0  0
   -3.6380   12.8336  -29.5114 H   0  0  0  0  0  0  0  0  0  0  0  0
   -8.1184    9.3506  -31.2724 H   0  0  0  0  0  0  0  0  0  0  0  0
   -8.1265    7.9641  -34.0497 H   0  0  0  0  0  0  0  0  0  0  0  0
   -9.3998    8.9615  -33.3044 H   0  0  0  0  0  0  0  0  0  0  0  0
   -8.7564    9.4058  -34.8843 H   0  0  0  0  0  0  0  0  0  0  0  0
   -7.0550   10.2611  -28.1060 H   0  0  0  0  0  0  0  0  0  0  0  0
  1  3  1  0  0  0  0
  1  6  2  0  0  0  0
  2  4  2  0  0  0  0
  2  6  1  0  0  0  0
  3  8  2  0  0  0  0
  4 10  1  0  0  0  0
  5  7  2  0  0  0  0
  5  8  1  0  0  0  0
  6  7  1  0  0  0  0
  7  9  1  0  0  0  0
  8 11  1  0  0  0  0
  9 10  2  0  0  0  0
  9 12  1  0  0  0  0
 10 13  1  0  0  0  0
  1 14  1  0  0  0  0
  2 15  1  0  0  0  0
  3 16  1  0  0  0  0
  4 17  1  0  0  0  0
  5 18  1  0  0  0  0
 11 19  1  0  0  0  0
 11 20  1  0  0  0  0
 11 21  1  0  0  0  0
 12 22  1  0  0  0  0
M  END
> <id>
EN300-1144197

> <smiles>
CC=1C=CC=2C=CC(Br)=C(O)C2C1

> <MDLNUMBER>
MFCD21875086

> <IUPAC Name>
2-bromo-7-methylnaphthalen-1-ol

> <CAS>
1368964-35-5

> <URL>
https://www.enaminestore.com/catalog/EN300-1144197

> <ROCS_ShapeQuery>
_x1604L0AP1_x0771L0AP1

> <ROCS_TanimotoCombo>
0.917 

> <ROCS_ShapeTanimoto>
0.510 

> <ROCS_ColorTanimoto>
0.407 

> <ROCS_RefTversky>
0.464 

> <ROCS_RefColorTversky>
0.425 

> <ROCS_RefTverskyCombo>
0.889 

> <ROCS_FitTversky>
1.242 

> <ROCS_FitColorTversky>
0.905 

> <ROCS_FitTverskyCombo>
2.146 

> <ROCS_ColorScore>
-4.832

> <ROCS_Overlap>
787.111

> <ROCS_Rank>
137                 

$$$$
untitled-dbase-544_5
  -OEChem-06042309053D

 24 24  0     0  0  0  0  0  0999 V2000
   -7.0269   10.3953  -34.4796 C   0  0  0  0  0  0  0  0  0  0  0  0
   -6.9363   10.0373  -33.3368 C   0  0  0  0  0  0  0  0  0  0  0  0
   -4.2635   12.2794  -31.0430 C   0  0  0  0  0  0  0  0  0  0  0  0
   -5.0161   11.3482  -31.7585 C   0  0  0  0  0  0  0  0  0  0  0  0
   -4.5043   12.4737  -29.6828 C   0  0  0  0  0  0  0  0  0  0  0  0
   -6.0097   10.6114  -31.1139 C   0  0  0  0  0  0  0  0  0  0  0  0
   -6.2507   10.8057  -29.7538 C   0  0  0  0  0  0  0  0  0  0  0  0
   -5.4980   11.7369  -29.0383 C   0  0  0  0  0  0  0  0  0  0  0  0
   -6.1227    8.2179  -31.8792 C   0  0  0  0  0  0  0  0  0  0  0  0
   -8.2668    9.3825  -31.3979 C   0  0  0  0  0  0  0  0  0  0  0  0
   -6.8275    9.5919  -31.9218 C   0  0  0  0  0  0  0  0  0  0  0  0
   -7.2273   10.0783  -29.1377 O   0  0  0  0  0  0  0  0  0  0  0  0
   -5.7940   12.0294  -27.1887 Br  0  0  0  0  0  0  0  0  0  0  0  0
   -7.1073   10.7127  -35.4929 H   0  0  0  0  0  0  0  0  0  0  0  0
   -3.4895   12.8528  -31.5446 H   0  0  0  0  0  0  0  0  0  0  0  0
   -4.8202   11.2014  -32.8173 H   0  0  0  0  0  0  0  0  0  0  0  0
   -3.9073   13.2035  -29.1417 H   0  0  0  0  0  0  0  0  0  0  0  0
   -6.0134    7.8367  -30.8572 H   0  0  0  0  0  0  0  0  0  0  0  0
   -5.1117    8.2759  -32.3014 H   0  0  0  0  0  0  0  0  0  0  0  0
   -6.6816    7.4688  -32.4527 H   0  0  0  0  0  0  0  0  0  0  0  0
   -8.2645    9.0508  -30.3517 H   0  0  0  0  0  0  0  0  0  0  0  0
   -8.8523   10.3083  -31.4425 H   0  0  0  0  0  0  0  0  0  0  0  0
   -8.7993    8.6136  -31.9712 H   0  0  0  0  0  0  0  0  0  0  0  0
   -7.2800   10.3189  -28.2002 H   0  0  0  0  0  0  0  0  0  0  0  0
  1  2  3  0  0  0  0
  2 11  1  0  0  0  0
  3  4  1  0  0  0  0
  3  5  2  0  0  0  0
  4  6  2  0  0  0  0
  5  8  1  0  0  0  0
  6  7  1  0  0  0  0
  6 11  1  0  0  0  0
  7  8  2  0  0  0  0
  7 12  1  0  0  0  0
  8 13  1  0  0  0  0
  9 11  1  0  0  0  0
 10 11  1  0  0  0  0
  1 14  1  0  0  0  0
  3 15  1  0  0  0  0
  4 16  1  0  0  0  0
  5 17  1  0  0  0  0
  9 18  1  0  0  0  0
  9 19  1  0  0  0  0
  9 20  1  0  0  0  0
 10 21  1  0  0  0  0
 10 22  1  0  0  0  0
 10 23  1  0  0  0  0
 12 24  1  0  0  0  0
M  END
> <id>
EN300-1923436

> <smiles>
CC(C)(C#C)C=1C=CC=C(Br)C1O

> <IUPAC Name>
2-bromo-6-(2-methylbut-3-yn-2-yl)phenol

> <CAS>
2229474-98-8

> <URL>
https://www.enaminestore.com/catalog/EN300-1923436

> <ROCS_ShapeQuery>
_x1604L0AP1_x0771L0AP1

> <ROCS_TanimotoCombo>
0.917 

> <ROCS_ShapeTanimoto>
0.541 

> <ROCS_ColorTanimoto>
0.376 

> <ROCS_RefTversky>
0.477 

> <ROCS_RefColorTversky>
0.423 

> <ROCS_RefTverskyCombo>
0.900 

> <ROCS_FitTversky>
1.330 

> <ROCS_FitColorTversky>
0.769 

> <ROCS_FitTverskyCombo>
2.099 

> <ROCS_ColorScore>
-4.833

> <ROCS_Overlap>
808.780

> <ROCS_Rank>
138                 

$$$$
untitled-dbase-395_45
  -OEChem-06042309053D

 20 20  0     0  0  0  0  0  0999 V2000
   -4.6055   12.4837  -29.8401 C   0  0  0  0  0  0  0  0  0  0  0  0
   -5.5807   11.7834  -29.1301 C   0  0  0  0  0  0  0  0  0  0  0  0
   -5.0707   11.1467  -31.7979 C   0  0  0  0  0  0  0  0  0  0  0  0
   -4.3505   12.1654  -31.1741 C   0  0  0  0  0  0  0  0  0  0  0  0
   -6.3009   10.7647  -29.7540 C   0  0  0  0  0  0  0  0  0  0  0  0
   -6.0460   10.4463  -31.0879 C   0  0  0  0  0  0  0  0  0  0  0  0
   -2.6239   13.9870  -31.0988 C   0  0  0  0  0  0  0  0  0  0  0  0
   -3.3075   12.9146  -31.9321 C   0  0  0  0  0  0  0  0  0  0  0  0
   -1.5577   13.5583  -30.3531 N   0  0  0  0  0  0  0  0  0  0  0  0
   -7.2460   10.0984  -29.0320 O   0  0  0  0  0  0  0  0  0  0  0  0
   -3.1425   15.5767  -31.0692 S   0  0  0  0  0  0  0  0  0  0  0  0
   -7.0041    9.0672  -31.9669 Br  0  0  0  0  0  0  0  0  0  0  0  0
   -4.0497   13.2757  -29.3449 H   0  0  0  0  0  0  0  0  0  0  0  0
   -5.7739   12.0371  -28.0911 H   0  0  0  0  0  0  0  0  0  0  0  0
   -4.8654   10.9056  -32.8388 H   0  0  0  0  0  0  0  0  0  0  0  0
   -3.7354   13.3784  -32.8379 H   0  0  0  0  0  0  0  0  0  0  0  0
   -2.5421   12.2121  -32.3054 H   0  0  0  0  0  0  0  0  0  0  0  0
   -1.2466   12.5923  -30.3551 H   0  0  0  0  0  0  0  0  0  0  0  0
   -1.0393   14.2014  -29.7641 H   0  0  0  0  0  0  0  0  0  0  0  0
   -7.6694    9.4203  -29.5810 H   0  0  0  0  0  0  0  0  0  0  0  0
  1  2  1  0  0  0  0
  1  4  2  0  0  0  0
  2  5  2  0  0  0  0
  3  4  1  0  0  0  0
  3  6  2  0  0  0  0
  4  8  1  0  0  0  0
  5  6  1  0  0  0  0
  5 10  1  0  0  0  0
  6 12  1  0  0  0  0
  7  8  1  0  0  0  0
  7  9  1  0  0  0  0
  7 11  2  0  0  0  0
  1 13  1  0  0  0  0
  2 14  1  0  0  0  0
  3 15  1  0  0  0  0
  8 16  1  0  0  0  0
  8 17  1  0  0  0  0
  9 18  1  0  0  0  0
  9 19  1  0  0  0  0
 10 20  1  0  0  0  0
M  END
> <id>
EN300-1904770

> <smiles>
NC(=S)CC=1C=CC(O)=C(Br)C1

> <IUPAC Name>
2-(3-bromo-4-hydroxyphenyl)ethanethioamide

> <CAS>
2229361-28-6

> <URL>
https://www.enaminestore.com/catalog/EN300-1904770

> <ROCS_ShapeQuery>
_x1604L0AP1_x0771L0AP1

> <ROCS_TanimotoCombo>
0.917 

> <ROCS_ShapeTanimoto>
0.504 

> <ROCS_ColorTanimoto>
0.413 

> <ROCS_RefTversky>
0.445 

> <ROCS_RefColorTversky>
0.429 

> <ROCS_RefTverskyCombo>
0.874 

> <ROCS_FitTversky>
1.359 

> <ROCS_FitColorTversky>
0.914 

> <ROCS_FitTverskyCombo>
2.274 

> <ROCS_ColorScore>
-4.878

> <ROCS_Overlap>
752.812

> <ROCS_Rank>
139                 

$$$$
untitled-dbase-2067_1
  -OEChem-06042309053D

 17 17  0     0  0  0  0  0  0999 V2000
   -5.5759   11.7907  -29.1484 C   0  0  0  0  0  0  0  0  0  0  0  0
   -4.3589   12.1661  -31.2015 C   0  0  0  0  0  0  0  0  0  0  0  0
   -4.6069   12.4903  -29.8676 C   0  0  0  0  0  0  0  0  0  0  0  0
   -6.2969   10.7669  -29.7630 C   0  0  0  0  0  0  0  0  0  0  0  0
   -5.0800   11.1424  -31.8161 C   0  0  0  0  0  0  0  0  0  0  0  0
   -6.0489   10.4428  -31.0968 C   0  0  0  0  0  0  0  0  0  0  0  0
   -2.9275   14.1629  -30.0617 C   0  0  0  0  0  0  0  0  0  0  0  0
   -7.2371   10.1038  -29.0319 O   0  0  0  0  0  0  0  0  0  0  0  0
   -3.9031   13.4890  -29.2680 O   0  0  0  0  0  0  0  0  0  0  0  0
   -4.8263   10.8456  -33.0989 F   0  0  0  0  0  0  0  0  0  0  0  0
   -7.0169    9.0568  -31.9565 Br  0  0  0  0  0  0  0  0  0  0  0  0
   -5.7681   12.0447  -28.1090 H   0  0  0  0  0  0  0  0  0  0  0  0
   -3.6050   12.7069  -31.7669 H   0  0  0  0  0  0  0  0  0  0  0  0
   -2.4397   14.9356  -29.4624 H   0  0  0  0  0  0  0  0  0  0  0  0
   -3.4121   14.6133  -30.9316 H   0  0  0  0  0  0  0  0  0  0  0  0
   -2.1806   13.4394  -30.3970 H   0  0  0  0  0  0  0  0  0  0  0  0
   -7.6621    9.4213  -29.5743 H   0  0  0  0  0  0  0  0  0  0  0  0
  1  3  2  0  0  0  0
  1  4  1  0  0  0  0
  2  3  1  0  0  0  0
  2  5  2  0  0  0  0
  3  9  1  0  0  0  0
  4  6  2  0  0  0  0
  4  8  1  0  0  0  0
  5  6  1  0  0  0  0
  5 10  1  0  0  0  0
  6 11  1  0  0  0  0
  7  9  1  0  0  0  0
  1 12  1  0  0  0  0
  2 13  1  0  0  0  0
  7 14  1  0  0  0  0
  7 15  1  0  0  0  0
  7 16  1  0  0  0  0
  8 17  1  0  0  0  0
M  END
> <id>
EN300-6807267

> <smiles>
COC=1C=C(O)C(Br)=C(F)C1

> <MDLNUMBER>
MFCD28738848

> <IUPAC Name>
2-bromo-3-fluoro-5-methoxyphenol

> <CAS>
1785528-41-7

> <Purity>
95

> <URL>
https://www.enaminestore.com/catalog/EN300-6807267

> <ROCS_ShapeQuery>
_x1604L0AP1_x0771L0AP1

> <ROCS_TanimotoCombo>
0.917 

> <ROCS_ShapeTanimoto>
0.504 

> <ROCS_ColorTanimoto>
0.413 

> <ROCS_RefTversky>
0.441 

> <ROCS_RefColorTversky>
0.429 

> <ROCS_RefTverskyCombo>
0.870 

> <ROCS_FitTversky>
1.399 

> <ROCS_FitColorTversky>
0.915 

> <ROCS_FitTverskyCombo>
2.314 

> <ROCS_ColorScore>
-4.879

> <ROCS_Overlap>
745.117

> <ROCS_Rank>
140                 

$$$$
untitled-dbase-741_398
  -OEChem-06042309053D

 28 28  0     0  0  0  0  0  0999 V2000
   -3.7009   15.6847  -29.6870 C   0  0  0  0  0  0  0  0  0  0  0  0
   -3.0945   14.8323  -30.2762 C   0  0  0  0  0  0  0  0  0  0  0  0
   -5.2073   11.3658  -31.8227 C   0  0  0  0  0  0  0  0  0  0  0  0
   -4.3973   12.3056  -29.7497 C   0  0  0  0  0  0  0  0  0  0  0  0
   -4.3109   12.1852  -31.1366 C   0  0  0  0  0  0  0  0  0  0  0  0
   -6.1902   10.6669  -31.1219 C   0  0  0  0  0  0  0  0  0  0  0  0
   -6.2766   10.7873  -29.7349 C   0  0  0  0  0  0  0  0  0  0  0  0
   -5.3802   11.6067  -29.0488 C   0  0  0  0  0  0  0  0  0  0  0  0
   -6.8744    8.9662  -34.0154 C   0  0  0  0  0  0  0  0  0  0  0  0
   -2.3474   13.7902  -30.9967 C   0  0  0  0  0  0  0  0  0  0  0  0
   -3.2596   12.9314  -31.8862 C   0  0  0  0  0  0  0  0  0  0  0  0
   -6.4964    8.7972  -32.5593 C   0  0  0  0  0  0  0  0  0  0  0  0
   -7.2442   10.0949  -29.0671 O   0  0  0  0  0  0  0  0  0  0  0  0
   -7.0580    9.8701  -31.8060 O   0  0  0  0  0  0  0  0  0  0  0  0
   -5.4664   11.7954  -27.1644 Br  0  0  0  0  0  0  0  0  0  0  0  0
   -4.2392   16.4409  -29.1650 H   0  0  0  0  0  0  0  0  0  0  0  0
   -5.1417   11.2701  -32.9039 H   0  0  0  0  0  0  0  0  0  0  0  0
   -3.6935   12.9467  -29.2234 H   0  0  0  0  0  0  0  0  0  0  0  0
   -7.9606    8.9496  -34.1410 H   0  0  0  0  0  0  0  0  0  0  0  0
   -6.4875    9.9125  -34.4073 H   0  0  0  0  0  0  0  0  0  0  0  0
   -6.4364    8.1673  -34.6229 H   0  0  0  0  0  0  0  0  0  0  0  0
   -1.5554   14.2522  -31.5978 H   0  0  0  0  0  0  0  0  0  0  0  0
   -1.8512   13.1428  -30.2637 H   0  0  0  0  0  0  0  0  0  0  0  0
   -3.7426   13.5961  -32.6206 H   0  0  0  0  0  0  0  0  0  0  0  0
   -2.6423   12.2405  -32.4832 H   0  0  0  0  0  0  0  0  0  0  0  0
   -5.4089    8.8146  -32.4406 H   0  0  0  0  0  0  0  0  0  0  0  0
   -6.8845    7.8516  -32.1691 H   0  0  0  0  0  0  0  0  0  0  0  0
   -7.7756    9.5785  -29.6920 H   0  0  0  0  0  0  0  0  0  0  0  0
  1  2  3  0  0  0  0
  2 10  1  0  0  0  0
  3  5  1  0  0  0  0
  3  6  2  0  0  0  0
  4  5  2  0  0  0  0
  4  8  1  0  0  0  0
  5 11  1  0  0  0  0
  6  7  1  0  0  0  0
  6 14  1  0  0  0  0
  7  8  2  0  0  0  0
  7 13  1  0  0  0  0
  8 15  1  0  0  0  0
  9 12  1  0  0  0  0
 10 11  1  0  0  0  0
 12 14  1  0  0  0  0
  1 16  1  0  0  0  0
  3 17  1  0  0  0  0
  4 18  1  0  0  0  0
  9 19  1  0  0  0  0
  9 20  1  0  0  0  0
  9 21  1  0  0  0  0
 10 22  1  0  0  0  0
 10 23  1  0  0  0  0
 11 24  1  0  0  0  0
 11 25  1  0  0  0  0
 12 26  1  0  0  0  0
 12 27  1  0  0  0  0
 13 28  1  0  0  0  0
M  END
> <id>
EN300-1920262

> <smiles>
CCOC=1C=C(CCC#C)C=C(Br)C1O

> <IUPAC Name>
2-bromo-4-(but-3-yn-1-yl)-6-ethoxyphenol

> <CAS>
2228394-90-7

> <URL>
https://www.enaminestore.com/catalog/EN300-1920262

> <ROCS_ShapeQuery>
_x1604L0AP1_x0771L0AP1

> <ROCS_TanimotoCombo>
0.917 

> <ROCS_ShapeTanimoto>
0.635 

> <ROCS_ColorTanimoto>
0.281 

> <ROCS_RefTversky>
0.544 

> <ROCS_RefColorTversky>
0.341 

> <ROCS_RefTverskyCombo>
0.885 

> <ROCS_FitTversky>
1.358 

> <ROCS_FitColorTversky>
0.618 

> <ROCS_FitTverskyCombo>
1.976 

> <ROCS_ColorScore>
-3.887

> <ROCS_Overlap>
924.399

> <ROCS_Rank>
141                 

$$$$
untitled-dbase-142_0
  -OEChem-06042309053D

 19 20  0     0  0  0  0  0  0999 V2000
   -6.5180   10.5089  -34.0173 C   0  0  0  0  0  0  0  0  0  0  0  0
   -7.4474    9.8227  -33.2414 C   0  0  0  0  0  0  0  0  0  0  0  0
   -5.5281   11.2778  -33.4045 C   0  0  0  0  0  0  0  0  0  0  0  0
   -7.3906    9.9026  -31.8497 C   0  0  0  0  0  0  0  0  0  0  0  0
   -4.4664   12.1388  -31.3712 C   0  0  0  0  0  0  0  0  0  0  0  0
   -4.4096   12.2188  -29.9796 C   0  0  0  0  0  0  0  0  0  0  0  0
   -5.4559   11.3696  -32.0050 C   0  0  0  0  0  0  0  0  0  0  0  0
   -6.4011   10.6718  -31.2159 C   0  0  0  0  0  0  0  0  0  0  0  0
   -6.3290   10.7637  -29.8164 C   0  0  0  0  0  0  0  0  0  0  0  0
   -5.3391   11.5326  -29.2036 C   0  0  0  0  0  0  0  0  0  0  0  0
   -7.2353   10.0947  -29.0400 O   0  0  0  0  0  0  0  0  0  0  0  0
   -5.2212   11.6685  -27.3156 Br  0  0  0  0  0  0  0  0  0  0  0  0
   -6.5633   10.4468  -35.1007 H   0  0  0  0  0  0  0  0  0  0  0  0
   -8.2175    9.2241  -33.7191 H   0  0  0  0  0  0  0  0  0  0  0  0
   -4.8126   11.8066  -34.0308 H   0  0  0  0  0  0  0  0  0  0  0  0
   -8.1327    9.3524  -31.2754 H   0  0  0  0  0  0  0  0  0  0  0  0
   -3.7292   12.6830  -31.9580 H   0  0  0  0  0  0  0  0  0  0  0  0
   -3.6307   12.8220  -29.5200 H   0  0  0  0  0  0  0  0  0  0  0  0
   -7.0518   10.2591  -28.1038 H   0  0  0  0  0  0  0  0  0  0  0  0
  1  2  2  0  0  0  0
  1  3  1  0  0  0  0
  2  4  1  0  0  0  0
  3  7  2  0  0  0  0
  4  8  2  0  0  0  0
  5  6  2  0  0  0  0
  5  7  1  0  0  0  0
  6 10  1  0  0  0  0
  7  8  1  0  0  0  0
  8  9  1  0  0  0  0
  9 10  2  0  0  0  0
  9 11  1  0  0  0  0
 10 12  1  0  0  0  0
  1 13  1  0  0  0  0
  2 14  1  0  0  0  0
  3 15  1  0  0  0  0
  4 16  1  0  0  0  0
  5 17  1  0  0  0  0
  6 18  1  0  0  0  0
 11 19  1  0  0  0  0
M  END
> <id>
EN300-761528

> <smiles>
OC=1C(Br)=CC=C2C=CC=CC12

> <MDLNUMBER>
MFCD00274158

> <IUPAC Name>
2-bromonaphthalen-1-ol

> <CAS>
771-15-3

> <Purity>
95

> <URL>
https://www.enaminestore.com/catalog/EN300-761528

> <MP>
44-46

> <ROCS_ShapeQuery>
_x1604L0AP1_x0771L0AP1

> <ROCS_TanimotoCombo>
0.917 

> <ROCS_ShapeTanimoto>
0.509 

> <ROCS_ColorTanimoto>
0.407 

> <ROCS_RefTversky>
0.456 

> <ROCS_RefColorTversky>
0.425 

> <ROCS_RefTverskyCombo>
0.881 

> <ROCS_FitTversky>
1.300 

> <ROCS_FitColorTversky>
0.905 

> <ROCS_FitTverskyCombo>
2.205 

> <ROCS_ColorScore>
-4.833

> <ROCS_Overlap>
772.281

> <ROCS_Rank>
142                 

$$$$
untitled-dbase-1751_97
  -OEChem-06042309053D

 24 24  0     0  0  0  0  0  0999 V2000
   -3.4548   14.9519  -30.5558 C   0  0  0  0  0  0  0  0  0  0  0  0
   -4.5615   12.4496  -29.8150 C   0  0  0  0  0  0  0  0  0  0  0  0
   -5.0377   11.1218  -31.7764 C   0  0  0  0  0  0  0  0  0  0  0  0
   -4.3042   12.1279  -31.1476 C   0  0  0  0  0  0  0  0  0  0  0  0
   -5.5524   11.7652  -29.1111 C   0  0  0  0  0  0  0  0  0  0  0  0
   -6.2859   10.7591  -29.7399 C   0  0  0  0  0  0  0  0  0  0  0  0
   -6.0285   10.4374  -31.0726 C   0  0  0  0  0  0  0  0  0  0  0  0
   -5.0487   11.3871  -26.8179 C   0  0  0  0  0  0  0  0  0  0  0  0
   -2.5250   13.9384  -31.0756 C   0  0  0  0  0  0  0  0  0  0  0  0
   -3.2454   12.8606  -31.9001 C   0  0  0  0  0  0  0  0  0  0  0  0
   -4.1880   15.7511  -30.1436 N   0  0  0  0  0  0  0  0  0  0  0  0
   -7.2516   10.1017  -29.0350 O   0  0  0  0  0  0  0  0  0  0  0  0
   -5.7925   12.0912  -27.8103 O   0  0  0  0  0  0  0  0  0  0  0  0
   -7.0046    9.0764  -31.9608 Br  0  0  0  0  0  0  0  0  0  0  0  0
   -3.9913   13.2338  -29.3227 H   0  0  0  0  0  0  0  0  0  0  0  0
   -4.8299   10.8784  -32.8161 H   0  0  0  0  0  0  0  0  0  0  0  0
   -5.3360   11.7428  -25.8254 H   0  0  0  0  0  0  0  0  0  0  0  0
   -3.9799   11.5488  -26.9793 H   0  0  0  0  0  0  0  0  0  0  0  0
   -5.2699   10.3202  -26.8981 H   0  0  0  0  0  0  0  0  0  0  0  0
   -1.7811   14.4361  -31.7092 H   0  0  0  0  0  0  0  0  0  0  0  0
   -1.9770   13.4793  -30.2444 H   0  0  0  0  0  0  0  0  0  0  0  0
   -2.4898   12.1407  -32.2542 H   0  0  0  0  0  0  0  0  0  0  0  0
   -3.6615   13.3165  -32.8133 H   0  0  0  0  0  0  0  0  0  0  0  0
   -7.2983   10.4485  -28.1310 H   0  0  0  0  0  0  0  0  0  0  0  0
  1  9  1  0  0  0  0
  1 11  3  0  0  0  0
  2  4  1  0  0  0  0
  2  5  2  0  0  0  0
  3  4  2  0  0  0  0
  3  7  1  0  0  0  0
  4 10  1  0  0  0  0
  5  6  1  0  0  0  0
  5 13  1  0  0  0  0
  6  7  2  0  0  0  0
  6 12  1  0  0  0  0
  7 14  1  0  0  0  0
  8 13  1  0  0  0  0
  9 10  1  0  0  0  0
  2 15  1  0  0  0  0
  3 16  1  0  0  0  0
  8 17  1  0  0  0  0
  8 18  1  0  0  0  0
  8 19  1  0  0  0  0
  9 20  1  0  0  0  0
  9 21  1  0  0  0  0
 10 22  1  0  0  0  0
 10 23  1  0  0  0  0
 12 24  1  0  0  0  0
M  END
> <id>
EN300-1926989

> <smiles>
COC=1C=C(CCC#N)C=C(Br)C1O

> <IUPAC Name>
3-(3-bromo-4-hydroxy-5-methoxyphenyl)propanenitrile

> <CAS>
1904638-35-2

> <URL>
https://www.enaminestore.com/catalog/EN300-1926989

> <ROCS_ShapeQuery>
_x1604L0AP1_x0771L0AP1

> <ROCS_TanimotoCombo>
0.916 

> <ROCS_ShapeTanimoto>
0.534 

> <ROCS_ColorTanimoto>
0.383 

> <ROCS_RefTversky>
0.480 

> <ROCS_RefColorTversky>
0.429 

> <ROCS_RefTverskyCombo>
0.909 

> <ROCS_FitTversky>
1.264 

> <ROCS_FitColorTversky>
0.779 

> <ROCS_FitTverskyCombo>
2.043 

> <ROCS_ColorScore>
-4.898

> <ROCS_Overlap>
814.880

> <ROCS_Rank>
143                 

$$$$
untitled-dbase-620_5
  -OEChem-06042309053D

 24 24  0     0  0  0  0  0  0999 V2000
   -4.2747   12.3020  -31.0448 C   0  0  0  0  0  0  0  0  0  0  0  0
   -4.9518   11.2992  -31.7387 C   0  0  0  0  0  0  0  0  0  0  0  0
   -4.5851   12.5574  -29.7091 C   0  0  0  0  0  0  0  0  0  0  0  0
   -5.9394   10.5519  -31.0970 C   0  0  0  0  0  0  0  0  0  0  0  0
   -6.2499   10.8073  -29.7613 C   0  0  0  0  0  0  0  0  0  0  0  0
   -5.5727   11.8101  -29.0673 C   0  0  0  0  0  0  0  0  0  0  0  0
   -6.1578    9.3687  -33.3169 C   0  0  0  0  0  0  0  0  0  0  0  0
   -6.5062    8.0351  -31.3036 C   0  0  0  0  0  0  0  0  0  0  0  0
   -8.1800    9.7721  -31.9255 C   0  0  0  0  0  0  0  0  0  0  0  0
   -6.6718    9.4556  -31.8791 C   0  0  0  0  0  0  0  0  0  0  0  0
   -6.6199   10.0010  -34.2626 O   0  0  0  0  0  0  0  0  0  0  0  0
   -7.2197   10.0688  -29.1477 O   0  0  0  0  0  0  0  0  0  0  0  0
   -5.9646   12.1871  -27.2512 Br  0  0  0  0  0  0  0  0  0  0  0  0
   -3.5053   12.8836  -31.5442 H   0  0  0  0  0  0  0  0  0  0  0  0
   -4.7020   11.1053  -32.7784 H   0  0  0  0  0  0  0  0  0  0  0  0
   -4.0463   13.3425  -29.1845 H   0  0  0  0  0  0  0  0  0  0  0  0
   -5.2669    8.7325  -33.4665 H   0  0  0  0  0  0  0  0  0  0  0  0
   -7.0483    7.2913  -31.8987 H   0  0  0  0  0  0  0  0  0  0  0  0
   -5.4514    7.7338  -31.2867 H   0  0  0  0  0  0  0  0  0  0  0  0
   -6.8660    7.9759  -30.2693 H   0  0  0  0  0  0  0  0  0  0  0  0
   -8.7300    9.0029  -32.4801 H   0  0  0  0  0  0  0  0  0  0  0  0
   -8.6180    9.8391  -30.9231 H   0  0  0  0  0  0  0  0  0  0  0  0
   -8.3703   10.7360  -32.4130 H   0  0  0  0  0  0  0  0  0  0  0  0
   -7.3253   10.3565  -28.2282 H   0  0  0  0  0  0  0  0  0  0  0  0
  1  2  1  0  0  0  0
  1  3  2  0  0  0  0
  2  4  2  0  0  0  0
  3  6  1  0  0  0  0
  4  5  1  0  0  0  0
  4 10  1  0  0  0  0
  5  6  2  0  0  0  0
  5 12  1  0  0  0  0
  6 13  1  0  0  0  0
  7 10  1  0  0  0  0
  7 11  2  0  0  0  0
  8 10  1  0  0  0  0
  9 10  1  0  0  0  0
  1 14  1  0  0  0  0
  2 15  1  0  0  0  0
  3 16  1  0  0  0  0
  7 17  1  0  0  0  0
  8 18  1  0  0  0  0
  8 19  1  0  0  0  0
  8 20  1  0  0  0  0
  9 21  1  0  0  0  0
  9 22  1  0  0  0  0
  9 23  1  0  0  0  0
 12 24  1  0  0  0  0
M  END
> <id>
EN300-1923098

> <smiles>
CC(C)(C=O)C=1C=CC=C(Br)C1O

> <IUPAC Name>
2-(3-bromo-2-hydroxyphenyl)-2-methylpropanal

> <CAS>
2229388-63-8

> <URL>
https://www.enaminestore.com/catalog/EN300-1923098

> <ROCS_ShapeQuery>
_x1604L0AP1_x0771L0AP1

> <ROCS_TanimotoCombo>
0.916 

> <ROCS_ShapeTanimoto>
0.543 

> <ROCS_ColorTanimoto>
0.373 

> <ROCS_RefTversky>
0.478 

> <ROCS_RefColorTversky>
0.421 

> <ROCS_RefTverskyCombo>
0.900 

> <ROCS_FitTversky>
1.332 

> <ROCS_FitColorTversky>
0.765 

> <ROCS_FitTverskyCombo>
2.097 

> <ROCS_ColorScore>
-4.808

> <ROCS_Overlap>
810.905

> <ROCS_Rank>
144                 

$$$$
untitled-dbase-1533_0
  -OEChem-06042309053D

 15 15  0     0  0  0  0  0  0999 V2000
   -5.0772   11.1456  -31.8112 C   0  0  0  0  0  0  0  0  0  0  0  0
   -5.5750   11.7903  -29.1430 C   0  0  0  0  0  0  0  0  0  0  0  0
   -4.3555   12.1674  -31.1942 C   0  0  0  0  0  0  0  0  0  0  0  0
   -6.2968   10.7685  -29.7600 C   0  0  0  0  0  0  0  0  0  0  0  0
   -4.6043   12.4897  -29.8601 C   0  0  0  0  0  0  0  0  0  0  0  0
   -6.0479   10.4462  -31.0941 C   0  0  0  0  0  0  0  0  0  0  0  0
   -3.3502   12.8704  -31.9824 C   0  0  0  0  0  0  0  0  0  0  0  0
   -2.3833   12.3036  -32.4943 O   0  0  0  0  0  0  0  0  0  0  0  0
   -7.2383   10.1034  -29.0323 O   0  0  0  0  0  0  0  0  0  0  0  0
   -3.7334   13.7474  -29.0594 Cl  0  0  0  0  0  0  0  0  0  0  0  0
   -7.0099    9.0632  -31.9635 Br  0  0  0  0  0  0  0  0  0  0  0  0
   -4.8792   10.8976  -32.8520 H   0  0  0  0  0  0  0  0  0  0  0  0
   -5.7757   12.0346  -28.1022 H   0  0  0  0  0  0  0  0  0  0  0  0
   -3.4820   13.9648  -32.1137 H   0  0  0  0  0  0  0  0  0  0  0  0
   -7.6629    9.4230  -29.5774 H   0  0  0  0  0  0  0  0  0  0  0  0
  1  3  1  0  0  0  0
  1  6  2  0  0  0  0
  2  4  2  0  0  0  0
  2  5  1  0  0  0  0
  3  5  2  0  0  0  0
  3  7  1  0  0  0  0
  4  6  1  0  0  0  0
  4  9  1  0  0  0  0
  5 10  1  0  0  0  0
  6 11  1  0  0  0  0
  7  8  2  0  0  0  0
  1 12  1  0  0  0  0
  2 13  1  0  0  0  0
  7 14  1  0  0  0  0
  9 15  1  0  0  0  0
M  END
> <id>
EN300-1276897

> <smiles>
OC=1C=C(Cl)C(C=O)=CC1Br

> <MDLNUMBER>
MFCD30661254

> <IUPAC Name>
5-bromo-2-chloro-4-hydroxybenzaldehyde

> <CAS>
957774-27-5

> <Purity>
95

> <URL>
https://www.enaminestore.com/catalog/EN300-1276897

> <MP>
149-153

> <ROCS_ShapeQuery>
_x1604L0AP1_x0771L0AP1

> <ROCS_TanimotoCombo>
0.916 

> <ROCS_ShapeTanimoto>
0.503 

> <ROCS_ColorTanimoto>
0.413 

> <ROCS_RefTversky>
0.438 

> <ROCS_RefColorTversky>
0.429 

> <ROCS_RefTverskyCombo>
0.867 

> <ROCS_FitTversky>
1.420 

> <ROCS_FitColorTversky>
0.914 

> <ROCS_FitTverskyCombo>
2.334 

> <ROCS_ColorScore>
-4.878

> <ROCS_Overlap>
740.596

> <ROCS_Rank>
145                 

$$$$
untitled-dbase-2317_0
  -OEChem-06042309053D

 17 17  0     0  0  0  0  0  0999 V2000
   -5.5789   11.7946  -29.1474 C   0  0  0  0  0  0  0  0  0  0  0  0
   -5.0821   11.1467  -31.8150 C   0  0  0  0  0  0  0  0  0  0  0  0
   -6.2983   10.7697  -29.7617 C   0  0  0  0  0  0  0  0  0  0  0  0
   -4.3626   12.1717  -31.2006 C   0  0  0  0  0  0  0  0  0  0  0  0
   -4.6111   12.4957  -29.8668 C   0  0  0  0  0  0  0  0  0  0  0  0
   -6.0499   10.4457  -31.0955 C   0  0  0  0  0  0  0  0  0  0  0  0
   -2.0875   12.3443  -31.8713 C   0  0  0  0  0  0  0  0  0  0  0  0
   -7.2363   10.1034  -29.0308 O   0  0  0  0  0  0  0  0  0  0  0  0
   -3.4191   12.8558  -31.9036 O   0  0  0  0  0  0  0  0  0  0  0  0
   -3.9228   13.4793  -29.2713 F   0  0  0  0  0  0  0  0  0  0  0  0
   -7.0094    9.0601  -31.9628 Br  0  0  0  0  0  0  0  0  0  0  0  0
   -5.7651   12.0525  -28.1084 H   0  0  0  0  0  0  0  0  0  0  0  0
   -4.8798   10.9037  -32.8555 H   0  0  0  0  0  0  0  0  0  0  0  0
   -1.4362   12.9836  -32.4723 H   0  0  0  0  0  0  0  0  0  0  0  0
   -2.0783   11.3245  -32.2641 H   0  0  0  0  0  0  0  0  0  0  0  0
   -1.7343   12.3376  -30.8374 H   0  0  0  0  0  0  0  0  0  0  0  0
   -7.6601    9.4206  -29.5736 H   0  0  0  0  0  0  0  0  0  0  0  0
  1  3  1  0  0  0  0
  1  5  2  0  0  0  0
  2  4  2  0  0  0  0
  2  6  1  0  0  0  0
  3  6  2  0  0  0  0
  3  8  1  0  0  0  0
  4  5  1  0  0  0  0
  4  9  1  0  0  0  0
  5 10  1  0  0  0  0
  6 11  1  0  0  0  0
  7  9  1  0  0  0  0
  1 12  1  0  0  0  0
  2 13  1  0  0  0  0
  7 14  1  0  0  0  0
  7 15  1  0  0  0  0
  7 16  1  0  0  0  0
  8 17  1  0  0  0  0
M  END
> <id>
EN300-6825652

> <smiles>
COC=1C=C(Br)C(O)=CC1F

> <MDLNUMBER>
MFCD26390961

> <IUPAC Name>
2-bromo-5-fluoro-4-methoxyphenol

> <URL>
https://www.enaminestore.com/catalog/EN300-6825652

> <ROCS_ShapeQuery>
_x1604L0AP1_x0771L0AP1

> <ROCS_TanimotoCombo>
0.916 

> <ROCS_ShapeTanimoto>
0.503 

> <ROCS_ColorTanimoto>
0.413 

> <ROCS_RefTversky>
0.440 

> <ROCS_RefColorTversky>
0.429 

> <ROCS_RefTverskyCombo>
0.869 

> <ROCS_FitTversky>
1.397 

> <ROCS_FitColorTversky>
0.914 

> <ROCS_FitTverskyCombo>
2.311 

> <ROCS_ColorScore>
-4.878

> <ROCS_Overlap>
744.382

> <ROCS_Rank>
146                 

$$$$
untitled-dbase-139_0
  -OEChem-06042309053D

 19 20  0     0  0  0  0  0  0999 V2000
   -5.5182   11.2770  -33.4026 C   0  0  0  0  0  0  0  0  0  0  0  0
   -4.4647   12.1424  -31.3669 C   0  0  0  0  0  0  0  0  0  0  0  0
   -6.5044   10.5054  -34.0177 C   0  0  0  0  0  0  0  0  0  0  0  0
   -4.4124   12.2239  -29.9751 C   0  0  0  0  0  0  0  0  0  0  0  0
   -7.3824    9.8993  -31.8522 C   0  0  0  0  0  0  0  0  0  0  0  0
   -5.4505   11.3705  -32.0029 C   0  0  0  0  0  0  0  0  0  0  0  0
   -6.3966   10.6713  -31.2161 C   0  0  0  0  0  0  0  0  0  0  0  0
   -6.3290   10.7648  -29.8165 C   0  0  0  0  0  0  0  0  0  0  0  0
   -7.4347    9.8179  -33.2440 C   0  0  0  0  0  0  0  0  0  0  0  0
   -5.3428   11.5364  -29.2014 C   0  0  0  0  0  0  0  0  0  0  0  0
   -7.2358   10.0942  -29.0418 O   0  0  0  0  0  0  0  0  0  0  0  0
   -8.6490    8.8661  -34.0061 Cl  0  0  0  0  0  0  0  0  0  0  0  0
   -5.2318   11.6766  -27.3131 Br  0  0  0  0  0  0  0  0  0  0  0  0
   -4.8012   11.8060  -34.0270 H   0  0  0  0  0  0  0  0  0  0  0  0
   -3.7274   12.6882  -31.9522 H   0  0  0  0  0  0  0  0  0  0  0  0
   -6.5329   10.4506  -35.1031 H   0  0  0  0  0  0  0  0  0  0  0  0
   -3.6370   12.8298  -29.5133 H   0  0  0  0  0  0  0  0  0  0  0  0
   -8.1194    9.3534  -31.2657 H   0  0  0  0  0  0  0  0  0  0  0  0
   -7.0553   10.2602  -28.1053 H   0  0  0  0  0  0  0  0  0  0  0  0
  1  3  1  0  0  0  0
  1  6  2  0  0  0  0
  2  4  2  0  0  0  0
  2  6  1  0  0  0  0
  3  9  2  0  0  0  0
  4 10  1  0  0  0  0
  5  7  2  0  0  0  0
  5  9  1  0  0  0  0
  6  7  1  0  0  0  0
  7  8  1  0  0  0  0
  8 10  2  0  0  0  0
  8 11  1  0  0  0  0
  9 12  1  0  0  0  0
 10 13  1  0  0  0  0
  1 14  1  0  0  0  0
  2 15  1  0  0  0  0
  3 16  1  0  0  0  0
  4 17  1  0  0  0  0
  5 18  1  0  0  0  0
 11 19  1  0  0  0  0
M  END
> <id>
EN300-1144198

> <smiles>
OC=1C(Br)=CC=C2C=CC(Cl)=CC12

> <MDLNUMBER>
MFCD21875090

> <IUPAC Name>
2-bromo-7-chloronaphthalen-1-ol

> <CAS>
1368504-01-1

> <URL>
https://www.enaminestore.com/catalog/EN300-1144198

> <ROCS_ShapeQuery>
_x1604L0AP1_x0771L0AP1

> <ROCS_TanimotoCombo>
0.915 

> <ROCS_ShapeTanimoto>
0.508 

> <ROCS_ColorTanimoto>
0.407 

> <ROCS_RefTversky>
0.462 

> <ROCS_RefColorTversky>
0.425 

> <ROCS_RefTverskyCombo>
0.887 

> <ROCS_FitTversky>
1.247 

> <ROCS_FitColorTversky>
0.905 

> <ROCS_FitTverskyCombo>
2.152 

> <ROCS_ColorScore>
-4.832

> <ROCS_Overlap>
783.152

> <ROCS_Rank>
147                 

$$$$
untitled-dbase-406_10
  -OEChem-06042309053D

 24 25  0     0  0  0  0  0  0999 V2000
   -7.1826    8.8459  -31.2718 C   0  0  0  0  0  0  0  0  0  0  0  0
   -4.7882   11.6959  -31.3407 C   0  0  0  0  0  0  0  0  0  0  0  0
   -4.3805   12.4418  -29.0792 C   0  0  0  0  0  0  0  0  0  0  0  0
   -5.8486   10.9096  -30.8902 C   0  0  0  0  0  0  0  0  0  0  0  0
   -6.1749   10.8894  -29.5342 C   0  0  0  0  0  0  0  0  0  0  0  0
   -4.0541   12.4620  -30.4352 C   0  0  0  0  0  0  0  0  0  0  0  0
   -5.4409   11.6555  -28.6286 C   0  0  0  0  0  0  0  0  0  0  0  0
   -6.7145   10.9635  -33.8998 C   0  0  0  0  0  0  0  0  0  0  0  0
   -6.0037    9.7208  -33.3345 C   0  0  0  0  0  0  0  0  0  0  0  0
   -7.7790   10.7700  -32.8052 C   0  0  0  0  0  0  0  0  0  0  0  0
   -6.6821   10.0342  -31.9490 C   0  0  0  0  0  0  0  0  0  0  0  0
   -7.5813    7.8993  -30.7324 N   0  0  0  0  0  0  0  0  0  0  0  0
   -7.2150   10.1144  -29.1114 O   0  0  0  0  0  0  0  0  0  0  0  0
   -2.7457   13.4318  -30.9918 Cl  0  0  0  0  0  0  0  0  0  0  0  0
   -5.8539   11.6539  -26.7781 Br  0  0  0  0  0  0  0  0  0  0  0  0
   -4.5392   11.7080  -32.3990 H   0  0  0  0  0  0  0  0  0  0  0  0
   -3.8050   13.0405  -28.3759 H   0  0  0  0  0  0  0  0  0  0  0  0
   -6.1486   11.8964  -33.8513 H   0  0  0  0  0  0  0  0  0  0  0  0
   -7.0960   10.8317  -34.9180 H   0  0  0  0  0  0  0  0  0  0  0  0
   -6.2721    8.7745  -33.8078 H   0  0  0  0  0  0  0  0  0  0  0  0
   -4.9127    9.8102  -33.3266 H   0  0  0  0  0  0  0  0  0  0  0  0
   -8.1285   11.7107  -32.3678 H   0  0  0  0  0  0  0  0  0  0  0  0
   -8.6482   10.1788  -33.0993 H   0  0  0  0  0  0  0  0  0  0  0  0
   -7.3251   10.1991  -28.1520 H   0  0  0  0  0  0  0  0  0  0  0  0
  1 11  1  0  0  0  0
  1 12  3  0  0  0  0
  2  4  2  0  0  0  0
  2  6  1  0  0  0  0
  3  6  2  0  0  0  0
  3  7  1  0  0  0  0
  4  5  1  0  0  0  0
  4 11  1  0  0  0  0
  5  7  2  0  0  0  0
  5 13  1  0  0  0  0
  6 14  1  0  0  0  0
  7 15  1  0  0  0  0
  8  9  1  0  0  0  0
  8 10  1  0  0  0  0
  9 11  1  0  0  0  0
 10 11  1  0  0  0  0
  2 16  1  0  0  0  0
  3 17  1  0  0  0  0
  8 18  1  0  0  0  0
  8 19  1  0  0  0  0
  9 20  1  0  0  0  0
  9 21  1  0  0  0  0
 10 22  1  0  0  0  0
 10 23  1  0  0  0  0
 13 24  1  0  0  0  0
M  END
> <id>
EN300-1913522

> <smiles>
OC=1C(Br)=CC(Cl)=CC1C2(CCC2)C#N

> <MDLNUMBER>
MFCD19697940

> <IUPAC Name>
1-(3-bromo-5-chloro-2-hydroxyphenyl)cyclobutane-1-carbonitrile

> <CAS>
1314657-01-6

> <URL>
https://www.enaminestore.com/catalog/EN300-1913522

> <ROCS_ShapeQuery>
_x1604L0AP1_x0771L0AP1

> <ROCS_TanimotoCombo>
0.915 

> <ROCS_ShapeTanimoto>
0.576 

> <ROCS_ColorTanimoto>
0.339 

> <ROCS_RefTversky>
0.515 

> <ROCS_RefColorTversky>
0.393 

> <ROCS_RefTverskyCombo>
0.907 

> <ROCS_FitTversky>
1.261 

> <ROCS_FitColorTversky>
0.713 

> <ROCS_FitTverskyCombo>
1.975 

> <ROCS_ColorScore>
-4.482

> <ROCS_Overlap>
874.624

> <ROCS_Rank>
148                 

$$$$
untitled-dbase-2201_128
  -OEChem-06042309053D

 30 31  0     0  0  0  0  0  0999 V2000
   -4.3509   12.1801  -31.1704 C   0  0  0  0  0  0  0  0  0  0  0  0
   -4.6064   12.4970  -29.8363 C   0  0  0  0  0  0  0  0  0  0  0  0
   -5.0675   11.1588  -31.7943 C   0  0  0  0  0  0  0  0  0  0  0  0
   -5.5785   11.7926  -29.1260 C   0  0  0  0  0  0  0  0  0  0  0  0
   -6.2951   10.7713  -29.7498 C   0  0  0  0  0  0  0  0  0  0  0  0
   -6.0396   10.4544  -31.0840 C   0  0  0  0  0  0  0  0  0  0  0  0
   -4.2719    9.4605  -33.5621 C   0  0  0  0  0  0  0  0  0  0  0  0
   -3.3086   10.6055  -33.5948 C   0  0  0  0  0  0  0  0  0  0  0  0
   -4.7571   10.8565  -33.2249 C   0  0  0  0  0  0  0  0  0  0  0  0
   -5.0393   13.1697  -27.2636 C   0  0  0  0  0  0  0  0  0  0  0  0
   -5.6297   11.5617  -34.2229 C   0  0  0  0  0  0  0  0  0  0  0  0
   -6.6458    9.7307  -35.2187 N   0  0  0  0  0  0  0  0  0  0  0  0
   -7.2411   10.0971  -29.0335 O   0  0  0  0  0  0  0  0  0  0  0  0
   -5.8165   12.1131  -27.8234 O   0  0  0  0  0  0  0  0  0  0  0  0
   -6.8681   10.8698  -34.3433 O   0  0  0  0  0  0  0  0  0  0  0  0
   -7.0247    9.0585  -31.9244 Br  0  0  0  0  0  0  0  0  0  0  0  0
   -3.5911   12.7358  -31.7138 H   0  0  0  0  0  0  0  0  0  0  0  0
   -4.0448   13.2938  -29.3562 H   0  0  0  0  0  0  0  0  0  0  0  0
   -4.5696    9.0258  -34.5093 H   0  0  0  0  0  0  0  0  0  0  0  0
   -4.1647    8.7357  -32.7633 H   0  0  0  0  0  0  0  0  0  0  0  0
   -2.5537   10.6485  -32.8180 H   0  0  0  0  0  0  0  0  0  0  0  0
   -2.9584   10.9423  -34.5637 H   0  0  0  0  0  0  0  0  0  0  0  0
   -5.3286   13.3230  -26.2210 H   0  0  0  0  0  0  0  0  0  0  0  0
   -5.2022   14.0861  -27.8365 H   0  0  0  0  0  0  0  0  0  0  0  0
   -3.9824   12.8966  -27.3097 H   0  0  0  0  0  0  0  0  0  0  0  0
   -5.1547   11.5917  -35.2129 H   0  0  0  0  0  0  0  0  0  0  0  0
   -5.8406   12.5923  -33.9066 H   0  0  0  0  0  0  0  0  0  0  0  0
   -7.3678    9.8927  -35.9192 H   0  0  0  0  0  0  0  0  0  0  0  0
   -6.9810    8.9735  -34.6253 H   0  0  0  0  0  0  0  0  0  0  0  0
   -7.2857   10.4458  -28.1303 H   0  0  0  0  0  0  0  0  0  0  0  0
  1  2  1  0  0  0  0
  1  3  2  0  0  0  0
  2  4  2  0  0  0  0
  3  6  1  0  0  0  0
  3  9  1  0  0  0  0
  4  5  1  0  0  0  0
  4 14  1  0  0  0  0
  5  6  2  0  0  0  0
  5 13  1  0  0  0  0
  6 16  1  0  0  0  0
  7  8  1  0  0  0  0
  7  9  1  0  0  0  0
  8  9  1  0  0  0  0
  9 11  1  0  0  0  0
 10 14  1  0  0  0  0
 11 15  1  0  0  0  0
 12 15  1  0  0  0  0
  1 17  1  0  0  0  0
  2 18  1  0  0  0  0
  7 19  1  0  0  0  0
  7 20  1  0  0  0  0
  8 21  1  0  0  0  0
  8 22  1  0  0  0  0
 10 23  1  0  0  0  0
 10 24  1  0  0  0  0
 10 25  1  0  0  0  0
 11 26  1  0  0  0  0
 11 27  1  0  0  0  0
 12 28  1  0  0  0  0
 12 29  1  0  0  0  0
 13 30  1  0  0  0  0
M  END
> <id>
EN300-2004964

> <smiles>
COC=1C=CC(=C(Br)C1O)C2(CON)CC2

> <IUPAC Name>
3-{1-[(aminooxy)methyl]cyclopropyl}-2-bromo-6-methoxyphenol

> <CAS>
2228485-31-0

> <URL>
https://www.enaminestore.com/catalog/EN300-2004964

> <ROCS_ShapeQuery>
_x1604L0AP1_x0771L0AP1

> <ROCS_TanimotoCombo>
0.915 

> <ROCS_ShapeTanimoto>
0.500 

> <ROCS_ColorTanimoto>
0.415 

> <ROCS_RefTversky>
0.478 

> <ROCS_RefColorTversky>
0.431 

> <ROCS_RefTverskyCombo>
0.909 

> <ROCS_FitTversky>
1.099 

> <ROCS_FitColorTversky>
0.919 

> <ROCS_FitTverskyCombo>
2.018 

> <ROCS_ColorScore>
-4.902

> <ROCS_Overlap>
813.689

> <ROCS_Rank>
149                 

$$$$
untitled-dbase-1193_113
  -OEChem-06042309053D

 22 22  0     0  0  0  0  0  0999 V2000
   -5.1721   11.2400  -31.8446 C   0  0  0  0  0  0  0  0  0  0  0  0
   -4.4818   12.3901  -29.8351 C   0  0  0  0  0  0  0  0  0  0  0  0
   -6.1420   10.5506  -31.1168 C   0  0  0  0  0  0  0  0  0  0  0  0
   -6.2819   10.7809  -29.7483 C   0  0  0  0  0  0  0  0  0  0  0  0
   -4.3419   12.1597  -31.2037 C   0  0  0  0  0  0  0  0  0  0  0  0
   -5.4517   11.7007  -29.1074 C   0  0  0  0  0  0  0  0  0  0  0  0
   -7.0203    9.5703  -31.8226 C   0  0  0  0  0  0  0  0  0  0  0  0
   -6.5280    9.2274  -33.2293 C   0  0  0  0  0  0  0  0  0  0  0  0
   -5.9764   10.0332  -35.3324 N   0  0  0  0  0  0  0  0  0  0  0  0
   -7.2354   10.0985  -29.0500 O   0  0  0  0  0  0  0  0  0  0  0  0
   -6.4473   10.4131  -34.0099 O   0  0  0  0  0  0  0  0  0  0  0  0
   -3.1451   13.0100  -32.1022 Cl  0  0  0  0  0  0  0  0  0  0  0  0
   -5.6112   12.0408  -27.2490 Br  0  0  0  0  0  0  0  0  0  0  0  0
   -5.0665   11.0578  -32.9120 H   0  0  0  0  0  0  0  0  0  0  0  0
   -3.8321   13.1078  -29.3391 H   0  0  0  0  0  0  0  0  0  0  0  0
   -7.1016    8.6452  -31.2320 H   0  0  0  0  0  0  0  0  0  0  0  0
   -8.0394    9.9779  -31.8971 H   0  0  0  0  0  0  0  0  0  0  0  0
   -5.5256    8.7899  -33.1800 H   0  0  0  0  0  0  0  0  0  0  0  0
   -7.1967    8.5197  -33.7302 H   0  0  0  0  0  0  0  0  0  0  0  0
   -5.1686   10.6473  -35.4248 H   0  0  0  0  0  0  0  0  0  0  0  0
   -6.7125   10.4319  -35.9129 H   0  0  0  0  0  0  0  0  0  0  0  0
   -7.2155   10.3600  -28.1170 H   0  0  0  0  0  0  0  0  0  0  0  0
  1  3  2  0  0  0  0
  1  5  1  0  0  0  0
  2  5  2  0  0  0  0
  2  6  1  0  0  0  0
  3  4  1  0  0  0  0
  3  7  1  0  0  0  0
  4  6  2  0  0  0  0
  4 10  1  0  0  0  0
  5 12  1  0  0  0  0
  6 13  1  0  0  0  0
  7  8  1  0  0  0  0
  8 11  1  0  0  0  0
  9 11  1  0  0  0  0
  1 14  1  0  0  0  0
  2 15  1  0  0  0  0
  7 16  1  0  0  0  0
  7 17  1  0  0  0  0
  8 18  1  0  0  0  0
  8 19  1  0  0  0  0
  9 20  1  0  0  0  0
  9 21  1  0  0  0  0
 10 22  1  0  0  0  0
M  END
> <id>
EN300-1922564

> <smiles>
NOCCC=1C=C(Cl)C=C(Br)C1O

> <IUPAC Name>
2-[2-(aminooxy)ethyl]-6-bromo-4-chlorophenol

> <CAS>
2228545-26-2

> <URL>
https://www.enaminestore.com/catalog/EN300-1922564

> <ROCS_ShapeQuery>
_x1604L0AP1_x0771L0AP1

> <ROCS_TanimotoCombo>
0.915 

> <ROCS_ShapeTanimoto>
0.586 

> <ROCS_ColorTanimoto>
0.329 

> <ROCS_RefTversky>
0.499 

> <ROCS_RefColorTversky>
0.343 

> <ROCS_RefTverskyCombo>
0.842 

> <ROCS_FitTversky>
1.424 

> <ROCS_FitColorTversky>
0.886 

> <ROCS_FitTverskyCombo>
2.310 

> <ROCS_ColorScore>
-3.886

> <ROCS_Overlap>
845.464

> <ROCS_Rank>
150                 

$$$$
untitled-dbase-2190_275
  -OEChem-06042309053D

 25 25  0     0  0  0  0  0  0999 V2000
   -4.5634   12.4500  -29.8050 C   0  0  0  0  0  0  0  0  0  0  0  0
   -5.0419   11.1308  -31.7716 C   0  0  0  0  0  0  0  0  0  0  0  0
   -4.3082   12.1348  -31.1395 C   0  0  0  0  0  0  0  0  0  0  0  0
   -5.5522   11.7613  -29.1024 C   0  0  0  0  0  0  0  0  0  0  0  0
   -6.2859   10.7573  -29.7344 C   0  0  0  0  0  0  0  0  0  0  0  0
   -6.0307   10.4421  -31.0690 C   0  0  0  0  0  0  0  0  0  0  0  0
   -3.5126   14.9750  -30.4947 C   0  0  0  0  0  0  0  0  0  0  0  0
   -6.7631   13.0931  -27.5481 C   0  0  0  0  0  0  0  0  0  0  0  0
   -3.2517   12.8720  -31.8906 C   0  0  0  0  0  0  0  0  0  0  0  0
   -2.5601   13.9321  -31.0282 C   0  0  0  0  0  0  0  0  0  0  0  0
   -4.5174   15.3679  -31.0776 O   0  0  0  0  0  0  0  0  0  0  0  0
   -7.2496   10.0957  -29.0307 O   0  0  0  0  0  0  0  0  0  0  0  0
   -5.7902   12.0811  -27.7996 O   0  0  0  0  0  0  0  0  0  0  0  0
   -7.0070    9.0841  -31.9617 Br  0  0  0  0  0  0  0  0  0  0  0  0
   -3.9930   13.2325  -29.3101 H   0  0  0  0  0  0  0  0  0  0  0  0
   -4.8358   10.8924  -32.8128 H   0  0  0  0  0  0  0  0  0  0  0  0
   -3.2452   15.3851  -29.5056 H   0  0  0  0  0  0  0  0  0  0  0  0
   -6.8558   13.2508  -26.4707 H   0  0  0  0  0  0  0  0  0  0  0  0
   -7.7252   12.7869  -27.9664 H   0  0  0  0  0  0  0  0  0  0  0  0
   -6.4404   14.0224  -28.0236 H   0  0  0  0  0  0  0  0  0  0  0  0
   -2.4996   12.1669  -32.2830 H   0  0  0  0  0  0  0  0  0  0  0  0
   -3.6830   13.3488  -32.7868 H   0  0  0  0  0  0  0  0  0  0  0  0
   -1.7907   14.4551  -31.6074 H   0  0  0  0  0  0  0  0  0  0  0  0
   -2.0691   13.4647  -30.1670 H   0  0  0  0  0  0  0  0  0  0  0  0
   -7.2950   10.4383  -28.1251 H   0  0  0  0  0  0  0  0  0  0  0  0
  1  3  1  0  0  0  0
  1  4  2  0  0  0  0
  2  3  2  0  0  0  0
  2  6  1  0  0  0  0
  3  9  1  0  0  0  0
  4  5  1  0  0  0  0
  4 13  1  0  0  0  0
  5  6  2  0  0  0  0
  5 12  1  0  0  0  0
  6 14  1  0  0  0  0
  7 10  1  0  0  0  0
  7 11  2  0  0  0  0
  8 13  1  0  0  0  0
  9 10  1  0  0  0  0
  1 15  1  0  0  0  0
  2 16  1  0  0  0  0
  7 17  1  0  0  0  0
  8 18  1  0  0  0  0
  8 19  1  0  0  0  0
  8 20  1  0  0  0  0
  9 21  1  0  0  0  0
  9 22  1  0  0  0  0
 10 23  1  0  0  0  0
 10 24  1  0  0  0  0
 12 25  1  0  0  0  0
M  END
> <id>
EN300-1925697

> <smiles>
COC=1C=C(CCC=O)C=C(Br)C1O

> <IUPAC Name>
3-(3-bromo-4-hydroxy-5-methoxyphenyl)propanal

> <CAS>
1781650-71-2

> <URL>
https://www.enaminestore.com/catalog/EN300-1925697

> <ROCS_ShapeQuery>
_x1604L0AP1_x0771L0AP1

> <ROCS_TanimotoCombo>
0.915 

> <ROCS_ShapeTanimoto>
0.532 

> <ROCS_ColorTanimoto>
0.383 

> <ROCS_RefTversky>
0.479 

> <ROCS_RefColorTversky>
0.429 

> <ROCS_RefTverskyCombo>
0.908 

> <ROCS_FitTversky>
1.262 

> <ROCS_FitColorTversky>
0.779 

> <ROCS_FitTverskyCombo>
2.041 

> <ROCS_ColorScore>
-4.898

> <ROCS_Overlap>
813.591

> <ROCS_Rank>
151                 

$$$$
untitled-dbase-298_29
  -OEChem-06042309053D

 18 18  0     0  0  0  0  0  0999 V2000
   -4.6056   12.4922  -29.8522 C   0  0  0  0  0  0  0  0  0  0  0  0
   -4.3535   12.1755  -31.1870 C   0  0  0  0  0  0  0  0  0  0  0  0
   -5.5764   11.7881  -29.1397 C   0  0  0  0  0  0  0  0  0  0  0  0
   -5.0721   11.1548  -31.8094 C   0  0  0  0  0  0  0  0  0  0  0  0
   -6.2951   10.7675  -29.7621 C   0  0  0  0  0  0  0  0  0  0  0  0
   -6.0430   10.4508  -31.0970 C   0  0  0  0  0  0  0  0  0  0  0  0
   -4.7673   10.8683  -33.2062 C   0  0  0  0  0  0  0  0  0  0  0  0
   -5.8547   10.9740  -34.2647 C   0  0  0  0  0  0  0  0  0  0  0  0
   -3.6260   10.5151  -33.5539 O   0  0  0  0  0  0  0  0  0  0  0  0
   -7.2363   10.1017  -29.0340 O   0  0  0  0  0  0  0  0  0  0  0  0
   -7.0497   11.3501  -33.7332 F   0  0  0  0  0  0  0  0  0  0  0  0
   -6.0741    9.7794  -34.8732 F   0  0  0  0  0  0  0  0  0  0  0  0
   -7.0330    9.0546  -31.9313 Br  0  0  0  0  0  0  0  0  0  0  0  0
   -4.0464   13.2873  -29.3678 H   0  0  0  0  0  0  0  0  0  0  0  0
   -3.5939   12.7323  -31.7304 H   0  0  0  0  0  0  0  0  0  0  0  0
   -5.7682   12.0417  -28.1005 H   0  0  0  0  0  0  0  0  0  0  0  0
   -5.5751   11.7173  -35.0163 H   0  0  0  0  0  0  0  0  0  0  0  0
   -7.6608    9.4216  -29.5794 H   0  0  0  0  0  0  0  0  0  0  0  0
  1  2  2  0  0  0  0
  1  3  1  0  0  0  0
  2  4  1  0  0  0  0
  3  5  2  0  0  0  0
  4  6  2  0  0  0  0
  4  7  1  0  0  0  0
  5  6  1  0  0  0  0
  5 10  1  0  0  0  0
  6 13  1  0  0  0  0
  7  8  1  0  0  0  0
  7  9  2  0  0  0  0
  8 11  1  0  0  0  0
  8 12  1  0  0  0  0
  1 14  1  0  0  0  0
  2 15  1  0  0  0  0
  3 16  1  0  0  0  0
  8 17  1  0  0  0  0
 10 18  1  0  0  0  0
M  END
> <id>
EN300-1950773

> <smiles>
OC=1C=CC=C(C(=O)C(F)F)C1Br

> <IUPAC Name>
1-(2-bromo-3-hydroxyphenyl)-2,2-difluoroethan-1-one

> <CAS>
2229407-70-7

> <URL>
https://www.enaminestore.com/catalog/EN300-1950773

> <ROCS_ShapeQuery>
_x1604L0AP1_x0771L0AP1

> <ROCS_TanimotoCombo>
0.914 

> <ROCS_ShapeTanimoto>
0.501 

> <ROCS_ColorTanimoto>
0.413 

> <ROCS_RefTversky>
0.456 

> <ROCS_RefColorTversky>
0.430 

> <ROCS_RefTverskyCombo>
0.885 

> <ROCS_FitTversky>
1.249 

> <ROCS_FitColorTversky>
0.915 

> <ROCS_FitTverskyCombo>
2.164 

> <ROCS_ColorScore>
-4.883

> <ROCS_Overlap>
772.353

> <ROCS_Rank>
152                 

$$$$
untitled-dbase-2138_17
  -OEChem-06042309053D

 22 23  0     0  0  0  0  0  0999 V2000
   -4.5693   12.5193  -29.7574 C   0  0  0  0  0  0  0  0  0  0  0  0
   -5.9929   10.5094  -31.0675 C   0  0  0  0  0  0  0  0  0  0  0  0
   -6.2684   10.8020  -29.7318 C   0  0  0  0  0  0  0  0  0  0  0  0
   -5.0055   11.2218  -31.7481 C   0  0  0  0  0  0  0  0  0  0  0  0
   -4.2937   12.2268  -31.0930 C   0  0  0  0  0  0  0  0  0  0  0  0
   -5.5567   11.8069  -29.0767 C   0  0  0  0  0  0  0  0  0  0  0  0
   -6.7236    9.4619  -31.7685 C   0  0  0  0  0  0  0  0  0  0  0  0
   -7.3964    8.6106  -34.0935 C   0  0  0  0  0  0  0  0  0  0  0  0
   -7.0131   10.0516  -34.2477 C   0  0  0  0  0  0  0  0  0  0  0  0
   -6.3653    9.2113  -33.2033 C   0  0  0  0  0  0  0  0  0  0  0  0
   -7.6148    8.7724  -31.2720 O   0  0  0  0  0  0  0  0  0  0  0  0
   -7.2356   10.0967  -29.0754 O   0  0  0  0  0  0  0  0  0  0  0  0
   -4.7437   10.9388  -33.0335 F   0  0  0  0  0  0  0  0  0  0  0  0
   -3.0739   13.1095  -31.9270 Cl  0  0  0  0  0  0  0  0  0  0  0  0
   -5.9016   12.2338  -27.2618 Br  0  0  0  0  0  0  0  0  0  0  0  0
   -4.0129   13.3044  -29.2497 H   0  0  0  0  0  0  0  0  0  0  0  0
   -8.3821    8.3907  -33.7019 H   0  0  0  0  0  0  0  0  0  0  0  0
   -7.0470    7.9123  -34.8443 H   0  0  0  0  0  0  0  0  0  0  0  0
   -6.4060   10.3235  -35.1026 H   0  0  0  0  0  0  0  0  0  0  0  0
   -7.7429   10.7992  -33.9614 H   0  0  0  0  0  0  0  0  0  0  0  0
   -5.3408    8.9257  -33.3343 H   0  0  0  0  0  0  0  0  0  0  0  0
   -7.6290    9.4399  -29.6696 H   0  0  0  0  0  0  0  0  0  0  0  0
  1  5  2  0  0  0  0
  1  6  1  0  0  0  0
  2  3  1  0  0  0  0
  2  4  2  0  0  0  0
  2  7  1  0  0  0  0
  3  6  2  0  0  0  0
  3 12  1  0  0  0  0
  4  5  1  0  0  0  0
  4 13  1  0  0  0  0
  5 14  1  0  0  0  0
  6 15  1  0  0  0  0
  7 10  1  0  0  0  0
  7 11  2  0  0  0  0
  8  9  1  0  0  0  0
  8 10  1  0  0  0  0
  9 10  1  0  0  0  0
  1 16  1  0  0  0  0
  8 17  1  0  0  0  0
  8 18  1  0  0  0  0
  9 19  1  0  0  0  0
  9 20  1  0  0  0  0
 10 21  1  0  0  0  0
 12 22  1  0  0  0  0
M  END
> <id>
EN300-1276428

> <smiles>
OC=1C(Br)=CC(Cl)=C(F)C1C(=O)C2CC2

> <IUPAC Name>
6-bromo-4-chloro-2-cyclopropanecarbonyl-3-fluorophenol

> <CAS>
1695062-97-5

> <URL>
https://www.enaminestore.com/catalog/EN300-1276428

> <ROCS_ShapeQuery>
_x1604L0AP1_x0771L0AP1

> <ROCS_TanimotoCombo>
0.914 

> <ROCS_ShapeTanimoto>
0.611 

> <ROCS_ColorTanimoto>
0.303 

> <ROCS_RefTversky>
0.536 

> <ROCS_RefColorTversky>
0.342 

> <ROCS_RefTverskyCombo>
0.878 

> <ROCS_FitTversky>
1.295 

> <ROCS_FitColorTversky>
0.728 

> <ROCS_FitTverskyCombo>
2.024 

> <ROCS_ColorScore>
-3.885

> <ROCS_Overlap>
911.427

> <ROCS_Rank>
153                 

$$$$
untitled-dbase-274_80
  -OEChem-06042309053D

 19 19  0     0  0  0  0  0  0999 V2000
   -4.5941   12.4740  -29.8352 C   0  0  0  0  0  0  0  0  0  0  0  0
   -5.5735   11.7778  -29.1270 C   0  0  0  0  0  0  0  0  0  0  0  0
   -5.0623   11.1397  -31.7942 C   0  0  0  0  0  0  0  0  0  0  0  0
   -4.3385   12.1550  -31.1689 C   0  0  0  0  0  0  0  0  0  0  0  0
   -6.2972   10.7625  -29.7522 C   0  0  0  0  0  0  0  0  0  0  0  0
   -6.0416   10.4434  -31.0859 C   0  0  0  0  0  0  0  0  0  0  0  0
   -3.2911   12.8999  -31.9250 C   0  0  0  0  0  0  0  0  0  0  0  0
   -3.1468   14.2586  -31.4673 N   0  0  0  0  0  0  0  0  0  0  0  0
   -7.2464   10.1001  -29.0320 O   0  0  0  0  0  0  0  0  0  0  0  0
   -2.1409   14.2231  -30.4166 O   0  0  0  0  0  0  0  0  0  0  0  0
   -7.0045    9.0688  -31.9668 Br  0  0  0  0  0  0  0  0  0  0  0  0
   -4.0356   13.2634  -29.3389 H   0  0  0  0  0  0  0  0  0  0  0  0
   -5.7671   12.0320  -28.0882 H   0  0  0  0  0  0  0  0  0  0  0  0
   -4.8564   10.8981  -32.8348 H   0  0  0  0  0  0  0  0  0  0  0  0
   -2.3105   12.4131  -31.8276 H   0  0  0  0  0  0  0  0  0  0  0  0
   -3.5201   12.9389  -32.9989 H   0  0  0  0  0  0  0  0  0  0  0  0
   -2.6904   14.8453  -32.1718 H   0  0  0  0  0  0  0  0  0  0  0  0
   -7.6718    9.4240  -29.5818 H   0  0  0  0  0  0  0  0  0  0  0  0
   -2.1008   15.1616  -30.1632 H   0  0  0  0  0  0  0  0  0  0  0  0
  1  2  1  0  0  0  0
  1  4  2  0  0  0  0
  2  5  2  0  0  0  0
  3  4  1  0  0  0  0
  3  6  2  0  0  0  0
  4  7  1  0  0  0  0
  5  6  1  0  0  0  0
  5  9  1  0  0  0  0
  6 11  1  0  0  0  0
  7  8  1  0  0  0  0
  8 10  1  0  0  0  0
  1 12  1  0  0  0  0
  2 13  1  0  0  0  0
  3 14  1  0  0  0  0
  7 15  1  0  0  0  0
  7 16  1  0  0  0  0
  8 17  1  0  0  0  0
  9 18  1  0  0  0  0
 10 19  1  0  0  0  0
M  END
> <id>
EN300-1894692

> <smiles>
ONCC=1C=CC(O)=C(Br)C1

> <MDLNUMBER>
MFCD24285085

> <IUPAC Name>
2-bromo-4-[(hydroxyamino)methyl]phenol

> <CAS>
1506580-47-7

> <URL>
https://www.enaminestore.com/catalog/EN300-1894692

> <ROCS_ShapeQuery>
_x1604L0AP1_x0771L0AP1

> <ROCS_TanimotoCombo>
0.914 

> <ROCS_ShapeTanimoto>
0.501 

> <ROCS_ColorTanimoto>
0.413 

> <ROCS_RefTversky>
0.437 

> <ROCS_RefColorTversky>
0.429 

> <ROCS_RefTverskyCombo>
0.866 

> <ROCS_FitTversky>
1.419 

> <ROCS_FitColorTversky>
0.914 

> <ROCS_FitTverskyCombo>
2.333 

> <ROCS_ColorScore>
-4.878

> <ROCS_Overlap>
738.082

> <ROCS_Rank>
154                 

$$$$
untitled-dbase-1773_17
  -OEChem-06042309053D

 21 21  0     1  0  0  0  0  0999 V2000
   -5.0745   11.1478  -31.8054 C   0  0  0  0  0  0  0  0  0  0  0  0
   -5.5792   11.7881  -29.1374 C   0  0  0  0  0  0  0  0  0  0  0  0
   -4.3548   12.1690  -31.1851 C   0  0  0  0  0  0  0  0  0  0  0  0
   -6.2989   10.7669  -29.7578 C   0  0  0  0  0  0  0  0  0  0  0  0
   -4.6071   12.4892  -29.8511 C   0  0  0  0  0  0  0  0  0  0  0  0
   -6.0466   10.4468  -31.0917 C   0  0  0  0  0  0  0  0  0  0  0  0
   -2.1942   12.0159  -32.4892 C   0  0  0  0  0  0  0  0  0  0  0  0
   -3.3159   12.9164  -31.9507 C   0  0  2  0  0  0  0  0  0  0  0  0
   -2.7414   14.0028  -31.1752 N   0  0  0  0  0  0  0  0  0  0  0  0
   -7.2412   10.1002  -29.0324 O   0  0  0  0  0  0  0  0  0  0  0  0
   -3.9207   13.4694  -29.2474 F   0  0  0  0  0  0  0  0  0  0  0  0
   -7.0065    9.0665  -31.9668 Br  0  0  0  0  0  0  0  0  0  0  0  0
   -4.8713   10.9056  -32.8463 H   0  0  0  0  0  0  0  0  0  0  0  0
   -5.7696   12.0437  -28.0985 H   0  0  0  0  0  0  0  0  0  0  0  0
   -1.6956   11.4871  -31.6695 H   0  0  0  0  0  0  0  0  0  0  0  0
   -2.5859   11.2674  -33.1873 H   0  0  0  0  0  0  0  0  0  0  0  0
   -1.4359   12.5938  -33.0293 H   0  0  0  0  0  0  0  0  0  0  0  0
   -3.7707   13.4141  -32.8254 H   0  0  0  0  0  0  0  0  0  0  0  0
   -2.0670   14.4719  -31.7362 H   0  0  0  0  0  0  0  0  0  0  0  0
   -3.4706   14.6282  -30.9166 H   0  0  0  0  0  0  0  0  0  0  0  0
   -7.6645    9.4203  -29.5792 H   0  0  0  0  0  0  0  0  0  0  0  0
  1  3  2  0  0  0  0
  1  6  1  0  0  0  0
  2  4  1  0  0  0  0
  2  5  2  0  0  0  0
  3  5  1  0  0  0  0
  3  8  1  0  0  0  0
  4  6  2  0  0  0  0
  4 10  1  0  0  0  0
  5 11  1  0  0  0  0
  6 12  1  0  0  0  0
  7  8  1  0  0  0  0
  8  9  1  0  0  0  0
  1 13  1  0  0  0  0
  2 14  1  0  0  0  0
  7 15  1  0  0  0  0
  7 16  1  0  0  0  0
  7 17  1  0  0  0  0
  8 18  1  0  0  0  0
  9 19  1  0  0  0  0
  9 20  1  0  0  0  0
 10 21  1  0  0  0  0
M  END
> <id>
EN300-1277465

> <smiles>
CC(N)C=1C=C(Br)C(O)=CC1F

> <MDLNUMBER>
MFCD31408992

> <IUPAC Name>
4-(1-aminoethyl)-2-bromo-5-fluorophenol

> <CAS>
1780689-26-0

> <URL>
https://www.enaminestore.com/catalog/EN300-1277465

> <ROCS_ShapeQuery>
_x1604L0AP1_x0771L0AP1

> <ROCS_TanimotoCombo>
0.914 

> <ROCS_ShapeTanimoto>
0.533 

> <ROCS_ColorTanimoto>
0.380 

> <ROCS_RefTversky>
0.464 

> <ROCS_RefColorTversky>
0.427 

> <ROCS_RefTverskyCombo>
0.892 

> <ROCS_FitTversky>
1.386 

> <ROCS_FitColorTversky>
0.776 

> <ROCS_FitTverskyCombo>
2.162 

> <ROCS_ColorScore>
-4.878

> <ROCS_Overlap>
786.316

> <ROCS_Rank>
155                 

$$$$
untitled-dbase-1517_435
  -OEChem-06042309053D

 25 25  0     0  0  0  0  0  0999 V2000
   -4.3075   12.3542  -30.9916 C   0  0  0  0  0  0  0  0  0  0  0  0
   -5.0431   11.4157  -31.7153 C   0  0  0  0  0  0  0  0  0  0  0  0
   -4.5499   12.5301  -29.6293 C   0  0  0  0  0  0  0  0  0  0  0  0
   -6.0211   10.6533  -31.0768 C   0  0  0  0  0  0  0  0  0  0  0  0
   -6.2636   10.8292  -29.7144 C   0  0  0  0  0  0  0  0  0  0  0  0
   -5.5279   11.7677  -28.9907 C   0  0  0  0  0  0  0  0  0  0  0  0
   -6.3427    8.8943  -34.0099 C   0  0  0  0  0  0  0  0  0  0  0  0
   -6.9871    7.5447  -33.7222 C   0  0  0  0  0  0  0  0  0  0  0  0
   -6.9393   10.0232  -33.1781 C   0  0  0  0  0  0  0  0  0  0  0  0
   -6.4072    6.4814  -34.4962 N   0  0  0  0  0  0  0  0  0  0  0  0
   -7.2243   10.0739  -29.1078 O   0  0  0  0  0  0  0  0  0  0  0  0
   -6.7346    9.7345  -31.8014 O   0  0  0  0  0  0  0  0  0  0  0  0
   -5.8257   12.0332  -27.1375 Br  0  0  0  0  0  0  0  0  0  0  0  0
   -3.5463   12.9485  -31.4886 H   0  0  0  0  0  0  0  0  0  0  0  0
   -4.8477   11.2819  -32.7758 H   0  0  0  0  0  0  0  0  0  0  0  0
   -3.9665   13.2655  -29.0811 H   0  0  0  0  0  0  0  0  0  0  0  0
   -5.2665    8.8327  -33.8053 H   0  0  0  0  0  0  0  0  0  0  0  0
   -6.4314    9.1419  -35.0753 H   0  0  0  0  0  0  0  0  0  0  0  0
   -6.8538    7.2814  -32.6683 H   0  0  0  0  0  0  0  0  0  0  0  0
   -8.0604    7.5675  -33.9361 H   0  0  0  0  0  0  0  0  0  0  0  0
   -6.4587   10.9800  -33.4046 H   0  0  0  0  0  0  0  0  0  0  0  0
   -8.0154   10.1131  -33.3578 H   0  0  0  0  0  0  0  0  0  0  0  0
   -5.4363    6.3970  -34.2724 H   0  0  0  0  0  0  0  0  0  0  0  0
   -6.8739    5.6227  -34.2847 H   0  0  0  0  0  0  0  0  0  0  0  0
   -7.6349    9.4772  -29.7521 H   0  0  0  0  0  0  0  0  0  0  0  0
  1  2  1  0  0  0  0
  1  3  2  0  0  0  0
  2  4  2  0  0  0  0
  3  6  1  0  0  0  0
  4  5  1  0  0  0  0
  4 12  1  0  0  0  0
  5  6  2  0  0  0  0
  5 11  1  0  0  0  0
  6 13  1  0  0  0  0
  7  8  1  0  0  0  0
  7  9  1  0  0  0  0
  8 10  1  0  0  0  0
  9 12  1  0  0  0  0
  1 14  1  0  0  0  0
  2 15  1  0  0  0  0
  3 16  1  0  0  0  0
  7 17  1  0  0  0  0
  7 18  1  0  0  0  0
  8 19  1  0  0  0  0
  8 20  1  0  0  0  0
  9 21  1  0  0  0  0
  9 22  1  0  0  0  0
 10 23  1  0  0  0  0
 10 24  1  0  0  0  0
 11 25  1  0  0  0  0
M  END
> <id>
EN300-1923467

> <smiles>
NCCCOC=1C=CC=C(Br)C1O

> <IUPAC Name>
2-(3-aminopropoxy)-6-bromophenol

> <CAS>
2229368-70-9

> <URL>
https://www.enaminestore.com/catalog/EN300-1923467

> <ROCS_ShapeQuery>
_x1604L0AP1_x0771L0AP1

> <ROCS_TanimotoCombo>
0.914 

> <ROCS_ShapeTanimoto>
0.563 

> <ROCS_ColorTanimoto>
0.351 

> <ROCS_RefTversky>
0.488 

> <ROCS_RefColorTversky>
0.423 

> <ROCS_RefTverskyCombo>
0.911 

> <ROCS_FitTversky>
1.379 

> <ROCS_FitColorTversky>
0.671 

> <ROCS_FitTverskyCombo>
2.050 

> <ROCS_ColorScore>
-4.854

> <ROCS_Overlap>
826.340

> <ROCS_Rank>
156                 

$$$$
untitled-dbase-629_301
  -OEChem-06042309053D

 25 25  0     0  0  0  0  0  0999 V2000
   -4.3682   12.1782  -31.2000 C   0  0  0  0  0  0  0  0  0  0  0  0
   -4.6076   12.4964  -29.8632 C   0  0  0  0  0  0  0  0  0  0  0  0
   -5.0924   11.1565  -31.8143 C   0  0  0  0  0  0  0  0  0  0  0  0
   -5.5711   11.7927  -29.1406 C   0  0  0  0  0  0  0  0  0  0  0  0
   -6.2953   10.7710  -29.7548 C   0  0  0  0  0  0  0  0  0  0  0  0
   -6.0559   10.4529  -31.0917 C   0  0  0  0  0  0  0  0  0  0  0  0
   -5.0092   13.1723  -27.2867 C   0  0  0  0  0  0  0  0  0  0  0  0
   -4.7986   10.8559  -33.2490 C   0  0  0  0  0  0  0  0  0  0  0  0
   -6.0285   10.9537  -34.1566 C   0  0  0  0  0  0  0  0  0  0  0  0
   -5.8352    8.3258  -36.1435 N   0  5  0  0  0  0  0  0  0  0  0  0
   -5.6551   10.6238  -35.5347 N   0  0  0  0  0  0  0  0  0  0  0  0
   -5.7504    9.4242  -35.8479 N   0  3  0  0  0  0  0  0  0  0  0  0
   -7.2328   10.0973  -29.0270 O   0  0  0  0  0  0  0  0  0  0  0  0
   -5.7935   12.1152  -27.8357 O   0  0  0  0  0  0  0  0  0  0  0  0
   -7.0550    9.0633  -31.9246 Br  0  0  0  0  0  0  0  0  0  0  0  0
   -3.6154   12.7333  -31.7537 H   0  0  0  0  0  0  0  0  0  0  0  0
   -4.0407   13.2942  -29.3912 H   0  0  0  0  0  0  0  0  0  0  0  0
   -5.2860   13.3272  -26.2410 H   0  0  0  0  0  0  0  0  0  0  0  0
   -5.1784   14.0879  -27.8591 H   0  0  0  0  0  0  0  0  0  0  0  0
   -3.9531   12.8985  -27.3450 H   0  0  0  0  0  0  0  0  0  0  0  0
   -4.0087   11.5243  -33.6289 H   0  0  0  0  0  0  0  0  0  0  0  0
   -4.3821    9.8387  -33.3270 H   0  0  0  0  0  0  0  0  0  0  0  0
   -6.7942   10.2434  -33.8284 H   0  0  0  0  0  0  0  0  0  0  0  0
   -6.4693   11.9559  -34.1253 H   0  0  0  0  0  0  0  0  0  0  0  0
   -7.2668   10.4467  -28.1236 H   0  0  0  0  0  0  0  0  0  0  0  0
  1  2  1  0  0  0  0
  1  3  2  0  0  0  0
  2  4  2  0  0  0  0
  3  6  1  0  0  0  0
  3  8  1  0  0  0  0
  4  5  1  0  0  0  0
  4 14  1  0  0  0  0
  5  6  2  0  0  0  0
  5 13  1  0  0  0  0
  6 15  1  0  0  0  0
  7 14  1  0  0  0  0
  8  9  1  0  0  0  0
  9 11  1  0  0  0  0
 10 12  2  0  0  0  0
 11 12  2  0  0  0  0
  1 16  1  0  0  0  0
  2 17  1  0  0  0  0
  7 18  1  0  0  0  0
  7 19  1  0  0  0  0
  7 20  1  0  0  0  0
  8 21  1  0  0  0  0
  8 22  1  0  0  0  0
  9 23  1  0  0  0  0
  9 24  1  0  0  0  0
 13 25  1  0  0  0  0
M  CHG  2  10  -1  12   1
M  END
> <id>
EN300-1936288

> <smiles>
COC=1C=CC(CCN=[N+]=[N-])=C(Br)C1O

> <IUPAC Name>
3-(2-azidoethyl)-2-bromo-6-methoxyphenol

> <CAS>
2228430-74-6

> <URL>
https://www.enaminestore.com/catalog/EN300-1936288

> <ROCS_ShapeQuery>
_x1604L0AP1_x0771L0AP1

> <ROCS_TanimotoCombo>
0.914 

> <ROCS_ShapeTanimoto>
0.498 

> <ROCS_ColorTanimoto>
0.415 

> <ROCS_RefTversky>
0.468 

> <ROCS_RefColorTversky>
0.431 

> <ROCS_RefTverskyCombo>
0.899 

> <ROCS_FitTversky>
1.150 

> <ROCS_FitColorTversky>
0.918 

> <ROCS_FitTverskyCombo>
2.068 

> <ROCS_ColorScore>
-4.899

> <ROCS_Overlap>
795.455

> <ROCS_Rank>
157                 

$$$$
untitled-dbase-625_173
  -OEChem-06042309053D

 29 29  0     0  0  0  0  0  0999 V2000
   -4.5775   12.4536  -29.6754 C   0  0  0  0  0  0  0  0  0  0  0  0
   -4.9922   11.1875  -31.6907 C   0  0  0  0  0  0  0  0  0  0  0  0
   -4.2808   12.1751  -31.0095 C   0  0  0  0  0  0  0  0  0  0  0  0
   -5.5857   11.7444  -29.0224 C   0  0  0  0  0  0  0  0  0  0  0  0
   -6.2971   10.7568  -29.7036 C   0  0  0  0  0  0  0  0  0  0  0  0
   -6.0004   10.4783  -31.0378 C   0  0  0  0  0  0  0  0  0  0  0  0
   -2.9726   12.5294  -33.1860 C   0  0  0  0  0  0  0  0  0  0  0  0
   -1.8653   12.8142  -30.9440 C   0  0  0  0  0  0  0  0  0  0  0  0
   -5.1468   11.2950  -26.7286 C   0  0  0  0  0  0  0  0  0  0  0  0
   -3.2035   12.9343  -31.7075 C   0  0  0  0  0  0  0  0  0  0  0  0
   -3.1874   14.8900  -30.4619 N   0  0  0  0  0  0  0  0  0  0  0  0
   -7.2803   10.0746  -29.0481 O   0  0  0  0  0  0  0  0  0  0  0  0
   -5.8644   12.0282  -27.7194 O   0  0  0  0  0  0  0  0  0  0  0  0
   -3.5281   14.3428  -31.7576 O   0  0  0  0  0  0  0  0  0  0  0  0
   -6.9455    9.1435  -31.9966 Br  0  0  0  0  0  0  0  0  0  0  0  0
   -4.0245   13.2233  -29.1422 H   0  0  0  0  0  0  0  0  0  0  0  0
   -4.7537   10.9778  -32.7312 H   0  0  0  0  0  0  0  0  0  0  0  0
   -2.1719   13.1160  -33.6524 H   0  0  0  0  0  0  0  0  0  0  0  0
   -2.7085   11.4721  -33.2879 H   0  0  0  0  0  0  0  0  0  0  0  0
   -3.8777   12.7185  -33.7754 H   0  0  0  0  0  0  0  0  0  0  0  0
   -1.0562   13.3646  -31.4380 H   0  0  0  0  0  0  0  0  0  0  0  0
   -1.5582   11.7674  -30.8440 H   0  0  0  0  0  0  0  0  0  0  0  0
   -1.9581   13.2400  -29.9377 H   0  0  0  0  0  0  0  0  0  0  0  0
   -5.4639   11.6183  -25.7341 H   0  0  0  0  0  0  0  0  0  0  0  0
   -4.0744   11.4647  -26.8539 H   0  0  0  0  0  0  0  0  0  0  0  0
   -5.3617   10.2306  -26.8490 H   0  0  0  0  0  0  0  0  0  0  0  0
   -4.0776   15.3184  -30.2125 H   0  0  0  0  0  0  0  0  0  0  0  0
   -2.5699   15.6482  -30.7478 H   0  0  0  0  0  0  0  0  0  0  0  0
   -7.3543   10.3925  -28.1353 H   0  0  0  0  0  0  0  0  0  0  0  0
  1  3  1  0  0  0  0
  1  4  2  0  0  0  0
  2  3  2  0  0  0  0
  2  6  1  0  0  0  0
  3 10  1  0  0  0  0
  4  5  1  0  0  0  0
  4 13  1  0  0  0  0
  5  6  2  0  0  0  0
  5 12  1  0  0  0  0
  6 15  1  0  0  0  0
  7 10  1  0  0  0  0
  8 10  1  0  0  0  0
  9 13  1  0  0  0  0
 10 14  1  0  0  0  0
 11 14  1  0  0  0  0
  1 16  1  0  0  0  0
  2 17  1  0  0  0  0
  7 18  1  0  0  0  0
  7 19  1  0  0  0  0
  7 20  1  0  0  0  0
  8 21  1  0  0  0  0
  8 22  1  0  0  0  0
  8 23  1  0  0  0  0
  9 24  1  0  0  0  0
  9 25  1  0  0  0  0
  9 26  1  0  0  0  0
 11 27  1  0  0  0  0
 11 28  1  0  0  0  0
 12 29  1  0  0  0  0
M  END
> <id>
EN300-1927008

> <smiles>
COC=1C=C(C=C(Br)C1O)C(C)(C)ON

> <IUPAC Name>
4-[2-(aminooxy)propan-2-yl]-2-bromo-6-methoxyphenol

> <CAS>
2228346-20-9

> <URL>
https://www.enaminestore.com/catalog/EN300-1927008

> <ROCS_ShapeQuery>
_x1604L0AP1_x0771L0AP1

> <ROCS_TanimotoCombo>
0.913 

> <ROCS_ShapeTanimoto>
0.534 

> <ROCS_ColorTanimoto>
0.380 

> <ROCS_RefTversky>
0.490 

> <ROCS_RefColorTversky>
0.427 

> <ROCS_RefTverskyCombo>
0.917 

> <ROCS_FitTversky>
1.198 

> <ROCS_FitColorTversky>
0.775 

> <ROCS_FitTverskyCombo>
1.974 

> <ROCS_ColorScore>
-4.873

> <ROCS_Overlap>
833.342

> <ROCS_Rank>
158                 

$$$$
untitled-dbase-42_0
  -OEChem-06042309053D

 16 16  0     0  0  0  0  0  0999 V2000
   -4.3492   12.1493  -31.2159 C   0  0  0  0  0  0  0  0  0  0  0  0
   -5.0774   11.1276  -31.8253 C   0  0  0  0  0  0  0  0  0  0  0  0
   -4.5922   12.4794  -29.8825 C   0  0  0  0  0  0  0  0  0  0  0  0
   -6.2917   10.7660  -29.7681 C   0  0  0  0  0  0  0  0  0  0  0  0
   -5.5634   11.7877  -29.1587 C   0  0  0  0  0  0  0  0  0  0  0  0
   -6.0486   10.4359  -31.1014 C   0  0  0  0  0  0  0  0  0  0  0  0
   -3.8113   13.5722  -29.2345 C   0  0  0  0  0  0  0  0  0  0  0  0
   -7.2336   10.1075  -29.0348 O   0  0  0  0  0  0  0  0  0  0  0  0
   -5.7978   12.1033  -27.8764 F   0  0  0  0  0  0  0  0  0  0  0  0
   -7.0190    9.0543  -31.9625 Br  0  0  0  0  0  0  0  0  0  0  0  0
   -3.5945   12.6829  -31.7879 H   0  0  0  0  0  0  0  0  0  0  0  0
   -4.8743   10.8846  -32.8654 H   0  0  0  0  0  0  0  0  0  0  0  0
   -4.3198   14.5352  -29.3667 H   0  0  0  0  0  0  0  0  0  0  0  0
   -3.6866   13.3894  -28.1593 H   0  0  0  0  0  0  0  0  0  0  0  0
   -2.8032   13.6494  -29.6624 H   0  0  0  0  0  0  0  0  0  0  0  0
   -7.2665   10.4657  -28.1343 H   0  0  0  0  0  0  0  0  0  0  0  0
  1  2  1  0  0  0  0
  1  3  2  0  0  0  0
  2  6  2  0  0  0  0
  3  5  1  0  0  0  0
  3  7  1  0  0  0  0
  4  5  2  0  0  0  0
  4  6  1  0  0  0  0
  4  8  1  0  0  0  0
  5  9  1  0  0  0  0
  6 10  1  0  0  0  0
  1 11  1  0  0  0  0
  2 12  1  0  0  0  0
  7 13  1  0  0  0  0
  7 14  1  0  0  0  0
  7 15  1  0  0  0  0
  8 16  1  0  0  0  0
M  END
> <id>
EN300-187070

> <smiles>
CC=1C=CC(Br)=C(O)C1F

> <MDLNUMBER>
MFCD19105384

> <IUPAC Name>
6-bromo-2-fluoro-3-methylphenol

> <CAS>
1310416-52-4

> <Purity>
95

> <URL>
https://www.enaminestore.com/catalog/EN300-187070

> <ROCS_ShapeQuery>
_x1604L0AP1_x0771L0AP1

> <ROCS_TanimotoCombo>
0.913 

> <ROCS_ShapeTanimoto>
0.463 

> <ROCS_ColorTanimoto>
0.451 

> <ROCS_RefTversky>
0.408 

> <ROCS_RefColorTversky>
0.431 

> <ROCS_RefTverskyCombo>
0.839 

> <ROCS_FitTversky>
1.406 

> <ROCS_FitColorTversky>
1.113 

> <ROCS_FitTverskyCombo>
2.519 

> <ROCS_ColorScore>
-4.878

> <ROCS_Overlap>
689.213

> <ROCS_Rank>
159                 

$$$$
untitled-dbase-1350_86
  -OEChem-06042309053D

 25 25  0     0  0  0  0  0  0999 V2000
   -4.1971   15.8568  -30.2372 C   0  0  0  0  0  0  0  0  0  0  0  0
   -3.4500   14.9960  -30.6143 C   0  0  0  0  0  0  0  0  0  0  0  0
   -4.5664   12.4534  -29.8136 C   0  0  0  0  0  0  0  0  0  0  0  0
   -5.0396   11.1231  -31.7740 C   0  0  0  0  0  0  0  0  0  0  0  0
   -4.3078   12.1308  -31.1458 C   0  0  0  0  0  0  0  0  0  0  0  0
   -5.5566   11.7682  -29.1096 C   0  0  0  0  0  0  0  0  0  0  0  0
   -6.2883   10.7604  -29.7378 C   0  0  0  0  0  0  0  0  0  0  0  0
   -6.0298   10.4379  -31.0700 C   0  0  0  0  0  0  0  0  0  0  0  0
   -5.0536   11.3929  -26.8157 C   0  0  0  0  0  0  0  0  0  0  0  0
   -2.5308   13.9442  -31.0750 C   0  0  0  0  0  0  0  0  0  0  0  0
   -3.2497   12.8643  -31.8983 C   0  0  0  0  0  0  0  0  0  0  0  0
   -7.2535   10.1023  -29.0328 O   0  0  0  0  0  0  0  0  0  0  0  0
   -5.7979   12.0950  -27.8092 O   0  0  0  0  0  0  0  0  0  0  0  0
   -7.0034    9.0746  -31.9575 Br  0  0  0  0  0  0  0  0  0  0  0  0
   -4.8602   16.6202  -29.9033 H   0  0  0  0  0  0  0  0  0  0  0  0
   -3.9975   13.2388  -29.3217 H   0  0  0  0  0  0  0  0  0  0  0  0
   -4.8309   10.8790  -32.8134 H   0  0  0  0  0  0  0  0  0  0  0  0
   -5.3420   11.7492  -25.8237 H   0  0  0  0  0  0  0  0  0  0  0  0
   -3.9850   11.5561  -26.9767 H   0  0  0  0  0  0  0  0  0  0  0  0
   -5.2732   10.3256  -26.8951 H   0  0  0  0  0  0  0  0  0  0  0  0
   -1.7201   14.3928  -31.6611 H   0  0  0  0  0  0  0  0  0  0  0  0
   -2.0659   13.4752  -30.1994 H   0  0  0  0  0  0  0  0  0  0  0  0
   -3.7030   13.3515  -32.7768 H   0  0  0  0  0  0  0  0  0  0  0  0
   -2.5057   12.1621  -32.3085 H   0  0  0  0  0  0  0  0  0  0  0  0
   -7.3012   10.4499  -28.1292 H   0  0  0  0  0  0  0  0  0  0  0  0
  1  2  3  0  0  0  0
  2 10  1  0  0  0  0
  3  5  1  0  0  0  0
  3  6  2  0  0  0  0
  4  5  2  0  0  0  0
  4  8  1  0  0  0  0
  5 11  1  0  0  0  0
  6  7  1  0  0  0  0
  6 13  1  0  0  0  0
  7  8  2  0  0  0  0
  7 12  1  0  0  0  0
  8 14  1  0  0  0  0
  9 13  1  0  0  0  0
 10 11  1  0  0  0  0
  1 15  1  0  0  0  0
  3 16  1  0  0  0  0
  4 17  1  0  0  0  0
  9 18  1  0  0  0  0
  9 19  1  0  0  0  0
  9 20  1  0  0  0  0
 10 21  1  0  0  0  0
 10 22  1  0  0  0  0
 11 23  1  0  0  0  0
 11 24  1  0  0  0  0
 12 25  1  0  0  0  0
M  END
> <id>
EN300-1925695

> <smiles>
COC=1C=C(CCC#C)C=C(Br)C1O

> <IUPAC Name>
2-bromo-4-(but-3-yn-1-yl)-6-methoxyphenol

> <CAS>
2229475-19-6

> <URL>
https://www.enaminestore.com/catalog/EN300-1925695

> <ROCS_ShapeQuery>
_x1604L0AP1_x0771L0AP1

> <ROCS_TanimotoCombo>
0.913 

> <ROCS_ShapeTanimoto>
0.531 

> <ROCS_ColorTanimoto>
0.383 

> <ROCS_RefTversky>
0.478 

> <ROCS_RefColorTversky>
0.429 

> <ROCS_RefTverskyCombo>
0.907 

> <ROCS_FitTversky>
1.261 

> <ROCS_FitColorTversky>
0.779 

> <ROCS_FitTverskyCombo>
2.040 

> <ROCS_ColorScore>
-4.898

> <ROCS_Overlap>
811.539

> <ROCS_Rank>
160                 

$$$$
untitled-dbase-814_0
  -OEChem-06042309053D

 14 14  0     0  0  0  0  0  0999 V2000
   -5.8634   12.0910  -27.5871 C   0  0  0  0  0  0  0  0  0  0  0  0
   -4.3205   12.2394  -30.9649 C   0  0  0  0  0  0  0  0  0  0  0  0
   -4.6024   12.5139  -29.6267 C   0  0  0  0  0  0  0  0  0  0  0  0
   -5.0278   11.2422  -31.6363 C   0  0  0  0  0  0  0  0  0  0  0  0
   -5.5915   11.7910  -28.9599 C   0  0  0  0  0  0  0  0  0  0  0  0
   -6.2989   10.7937  -29.6313 C   0  0  0  0  0  0  0  0  0  0  0  0
   -6.0170   10.5193  -30.9695 C   0  0  0  0  0  0  0  0  0  0  0  0
   -6.0839   12.3344  -26.4740 N   0  0  0  0  0  0  0  0  0  0  0  0
   -7.2668   10.0886  -28.9737 O   0  0  0  0  0  0  0  0  0  0  0  0
   -6.9552    9.1726  -31.9188 Br  0  0  0  0  0  0  0  0  0  0  0  0
   -3.5504   12.8024  -31.4842 H   0  0  0  0  0  0  0  0  0  0  0  0
   -4.0419   13.2947  -29.1180 H   0  0  0  0  0  0  0  0  0  0  0  0
   -4.7945   11.0426  -32.6790 H   0  0  0  0  0  0  0  0  0  0  0  0
   -7.6643    9.4366  -29.5698 H   0  0  0  0  0  0  0  0  0  0  0  0
  1  5  1  0  0  0  0
  1  8  3  0  0  0  0
  2  3  1  0  0  0  0
  2  4  2  0  0  0  0
  3  5  2  0  0  0  0
  4  7  1  0  0  0  0
  5  6  1  0  0  0  0
  6  7  2  0  0  0  0
  6  9  1  0  0  0  0
  7 10  1  0  0  0  0
  2 11  1  0  0  0  0
  3 12  1  0  0  0  0
  4 13  1  0  0  0  0
  9 14  1  0  0  0  0
M  END
> <id>
EN300-7153398

> <smiles>
OC=1C(Br)=CC=CC1C#N

> <MDLNUMBER>
MFCD11042854

> <IUPAC Name>
3-bromo-2-hydroxybenzonitrile

> <CAS>
13073-28-4

> <Purity>
95

> <URL>
https://www.enaminestore.com/catalog/EN300-7153398

> <MP>
119-123

> <ROCS_ShapeQuery>
_x1604L0AP1_x0771L0AP1

> <ROCS_TanimotoCombo>
0.913 

> <ROCS_ShapeTanimoto>
0.423 

> <ROCS_ColorTanimoto>
0.491 

> <ROCS_RefTversky>
0.383 

> <ROCS_RefColorTversky>
0.484 

> <ROCS_RefTverskyCombo>
0.867 

> <ROCS_FitTversky>
1.324 

> <ROCS_FitColorTversky>
1.030 

> <ROCS_FitTverskyCombo>
2.354 

> <ROCS_ColorScore>
-5.497

> <ROCS_Overlap>
646.886

> <ROCS_Rank>
161                 

$$$$
untitled-dbase-103_0
  -OEChem-06042309053D

 21 22  0     0  0  0  0  0  0999 V2000
   -7.4148    9.8140  -33.2784 C   0  0  0  0  0  0  0  0  0  0  0  0
   -6.4884   10.5092  -34.0499 C   0  0  0  0  0  0  0  0  0  0  0  0
   -7.3671    9.8967  -31.8865 C   0  0  0  0  0  0  0  0  0  0  0  0
   -5.5107   11.2899  -33.4326 C   0  0  0  0  0  0  0  0  0  0  0  0
   -5.3492   11.5529  -29.2310 C   0  0  0  0  0  0  0  0  0  0  0  0
   -6.3898   10.6776  -31.2482 C   0  0  0  0  0  0  0  0  0  0  0  0
   -5.4477   11.3846  -32.0328 C   0  0  0  0  0  0  0  0  0  0  0  0
   -6.3269   10.7724  -29.8484 C   0  0  0  0  0  0  0  0  0  0  0  0
   -4.4704   12.1655  -31.3944 C   0  0  0  0  0  0  0  0  0  0  0  0
   -4.4227   12.2482  -30.0025 C   0  0  0  0  0  0  0  0  0  0  0  0
   -7.2459   10.0862  -29.0168 N   0  0  0  0  0  0  0  0  0  0  0  0
   -3.5525   12.8541  -32.1395 O   0  0  0  0  0  0  0  0  0  0  0  0
   -3.1110   13.2965  -29.1199 Br  0  0  0  0  0  0  0  0  0  0  0  0
   -8.1750    9.2061  -33.7604 H   0  0  0  0  0  0  0  0  0  0  0  0
   -6.5264   10.4442  -35.1333 H   0  0  0  0  0  0  0  0  0  0  0  0
   -8.1090    9.3386  -31.3198 H   0  0  0  0  0  0  0  0  0  0  0  0
   -4.8028   11.8194  -34.0668 H   0  0  0  0  0  0  0  0  0  0  0  0
   -5.3163   11.6146  -28.1449 H   0  0  0  0  0  0  0  0  0  0  0  0
   -7.1365   10.1441  -28.0276 H   0  0  0  0  0  0  0  0  0  0  0  0
   -7.9217    9.4866  -29.4384 H   0  0  0  0  0  0  0  0  0  0  0  0
   -2.9524   13.3400  -31.5557 H   0  0  0  0  0  0  0  0  0  0  0  0
  1  2  2  0  0  0  0
  1  3  1  0  0  0  0
  2  4  1  0  0  0  0
  3  6  2  0  0  0  0
  4  7  2  0  0  0  0
  5  8  2  0  0  0  0
  5 10  1  0  0  0  0
  6  7  1  0  0  0  0
  6  8  1  0  0  0  0
  7  9  1  0  0  0  0
  8 11  1  0  0  0  0
  9 10  2  0  0  0  0
  9 12  1  0  0  0  0
 10 13  1  0  0  0  0
  1 14  1  0  0  0  0
  2 15  1  0  0  0  0
  3 16  1  0  0  0  0
  4 17  1  0  0  0  0
  5 18  1  0  0  0  0
 11 19  1  0  0  0  0
 11 20  1  0  0  0  0
 12 21  1  0  0  0  0
M  END
> <id>
EN300-310653

> <smiles>
NC=1C=C(Br)C(O)=C2C=CC=CC12

> <MDLNUMBER>
MFCD30497530

> <IUPAC Name>
4-amino-2-bromonaphthalen-1-ol

> <CAS>
2060063-47-8

> <URL>
https://www.enaminestore.com/catalog/EN300-310653

> <ROCS_ShapeQuery>
_x1604L0AP1_x0771L0AP1

> <ROCS_TanimotoCombo>
0.913 

> <ROCS_ShapeTanimoto>
0.567 

> <ROCS_ColorTanimoto>
0.346 

> <ROCS_RefTversky>
0.498 

> <ROCS_RefColorTversky>
0.420 

> <ROCS_RefTverskyCombo>
0.917 

> <ROCS_FitTversky>
1.324 

> <ROCS_FitColorTversky>
0.665 

> <ROCS_FitTverskyCombo>
1.989 

> <ROCS_ColorScore>
-4.813

> <ROCS_Overlap>
844.252

> <ROCS_Rank>
162                 

$$$$
untitled-dbase-113_0
  -OEChem-06042309053D

 13 13  0     0  0  0  0  0  0999 V2000
   -4.3415   12.1403  -31.2146 C   0  0  0  0  0  0  0  0  0  0  0  0
   -5.0730   11.1208  -31.8239 C   0  0  0  0  0  0  0  0  0  0  0  0
   -6.2909   10.7659  -29.7678 C   0  0  0  0  0  0  0  0  0  0  0  0
   -5.5595   11.7853  -29.1584 C   0  0  0  0  0  0  0  0  0  0  0  0
   -4.5847   12.4726  -29.8818 C   0  0  0  0  0  0  0  0  0  0  0  0
   -6.0477   10.4336  -31.1005 C   0  0  0  0  0  0  0  0  0  0  0  0
   -7.2366   10.1119  -29.0353 O   0  0  0  0  0  0  0  0  0  0  0  0
   -5.8016   12.1010  -27.8773 F   0  0  0  0  0  0  0  0  0  0  0  0
   -3.6789   13.7328  -29.1368 Cl  0  0  0  0  0  0  0  0  0  0  0  0
   -7.0211    9.0540  -31.9612 Br  0  0  0  0  0  0  0  0  0  0  0  0
   -3.5854   12.6674  -31.7908 H   0  0  0  0  0  0  0  0  0  0  0  0
   -4.8694   10.8751  -32.8630 H   0  0  0  0  0  0  0  0  0  0  0  0
   -7.2696   10.4711  -28.1352 H   0  0  0  0  0  0  0  0  0  0  0  0
  1  2  1  0  0  0  0
  1  5  2  0  0  0  0
  2  6  2  0  0  0  0
  3  4  2  0  0  0  0
  3  6  1  0  0  0  0
  3  7  1  0  0  0  0
  4  5  1  0  0  0  0
  4  8  1  0  0  0  0
  5  9  1  0  0  0  0
  6 10  1  0  0  0  0
  1 11  1  0  0  0  0
  2 12  1  0  0  0  0
  7 13  1  0  0  0  0
M  END
> <id>
EN300-207641

> <smiles>
OC=1C(F)=C(Cl)C=CC1Br

> <MDLNUMBER>
MFCD19105360

> <IUPAC Name>
6-bromo-3-chloro-2-fluorophenol

> <CAS>
186590-40-9

> <URL>
https://www.enaminestore.com/catalog/EN300-207641

> <ROCS_ShapeQuery>
_x1604L0AP1_x0771L0AP1

> <ROCS_TanimotoCombo>
0.913 

> <ROCS_ShapeTanimoto>
0.462 

> <ROCS_ColorTanimoto>
0.451 

> <ROCS_RefTversky>
0.407 

> <ROCS_RefColorTversky>
0.431 

> <ROCS_RefTverskyCombo>
0.838 

> <ROCS_FitTversky>
1.419 

> <ROCS_FitColorTversky>
1.113 

> <ROCS_FitTverskyCombo>
2.532 

> <ROCS_ColorScore>
-4.879

> <ROCS_Overlap>
686.381

> <ROCS_Rank>
163                 

$$$$
untitled-dbase-1509_0
  -OEChem-06042309053D

 13 13  0     0  0  0  0  0  0999 V2000
   -4.5830   12.4694  -29.8548 C   0  0  0  0  0  0  0  0  0  0  0  0
   -5.0603   11.1272  -31.8062 C   0  0  0  0  0  0  0  0  0  0  0  0
   -6.2901   10.7625  -29.7588 C   0  0  0  0  0  0  0  0  0  0  0  0
   -5.5620   11.7789  -29.1404 C   0  0  0  0  0  0  0  0  0  0  0  0
   -4.3322   12.1436  -31.1878 C   0  0  0  0  0  0  0  0  0  0  0  0
   -6.0393   10.4367  -31.0917 C   0  0  0  0  0  0  0  0  0  0  0  0
   -7.2400   10.1061  -29.0343 O   0  0  0  0  0  0  0  0  0  0  0  0
   -5.7974   12.0971  -27.8599 F   0  0  0  0  0  0  0  0  0  0  0  0
   -3.1246   12.9968  -32.0684 Cl  0  0  0  0  0  0  0  0  0  0  0  0
   -7.0092    9.0616  -31.9641 Br  0  0  0  0  0  0  0  0  0  0  0  0
   -4.0237   13.2591  -29.3599 H   0  0  0  0  0  0  0  0  0  0  0  0
   -4.8620   10.8764  -32.8461 H   0  0  0  0  0  0  0  0  0  0  0  0
   -7.2778   10.4616  -28.1328 H   0  0  0  0  0  0  0  0  0  0  0  0
  1  4  1  0  0  0  0
  1  5  2  0  0  0  0
  2  5  1  0  0  0  0
  2  6  2  0  0  0  0
  3  4  2  0  0  0  0
  3  6  1  0  0  0  0
  3  7  1  0  0  0  0
  4  8  1  0  0  0  0
  5  9  1  0  0  0  0
  6 10  1  0  0  0  0
  1 11  1  0  0  0  0
  2 12  1  0  0  0  0
  7 13  1  0  0  0  0
M  END
> <id>
EN300-2163608

> <smiles>
OC=1C(F)=CC(Cl)=CC1Br

> <MDLNUMBER>
MFCD04115955

> <IUPAC Name>
2-bromo-4-chloro-6-fluorophenol

> <CAS>
886499-88-3

> <Purity>
95

> <URL>
https://www.enaminestore.com/catalog/EN300-2163608

> <ROCS_ShapeQuery>
_x1604L0AP1_x0771L0AP1

> <ROCS_TanimotoCombo>
0.913 

> <ROCS_ShapeTanimoto>
0.462 

> <ROCS_ColorTanimoto>
0.451 

> <ROCS_RefTversky>
0.406 

> <ROCS_RefColorTversky>
0.431 

> <ROCS_RefTverskyCombo>
0.837 

> <ROCS_FitTversky>
1.422 

> <ROCS_FitColorTversky>
1.113 

> <ROCS_FitTverskyCombo>
2.534 

> <ROCS_ColorScore>
-4.879

> <ROCS_Overlap>
685.919

> <ROCS_Rank>
164                 

$$$$
untitled-dbase-21_0
  -OEChem-06042309053D

 13 13  0     0  0  0  0  0  0999 V2000
   -4.5856   12.4728  -29.8576 C   0  0  0  0  0  0  0  0  0  0  0  0
   -5.0617   11.1281  -31.8074 C   0  0  0  0  0  0  0  0  0  0  0  0
   -6.2905   10.7637  -29.7594 C   0  0  0  0  0  0  0  0  0  0  0  0
   -4.3347   12.1460  -31.1902 C   0  0  0  0  0  0  0  0  0  0  0  0
   -5.5635   11.7816  -29.1422 C   0  0  0  0  0  0  0  0  0  0  0  0
   -6.0396   10.4369  -31.0921 C   0  0  0  0  0  0  0  0  0  0  0  0
   -7.2394   10.1064  -29.0342 O   0  0  0  0  0  0  0  0  0  0  0  0
   -3.3947   12.8089  -31.8768 F   0  0  0  0  0  0  0  0  0  0  0  0
   -5.8009   12.1028  -27.8629 F   0  0  0  0  0  0  0  0  0  0  0  0
   -7.0095    9.0623  -31.9648 Br  0  0  0  0  0  0  0  0  0  0  0  0
   -4.0189   13.2645  -29.3767 H   0  0  0  0  0  0  0  0  0  0  0  0
   -4.8523   10.8876  -32.8465 H   0  0  0  0  0  0  0  0  0  0  0  0
   -7.2774   10.4625  -28.1330 H   0  0  0  0  0  0  0  0  0  0  0  0
  1  4  2  0  0  0  0
  1  5  1  0  0  0  0
  2  4  1  0  0  0  0
  2  6  2  0  0  0  0
  3  5  2  0  0  0  0
  3  6  1  0  0  0  0
  3  7  1  0  0  0  0
  4  8  1  0  0  0  0
  5  9  1  0  0  0  0
  6 10  1  0  0  0  0
  1 11  1  0  0  0  0
  2 12  1  0  0  0  0
  7 13  1  0  0  0  0
M  END
> <id>
EN300-109212

> <smiles>
OC=1C(F)=CC(F)=CC1Br

> <MDLNUMBER>
MFCD00070752

> <IUPAC Name>
2-bromo-4,6-difluorophenol

> <CAS>
98130-56-4

> <Purity>
95

> <URL>
https://www.enaminestore.com/catalog/EN300-109212

> <ROCS_ShapeQuery>
_x1604L0AP1_x0771L0AP1

> <ROCS_TanimotoCombo>
0.913 

> <ROCS_ShapeTanimoto>
0.462 

> <ROCS_ColorTanimoto>
0.451 

> <ROCS_RefTversky>
0.408 

> <ROCS_RefColorTversky>
0.431 

> <ROCS_RefTverskyCombo>
0.839 

> <ROCS_FitTversky>
1.398 

> <ROCS_FitColorTversky>
1.113 

> <ROCS_FitTverskyCombo>
2.510 

> <ROCS_ColorScore>
-4.879

> <ROCS_Overlap>
689.553

> <ROCS_Rank>
165                 

$$$$
untitled-dbase-807_6
  -OEChem-06042309053D

 20 20  0     1  0  0  0  0  0999 V2000
   -6.9148   10.7563  -33.3962 C   0  0  0  0  0  0  0  0  0  0  0  0
   -5.1324   11.8370  -31.6170 C   0  0  0  0  0  0  0  0  0  0  0  0
   -4.2616   12.2706  -29.4055 C   0  0  0  0  0  0  0  0  0  0  0  0
   -6.1423   11.0491  -31.0649 C   0  0  0  0  0  0  0  0  0  0  0  0
   -6.2119   10.8719  -29.6831 C   0  0  0  0  0  0  0  0  0  0  0  0
   -4.1920   12.4478  -30.7873 C   0  0  0  0  0  0  0  0  0  0  0  0
   -5.2716   11.4827  -28.8534 C   0  0  0  0  0  0  0  0  0  0  0  0
   -7.1800    8.8726  -31.8176 C   0  0  0  0  0  0  0  0  0  0  0  0
   -7.1388   10.4043  -31.9714 C   0  0  2  0  0  0  0  0  0  0  0  0
   -6.7291   11.0410  -34.5059 N   0  0  0  0  0  0  0  0  0  0  0  0
   -7.2059   10.0980  -29.1582 O   0  0  0  0  0  0  0  0  0  0  0  0
   -2.9458   13.4198  -31.4691 Cl  0  0  0  0  0  0  0  0  0  0  0  0
   -5.3331   11.2655  -26.9709 Br  0  0  0  0  0  0  0  0  0  0  0  0
   -5.0818   11.9731  -32.6953 H   0  0  0  0  0  0  0  0  0  0  0  0
   -3.5261   12.7483  -28.7620 H   0  0  0  0  0  0  0  0  0  0  0  0
   -6.2022    8.4366  -32.0515 H   0  0  0  0  0  0  0  0  0  0  0  0
   -7.9193    8.4149  -32.4853 H   0  0  0  0  0  0  0  0  0  0  0  0
   -7.4430    8.5787  -30.7948 H   0  0  0  0  0  0  0  0  0  0  0  0
   -8.1558   10.7585  -31.7189 H   0  0  0  0  0  0  0  0  0  0  0  0
   -7.1281   10.0665  -28.1926 H   0  0  0  0  0  0  0  0  0  0  0  0
  1  9  1  0  0  0  0
  1 10  3  0  0  0  0
  2  4  2  0  0  0  0
  2  6  1  0  0  0  0
  3  6  2  0  0  0  0
  3  7  1  0  0  0  0
  4  5  1  0  0  0  0
  4  9  1  0  0  0  0
  5  7  2  0  0  0  0
  5 11  1  0  0  0  0
  6 12  1  0  0  0  0
  7 13  1  0  0  0  0
  8  9  1  0  0  0  0
  2 14  1  0  0  0  0
  3 15  1  0  0  0  0
  8 16  1  0  0  0  0
  8 17  1  0  0  0  0
  8 18  1  0  0  0  0
  9 19  1  0  0  0  0
 11 20  1  0  0  0  0
M  END
> <id>
EN300-1712572

> <smiles>
CC(C#N)C=1C=C(Cl)C=C(Br)C1O

> <MDLNUMBER>
MFCD28022460

> <IUPAC Name>
2-(3-bromo-5-chloro-2-hydroxyphenyl)propanenitrile

> <CAS>
1823856-31-0

> <URL>
https://www.enaminestore.com/catalog/EN300-1712572

> <ROCS_ShapeQuery>
_x1604L0AP1_x0771L0AP1

> <ROCS_TanimotoCombo>
0.913 

> <ROCS_ShapeTanimoto>
0.550 

> <ROCS_ColorTanimoto>
0.363 

> <ROCS_RefTversky>
0.480 

> <ROCS_RefColorTversky>
0.413 

> <ROCS_RefTverskyCombo>
0.893 

> <ROCS_FitTversky>
1.359 

> <ROCS_FitColorTversky>
0.750 

> <ROCS_FitTverskyCombo>
2.109 

> <ROCS_ColorScore>
-4.714

> <ROCS_Overlap>
813.291

> <ROCS_Rank>
166                 

$$$$
untitled-dbase-780_62
  -OEChem-06042309053D

 20 20  0     0  0  0  0  0  0999 V2000
   -4.5989   12.4859  -29.8508 C   0  0  0  0  0  0  0  0  0  0  0  0
   -4.3462   12.1685  -31.1854 C   0  0  0  0  0  0  0  0  0  0  0  0
   -5.5716   11.7839  -29.1390 C   0  0  0  0  0  0  0  0  0  0  0  0
   -5.0664   11.1491  -31.8082 C   0  0  0  0  0  0  0  0  0  0  0  0
   -6.2918   10.7645  -29.7618 C   0  0  0  0  0  0  0  0  0  0  0  0
   -6.0392   10.4471  -31.0964 C   0  0  0  0  0  0  0  0  0  0  0  0
   -4.7581   10.8480  -33.2397 C   0  0  0  0  0  0  0  0  0  0  0  0
   -5.9665   10.9032  -34.1867 C   0  0  0  0  0  0  0  0  0  0  0  0
   -7.2351   10.1008  -29.0347 O   0  0  0  0  0  0  0  0  0  0  0  0
   -6.7461   12.5468  -34.2274 S   0  0  0  0  0  0  0  0  0  0  0  0
   -7.0278    9.0542  -31.9353 Br  0  0  0  0  0  0  0  0  0  0  0  0
   -4.0385   13.2800  -29.3660 H   0  0  0  0  0  0  0  0  0  0  0  0
   -3.5861   12.7221  -31.7306 H   0  0  0  0  0  0  0  0  0  0  0  0
   -5.7631   12.0374  -28.0998 H   0  0  0  0  0  0  0  0  0  0  0  0
   -3.9625   11.5095  -33.6217 H   0  0  0  0  0  0  0  0  0  0  0  0
   -4.3283    9.8340  -33.2947 H   0  0  0  0  0  0  0  0  0  0  0  0
   -5.6447   10.6702  -35.2070 H   0  0  0  0  0  0  0  0  0  0  0  0
   -6.7251   10.1665  -33.9037 H   0  0  0  0  0  0  0  0  0  0  0  0
   -7.6604    9.4214  -29.5804 H   0  0  0  0  0  0  0  0  0  0  0  0
   -7.0508   12.5870  -32.9237 H   0  0  0  0  0  0  0  0  0  0  0  0
  1  2  2  0  0  0  0
  1  3  1  0  0  0  0
  2  4  1  0  0  0  0
  3  5  2  0  0  0  0
  4  6  2  0  0  0  0
  4  7  1  0  0  0  0
  5  6  1  0  0  0  0
  5  9  1  0  0  0  0
  6 11  1  0  0  0  0
  7  8  1  0  0  0  0
  8 10  1  0  0  0  0
  1 12  1  0  0  0  0
  2 13  1  0  0  0  0
  3 14  1  0  0  0  0
  7 15  1  0  0  0  0
  7 16  1  0  0  0  0
  8 17  1  0  0  0  0
  8 18  1  0  0  0  0
  9 19  1  0  0  0  0
 10 20  1  0  0  0  0
M  END
> <id>
EN300-1904620

> <smiles>
OC=1C=CC=C(CCS)C1Br

> <MDLNUMBER>
MFCD33499794

> <IUPAC Name>
2-bromo-3-(2-sulfanylethyl)phenol

> <CAS>
2229351-06-6

> <URL>
https://www.enaminestore.com/catalog/EN300-1904620

> <ROCS_ShapeQuery>
_x1604L0AP1_x0771L0AP1

> <ROCS_TanimotoCombo>
0.912 

> <ROCS_ShapeTanimoto>
0.461 

> <ROCS_ColorTanimoto>
0.451 

> <ROCS_RefTversky>
0.411 

> <ROCS_RefColorTversky>
0.432 

> <ROCS_RefTverskyCombo>
0.842 

> <ROCS_FitTversky>
1.363 

> <ROCS_FitColorTversky>
1.114 

> <ROCS_FitTverskyCombo>
2.477 

> <ROCS_ColorScore>
-4.883

> <ROCS_Overlap>
693.887

> <ROCS_Rank>
167                 

$$$$
untitled-dbase-924_830
  -OEChem-06042309053D

 30 31  0     0  0  0  0  0  0999 V2000
   -4.5869   12.4738  -29.8032 C   0  0  0  0  0  0  0  0  0  0  0  0
   -5.0490   11.1468  -31.7684 C   0  0  0  0  0  0  0  0  0  0  0  0
   -4.3264   12.1590  -31.1368 C   0  0  0  0  0  0  0  0  0  0  0  0
   -5.5700   11.7764  -29.1011 C   0  0  0  0  0  0  0  0  0  0  0  0
   -6.2926   10.7642  -29.7327 C   0  0  0  0  0  0  0  0  0  0  0  0
   -6.0321   10.4494  -31.0664 C   0  0  0  0  0  0  0  0  0  0  0  0
   -2.0965   13.4509  -31.1035 C   0  0  0  0  0  0  0  0  0  0  0  0
   -3.1374   14.3935  -31.6214 C   0  0  0  0  0  0  0  0  0  0  0  0
   -3.2769   12.9054  -31.8868 C   0  0  0  0  0  0  0  0  0  0  0  0
   -6.7973   13.0968  -27.5499 C   0  0  0  0  0  0  0  0  0  0  0  0
   -3.0246   12.4151  -33.2854 C   0  0  0  0  0  0  0  0  0  0  0  0
   -4.0914   11.6173  -35.1834 N   0  0  0  0  0  0  0  0  0  0  0  0
   -7.2499   10.0937  -29.0290 O   0  0  0  0  0  0  0  0  0  0  0  0
   -5.8135   12.0947  -27.7991 O   0  0  0  0  0  0  0  0  0  0  0  0
   -4.2254   12.5096  -34.0434 O   0  0  0  0  0  0  0  0  0  0  0  0
   -6.9942    9.0818  -31.9597 Br  0  0  0  0  0  0  0  0  0  0  0  0
   -4.0257   13.2628  -29.3081 H   0  0  0  0  0  0  0  0  0  0  0  0
   -4.8402   10.9083  -32.8091 H   0  0  0  0  0  0  0  0  0  0  0  0
   -1.1224   13.4662  -31.5785 H   0  0  0  0  0  0  0  0  0  0  0  0
   -2.0580   13.2827  -30.0333 H   0  0  0  0  0  0  0  0  0  0  0  0
   -3.7972   14.8591  -30.8982 H   0  0  0  0  0  0  0  0  0  0  0  0
   -2.8646   15.0427  -32.4454 H   0  0  0  0  0  0  0  0  0  0  0  0
   -6.8934   13.2543  -26.4729 H   0  0  0  0  0  0  0  0  0  0  0  0
   -7.7555   12.7803  -27.9697 H   0  0  0  0  0  0  0  0  0  0  0  0
   -6.4835   14.0290  -28.0256 H   0  0  0  0  0  0  0  0  0  0  0  0
   -2.6995   11.3665  -33.2829 H   0  0  0  0  0  0  0  0  0  0  0  0
   -2.2542   13.0190  -33.7822 H   0  0  0  0  0  0  0  0  0  0  0  0
   -4.2794   12.2645  -35.9476 H   0  0  0  0  0  0  0  0  0  0  0  0
   -4.9288   11.0479  -35.0720 H   0  0  0  0  0  0  0  0  0  0  0  0
   -7.2995   10.4369  -28.1237 H   0  0  0  0  0  0  0  0  0  0  0  0
  1  3  1  0  0  0  0
  1  4  2  0  0  0  0
  2  3  2  0  0  0  0
  2  6  1  0  0  0  0
  3  9  1  0  0  0  0
  4  5  1  0  0  0  0
  4 14  1  0  0  0  0
  5  6  2  0  0  0  0
  5 13  1  0  0  0  0
  6 16  1  0  0  0  0
  7  8  1  0  0  0  0
  7  9  1  0  0  0  0
  8  9  1  0  0  0  0
  9 11  1  0  0  0  0
 10 14  1  0  0  0  0
 11 15  1  0  0  0  0
 12 15  1  0  0  0  0
  1 17  1  0  0  0  0
  2 18  1  0  0  0  0
  7 19  1  0  0  0  0
  7 20  1  0  0  0  0
  8 21  1  0  0  0  0
  8 22  1  0  0  0  0
 10 23  1  0  0  0  0
 10 24  1  0  0  0  0
 10 25  1  0  0  0  0
 11 26  1  0  0  0  0
 11 27  1  0  0  0  0
 12 28  1  0  0  0  0
 12 29  1  0  0  0  0
 13 30  1  0  0  0  0
M  END
> <id>
EN300-1926999

> <smiles>
COC=1C=C(C=C(Br)C1O)C2(CON)CC2

> <IUPAC Name>
4-{1-[(aminooxy)methyl]cyclopropyl}-2-bromo-6-methoxyphenol

> <CAS>
2228625-82-7

> <URL>
https://www.enaminestore.com/catalog/EN300-1926999

> <ROCS_ShapeQuery>
_x1604L0AP1_x0771L0AP1

> <ROCS_TanimotoCombo>
0.912 

> <ROCS_ShapeTanimoto>
0.497 

> <ROCS_ColorTanimoto>
0.415 

> <ROCS_RefTversky>
0.476 

> <ROCS_RefColorTversky>
0.431 

> <ROCS_RefTverskyCombo>
0.907 

> <ROCS_FitTversky>
1.096 

> <ROCS_FitColorTversky>
0.918 

> <ROCS_FitTverskyCombo>
2.014 

> <ROCS_ColorScore>
-4.898

> <ROCS_Overlap>
810.703

> <ROCS_Rank>
168                 

$$$$
untitled-dbase-2267_0
  -OEChem-06042309053D

 19 19  0     0  0  0  0  0  0999 V2000
   -4.3435   12.1495  -31.2151 C   0  0  0  0  0  0  0  0  0  0  0  0
   -5.0743   11.1276  -31.8211 C   0  0  0  0  0  0  0  0  0  0  0  0
   -4.5842   12.4832  -29.8822 C   0  0  0  0  0  0  0  0  0  0  0  0
   -5.5558   11.7950  -29.1555 C   0  0  0  0  0  0  0  0  0  0  0  0
   -6.2866   10.7732  -29.7615 C   0  0  0  0  0  0  0  0  0  0  0  0
   -6.0459   10.4395  -31.0944 C   0  0  0  0  0  0  0  0  0  0  0  0
   -3.7862   13.5795  -29.2559 C   0  0  0  0  0  0  0  0  0  0  0  0
   -5.8150   12.1511  -27.7261 C   0  0  0  0  0  0  0  0  0  0  0  0
   -7.2348   10.1083  -29.0389 O   0  0  0  0  0  0  0  0  0  0  0  0
   -7.0186    9.0583  -31.9548 Br  0  0  0  0  0  0  0  0  0  0  0  0
   -3.5875   12.6779  -31.7897 H   0  0  0  0  0  0  0  0  0  0  0  0
   -4.8726   10.8811  -32.8605 H   0  0  0  0  0  0  0  0  0  0  0  0
   -4.2896   14.5431  -29.3957 H   0  0  0  0  0  0  0  0  0  0  0  0
   -3.6521   13.4076  -28.1809 H   0  0  0  0  0  0  0  0  0  0  0  0
   -2.7836   13.6413  -29.6969 H   0  0  0  0  0  0  0  0  0  0  0  0
   -6.5880   12.9247  -27.6638 H   0  0  0  0  0  0  0  0  0  0  0  0
   -6.1470   11.2758  -27.1558 H   0  0  0  0  0  0  0  0  0  0  0  0
   -4.9049   12.5238  -27.2415 H   0  0  0  0  0  0  0  0  0  0  0  0
   -7.6570    9.4307  -29.5883 H   0  0  0  0  0  0  0  0  0  0  0  0
  1  2  1  0  0  0  0
  1  3  2  0  0  0  0
  2  6  2  0  0  0  0
  3  4  1  0  0  0  0
  3  7  1  0  0  0  0
  4  5  2  0  0  0  0
  4  8  1  0  0  0  0
  5  6  1  0  0  0  0
  5  9  1  0  0  0  0
  6 10  1  0  0  0  0
  1 11  1  0  0  0  0
  2 12  1  0  0  0  0
  7 13  1  0  0  0  0
  7 14  1  0  0  0  0
  7 15  1  0  0  0  0
  8 16  1  0  0  0  0
  8 17  1  0  0  0  0
  8 18  1  0  0  0  0
  9 19  1  0  0  0  0
M  END
> <id>
EN300-3218350

> <smiles>
CC=1C=CC(Br)=C(O)C1C

> <MDLNUMBER>
MFCD22414708

> <IUPAC Name>
6-bromo-2,3-dimethylphenol

> <CAS>
951161-67-4

> <Purity>
95

> <URL>
https://www.enaminestore.com/catalog/EN300-3218350

> <ROCS_ShapeQuery>
_x1604L0AP1_x0771L0AP1

> <ROCS_TanimotoCombo>
0.911 

> <ROCS_ShapeTanimoto>
0.460 

> <ROCS_ColorTanimoto>
0.451 

> <ROCS_RefTversky>
0.406 

> <ROCS_RefColorTversky>
0.431 

> <ROCS_RefTverskyCombo>
0.837 

> <ROCS_FitTversky>
1.414 

> <ROCS_FitColorTversky>
1.113 

> <ROCS_FitTverskyCombo>
2.527 

> <ROCS_ColorScore>
-4.880

> <ROCS_Overlap>
685.054

> <ROCS_Rank>
169                 

$$$$
untitled-dbase-2154_243
  -OEChem-06042309053D

 21 21  0     1  0  0  0  0  0999 V2000
   -4.4489   12.0261  -31.7032 C   0  0  0  0  0  0  0  0  0  0  0  0
   -4.6361   12.5944  -30.4432 C   0  0  0  0  0  0  0  0  0  0  0  0
   -5.1681   10.8883  -32.0689 C   0  0  0  0  0  0  0  0  0  0  0  0
   -5.5424   12.0247  -29.5489 C   0  0  0  0  0  0  0  0  0  0  0  0
   -6.2616   10.8868  -29.9146 C   0  0  0  0  0  0  0  0  0  0  0  0
   -6.0744   10.3186  -31.1746 C   0  0  0  0  0  0  0  0  0  0  0  0
   -6.0667   11.6301  -27.1066 C   0  0  0  0  0  0  0  0  0  0  0  0
   -5.7266   12.6486  -28.2045 C   0  0  1  0  0  0  0  0  0  0  0  0
   -7.1434   10.3402  -29.0280 O   0  0  0  0  0  0  0  0  0  0  0  0
   -6.2030   12.2993  -25.8611 O   0  0  0  0  0  0  0  0  0  0  0  0
   -4.5298   13.3426  -27.8334 O   0  0  0  0  0  0  0  0  0  0  0  0
   -7.0332    8.7731  -31.7097 Br  0  0  0  0  0  0  0  0  0  0  0  0
   -3.7437   12.4699  -32.3997 H   0  0  0  0  0  0  0  0  0  0  0  0
   -4.0735   13.4823  -30.1673 H   0  0  0  0  0  0  0  0  0  0  0  0
   -5.0092   10.4598  -33.0554 H   0  0  0  0  0  0  0  0  0  0  0  0
   -6.9957   11.0937  -27.3293 H   0  0  0  0  0  0  0  0  0  0  0  0
   -5.2733   10.8806  -27.0101 H   0  0  0  0  0  0  0  0  0  0  0  0
   -6.5268   13.4071  -28.2438 H   0  0  0  0  0  0  0  0  0  0  0  0
   -7.5664    9.5600  -29.4176 H   0  0  0  0  0  0  0  0  0  0  0  0
   -6.4167   11.6211  -25.1997 H   0  0  0  0  0  0  0  0  0  0  0  0
   -4.7005   13.7258  -26.9613 H   0  0  0  0  0  0  0  0  0  0  0  0
  1  2  1  0  0  0  0
  1  3  2  0  0  0  0
  2  4  2  0  0  0  0
  3  6  1  0  0  0  0
  4  5  1  0  0  0  0
  4  8  1  0  0  0  0
  5  6  2  0  0  0  0
  5  9  1  0  0  0  0
  6 12  1  0  0  0  0
  7  8  1  0  0  0  0
  7 10  1  0  0  0  0
  8 11  1  0  0  0  0
  1 13  1  0  0  0  0
  2 14  1  0  0  0  0
  3 15  1  0  0  0  0
  7 16  1  0  0  0  0
  7 17  1  0  0  0  0
  8 18  1  0  0  0  0
  9 19  1  0  0  0  0
 10 20  1  0  0  0  0
 11 21  1  0  0  0  0
M  END
> <id>
EN300-1923445

> <smiles>
OCC(O)C=1C=CC=C(Br)C1O

> <MDLNUMBER>
MFCD32486626

> <IUPAC Name>
1-(3-bromo-2-hydroxyphenyl)ethane-1,2-diol

> <CAS>
2228764-28-9

> <URL>
https://www.enaminestore.com/catalog/EN300-1923445

> <ROCS_ShapeQuery>
_x1604L0AP1_x0771L0AP1

> <ROCS_TanimotoCombo>
0.911 

> <ROCS_ShapeTanimoto>
0.433 

> <ROCS_ColorTanimoto>
0.479 

> <ROCS_RefTversky>
0.403 

> <ROCS_RefColorTversky>
0.554 

> <ROCS_RefTverskyCombo>
0.956 

> <ROCS_FitTversky>
1.207 

> <ROCS_FitColorTversky>
0.779 

> <ROCS_FitTverskyCombo>
1.986 

> <ROCS_ColorScore>
-6.377

> <ROCS_Overlap>
681.710

> <ROCS_Rank>
170                 

$$$$
untitled-dbase-136_0
  -OEChem-06042309053D

 14 14  0     0  0  0  0  0  0999 V2000
   -5.8641   12.0885  -27.5839 C   0  0  0  0  0  0  0  0  0  0  0  0
   -4.5982   12.5093  -29.6216 C   0  0  0  0  0  0  0  0  0  0  0  0
   -5.0225   11.2384  -31.6320 C   0  0  0  0  0  0  0  0  0  0  0  0
   -5.5899   11.7885  -28.9565 C   0  0  0  0  0  0  0  0  0  0  0  0
   -6.2980   10.7925  -29.6291 C   0  0  0  0  0  0  0  0  0  0  0  0
   -4.3145   12.2343  -30.9593 C   0  0  0  0  0  0  0  0  0  0  0  0
   -6.0143   10.5174  -30.9668 C   0  0  0  0  0  0  0  0  0  0  0  0
   -6.0864   12.3317  -26.4712 N   0  0  0  0  0  0  0  0  0  0  0  0
   -7.2688   10.0899  -28.9736 O   0  0  0  0  0  0  0  0  0  0  0  0
   -2.9708   13.2115  -31.8608 Br  0  0  0  0  0  0  0  0  0  0  0  0
   -6.9545    9.1725  -31.9167 Br  0  0  0  0  0  0  0  0  0  0  0  0
   -4.0454   13.2865  -29.0973 H   0  0  0  0  0  0  0  0  0  0  0  0
   -4.8000   11.0260  -32.6753 H   0  0  0  0  0  0  0  0  0  0  0  0
   -7.6665    9.4385  -29.5703 H   0  0  0  0  0  0  0  0  0  0  0  0
  1  4  1  0  0  0  0
  1  8  3  0  0  0  0
  2  4  2  0  0  0  0
  2  6  1  0  0  0  0
  3  6  2  0  0  0  0
  3  7  1  0  0  0  0
  4  5  1  0  0  0  0
  5  7  2  0  0  0  0
  5  9  1  0  0  0  0
  6 10  1  0  0  0  0
  7 11  1  0  0  0  0
  2 12  1  0  0  0  0
  3 13  1  0  0  0  0
  9 14  1  0  0  0  0
M  END
> <id>
EN300-725117

> <smiles>
OC=1C(Br)=CC(Br)=CC1C#N

> <MDLNUMBER>
MFCD00662354

> <IUPAC Name>
3,5-dibromo-2-hydroxybenzonitrile

> <CAS>
40718-08-9

> <Purity>
95

> <URL>
https://www.enaminestore.com/catalog/EN300-725117

> <MP>
167-168

> <ROCS_ShapeQuery>
_x1604L0AP1_x0771L0AP1

> <ROCS_TanimotoCombo>
0.911 

> <ROCS_ShapeTanimoto>
0.461 

> <ROCS_ColorTanimoto>
0.451 

> <ROCS_RefTversky>
0.412 

> <ROCS_RefColorTversky>
0.482 

> <ROCS_RefTverskyCombo>
0.894 

> <ROCS_FitTversky>
1.342 

> <ROCS_FitColorTversky>
0.875 

> <ROCS_FitTverskyCombo>
2.217 

> <ROCS_ColorScore>
-5.498

> <ROCS_Overlap>
696.745

> <ROCS_Rank>
171                 

$$$$
untitled-dbase-827_28
  -OEChem-06042309053D

 18 18  0     0  0  0  0  0  0999 V2000
   -5.0413   11.2126  -31.7758 C   0  0  0  0  0  0  0  0  0  0  0  0
   -4.5344   12.4744  -29.7788 C   0  0  0  0  0  0  0  0  0  0  0  0
   -6.0285   10.5122  -31.0827 C   0  0  0  0  0  0  0  0  0  0  0  0
   -6.2687   10.7928  -29.7377 C   0  0  0  0  0  0  0  0  0  0  0  0
   -4.2942   12.1937  -31.1239 C   0  0  0  0  0  0  0  0  0  0  0  0
   -5.5217   11.7739  -29.0857 C   0  0  0  0  0  0  0  0  0  0  0  0
   -6.7944    9.4913  -31.7847 C   0  0  0  0  0  0  0  0  0  0  0  0
   -7.0520    9.6175  -33.2794 C   0  0  0  0  0  0  0  0  0  0  0  0
   -7.2677    8.5124  -31.1783 O   0  0  0  0  0  0  0  0  0  0  0  0
   -7.2365   10.0992  -29.0700 O   0  0  0  0  0  0  0  0  0  0  0  0
   -6.0765    9.0230  -34.0189 F   0  0  0  0  0  0  0  0  0  0  0  0
   -7.0792   10.9182  -33.6705 F   0  0  0  0  0  0  0  0  0  0  0  0
   -3.0761   13.0575  -31.9797 Cl  0  0  0  0  0  0  0  0  0  0  0  0
   -5.8181   12.1846  -27.2586 Br  0  0  0  0  0  0  0  0  0  0  0  0
   -4.8555   10.9918  -32.8249 H   0  0  0  0  0  0  0  0  0  0  0  0
   -3.9493   13.2401  -29.2739 H   0  0  0  0  0  0  0  0  0  0  0  0
   -8.0024    9.1420  -33.5370 H   0  0  0  0  0  0  0  0  0  0  0  0
   -7.6563    9.4590  -29.6642 H   0  0  0  0  0  0  0  0  0  0  0  0
  1  3  2  0  0  0  0
  1  5  1  0  0  0  0
  2  5  2  0  0  0  0
  2  6  1  0  0  0  0
  3  4  1  0  0  0  0
  3  7  1  0  0  0  0
  4  6  2  0  0  0  0
  4 10  1  0  0  0  0
  5 13  1  0  0  0  0
  6 14  1  0  0  0  0
  7  8  1  0  0  0  0
  7  9  2  0  0  0  0
  8 11  1  0  0  0  0
  8 12  1  0  0  0  0
  1 15  1  0  0  0  0
  2 16  1  0  0  0  0
  8 17  1  0  0  0  0
 10 18  1  0  0  0  0
M  END
> <id>
EN300-1942159

> <smiles>
OC=1C(Br)=CC(Cl)=CC1C(=O)C(F)F

> <IUPAC Name>
1-(3-bromo-5-chloro-2-hydroxyphenyl)-2,2-difluoroethan-1-one

> <CAS>
2229048-65-9

> <URL>
https://www.enaminestore.com/catalog/EN300-1942159

> <ROCS_ShapeQuery>
_x1604L0AP1_x0771L0AP1

> <ROCS_TanimotoCombo>
0.911 

> <ROCS_ShapeTanimoto>
0.608 

> <ROCS_ColorTanimoto>
0.303 

> <ROCS_RefTversky>
0.524 

> <ROCS_RefColorTversky>
0.342 

> <ROCS_RefTverskyCombo>
0.866 

> <ROCS_FitTversky>
1.359 

> <ROCS_FitColorTversky>
0.729 

> <ROCS_FitTverskyCombo>
2.088 

> <ROCS_ColorScore>
-3.888

> <ROCS_Overlap>
888.699

> <ROCS_Rank>
172                 

$$$$
untitled-dbase-511_193
  -OEChem-06042309053D

 24 24  0     0  0  0  0  0  0999 V2000
   -4.3393   12.0170  -31.3416 C   0  0  0  0  0  0  0  0  0  0  0  0
   -5.1243   11.0165  -31.9145 C   0  0  0  0  0  0  0  0  0  0  0  0
   -4.5265   12.3712  -30.0055 C   0  0  0  0  0  0  0  0  0  0  0  0
   -6.0967   10.3702  -31.1513 C   0  0  0  0  0  0  0  0  0  0  0  0
   -6.2840   10.7244  -29.8152 C   0  0  0  0  0  0  0  0  0  0  0  0
   -5.4989   11.7250  -29.2423 C   0  0  0  0  0  0  0  0  0  0  0  0
   -6.9123    9.3151  -31.7797 C   0  0  0  0  0  0  0  0  0  0  0  0
   -6.3655    7.8193  -33.8149 C   0  0  0  0  0  0  0  0  0  0  0  0
   -6.6759    8.9228  -35.8870 C   0  0  0  0  0  0  0  0  0  0  0  0
   -6.1884    8.0959  -32.3394 C   0  0  0  0  0  0  0  0  0  0  0  0
   -8.1375    9.4050  -31.8688 O   0  0  0  0  0  0  0  0  0  0  0  0
   -6.3477    6.7169  -34.3432 O   0  0  0  0  0  0  0  0  0  0  0  0
   -7.2383   10.0839  -29.0785 O   0  0  0  0  0  0  0  0  0  0  0  0
   -6.5224    9.0115  -34.4667 O   0  0  0  0  0  0  0  0  0  0  0  0
   -5.7193   12.2324  -27.4291 Br  0  0  0  0  0  0  0  0  0  0  0  0
   -3.5822   12.5209  -31.9354 H   0  0  0  0  0  0  0  0  0  0  0  0
   -4.9691   10.7496  -32.9570 H   0  0  0  0  0  0  0  0  0  0  0  0
   -3.9052   13.1527  -29.5758 H   0  0  0  0  0  0  0  0  0  0  0  0
   -6.7932    9.9256  -36.3049 H   0  0  0  0  0  0  0  0  0  0  0  0
   -7.5523    8.3136  -36.1223 H   0  0  0  0  0  0  0  0  0  0  0  0
   -5.7848    8.4552  -36.3123 H   0  0  0  0  0  0  0  0  0  0  0  0
   -5.1170    8.2398  -32.1578 H   0  0  0  0  0  0  0  0  0  0  0  0
   -6.5498    7.2062  -31.8115 H   0  0  0  0  0  0  0  0  0  0  0  0
   -7.2517   10.4346  -28.1752 H   0  0  0  0  0  0  0  0  0  0  0  0
  1  2  1  0  0  0  0
  1  3  2  0  0  0  0
  2  4  2  0  0  0  0
  3  6  1  0  0  0  0
  4  5  1  0  0  0  0
  4  7  1  0  0  0  0
  5  6  2  0  0  0  0
  5 13  1  0  0  0  0
  6 15  1  0  0  0  0
  7 10  1  0  0  0  0
  7 11  2  0  0  0  0
  8 10  1  0  0  0  0
  8 12  2  0  0  0  0
  8 14  1  0  0  0  0
  9 14  1  0  0  0  0
  1 16  1  0  0  0  0
  2 17  1  0  0  0  0
  3 18  1  0  0  0  0
  9 19  1  0  0  0  0
  9 20  1  0  0  0  0
  9 21  1  0  0  0  0
 10 22  1  0  0  0  0
 10 23  1  0  0  0  0
 13 24  1  0  0  0  0
M  END
> <id>
EN300-1923111

> <smiles>
COC(=O)CC(=O)C=1C=CC=C(Br)C1O

> <IUPAC Name>
methyl 3-(3-bromo-2-hydroxyphenyl)-3-oxopropanoate

> <CAS>
1781516-00-4

> <URL>
https://www.enaminestore.com/catalog/EN300-1923111

> <ROCS_ShapeQuery>
_x1604L0AP1_x0771L0AP1

> <ROCS_TanimotoCombo>
0.911 

> <ROCS_ShapeTanimoto>
0.567 

> <ROCS_ColorTanimoto>
0.344 

> <ROCS_RefTversky>
0.510 

> <ROCS_RefColorTversky>
0.417 

> <ROCS_RefTverskyCombo>
0.928 

> <ROCS_FitTversky>
1.243 

> <ROCS_FitColorTversky>
0.661 

> <ROCS_FitTverskyCombo>
1.904 

> <ROCS_ColorScore>
-4.785

> <ROCS_Overlap>
867.670

> <ROCS_Rank>
173                 

$$$$
untitled-dbase-212_62
  -OEChem-06042309053D

 30 30  0     0  0  0  0  0  0999 V2000
   -5.1265   11.2983  -31.8045 C   0  0  0  0  0  0  0  0  0  0  0  0
   -4.4691   12.4042  -29.7596 C   0  0  0  0  0  0  0  0  0  0  0  0
   -6.1080   10.5934  -31.1078 C   0  0  0  0  0  0  0  0  0  0  0  0
   -4.3071   12.2037  -31.1304 C   0  0  0  0  0  0  0  0  0  0  0  0
   -6.2701   10.7939  -29.7370 C   0  0  0  0  0  0  0  0  0  0  0  0
   -5.4506   11.6993  -29.0628 C   0  0  0  0  0  0  0  0  0  0  0  0
   -6.9615    9.6427  -31.8436 C   0  0  0  0  0  0  0  0  0  0  0  0
   -3.2575   12.9570  -31.8755 C   0  0  0  0  0  0  0  0  0  0  0  0
   -6.6212    9.6495  -35.7324 C   0  0  0  0  0  0  0  0  0  0  0  0
   -6.0839    7.8157  -34.1180 C   0  0  0  0  0  0  0  0  0  0  0  0
   -7.2688    9.9102  -33.3171 C   0  0  0  0  0  0  0  0  0  0  0  0
   -6.2260    9.3304  -34.2889 C   0  0  0  0  0  0  0  0  0  0  0  0
   -7.4064    8.6390  -31.2859 O   0  0  0  0  0  0  0  0  0  0  0  0
   -7.2345   10.0982  -29.0666 O   0  0  0  0  0  0  0  0  0  0  0  0
   -5.6408   12.0006  -27.2006 Br  0  0  0  0  0  0  0  0  0  0  0  0
   -4.9979   11.1447  -32.8738 H   0  0  0  0  0  0  0  0  0  0  0  0
   -3.8255   13.1121  -29.2420 H   0  0  0  0  0  0  0  0  0  0  0  0
   -3.6634   13.9021  -32.2564 H   0  0  0  0  0  0  0  0  0  0  0  0
   -2.3965   13.1820  -31.2328 H   0  0  0  0  0  0  0  0  0  0  0  0
   -2.8763   12.3747  -32.7246 H   0  0  0  0  0  0  0  0  0  0  0  0
   -7.5940    9.2093  -35.9758 H   0  0  0  0  0  0  0  0  0  0  0  0
   -5.8846    9.2583  -36.4425 H   0  0  0  0  0  0  0  0  0  0  0  0
   -6.6983   10.7313  -35.8848 H   0  0  0  0  0  0  0  0  0  0  0  0
   -7.0330    7.3014  -34.2968 H   0  0  0  0  0  0  0  0  0  0  0  0
   -5.7630    7.5704  -33.0999 H   0  0  0  0  0  0  0  0  0  0  0  0
   -5.3424    7.4055  -34.8121 H   0  0  0  0  0  0  0  0  0  0  0  0
   -8.2547    9.4952  -33.5575 H   0  0  0  0  0  0  0  0  0  0  0  0
   -7.3108   10.9997  -33.4388 H   0  0  0  0  0  0  0  0  0  0  0  0
   -5.2494    9.7924  -34.0987 H   0  0  0  0  0  0  0  0  0  0  0  0
   -7.7108    9.5168  -29.6784 H   0  0  0  0  0  0  0  0  0  0  0  0
  1  3  2  0  0  0  0
  1  4  1  0  0  0  0
  2  4  2  0  0  0  0
  2  6  1  0  0  0  0
  3  5  1  0  0  0  0
  3  7  1  0  0  0  0
  4  8  1  0  0  0  0
  5  6  2  0  0  0  0
  5 14  1  0  0  0  0
  6 15  1  0  0  0  0
  7 11  1  0  0  0  0
  7 13  2  0  0  0  0
  9 12  1  0  0  0  0
 10 12  1  0  0  0  0
 11 12  1  0  0  0  0
  1 16  1  0  0  0  0
  2 17  1  0  0  0  0
  8 18  1  0  0  0  0
  8 19  1  0  0  0  0
  8 20  1  0  0  0  0
  9 21  1  0  0  0  0
  9 22  1  0  0  0  0
  9 23  1  0  0  0  0
 10 24  1  0  0  0  0
 10 25  1  0  0  0  0
 10 26  1  0  0  0  0
 11 27  1  0  0  0  0
 11 28  1  0  0  0  0
 12 29  1  0  0  0  0
 14 30  1  0  0  0  0
M  END
> <id>
EN300-1276643

> <smiles>
CC(C)CC(=O)C=1C=C(C)C=C(Br)C1O

> <MDLNUMBER>
MFCD16742955

> <IUPAC Name>
1-(3-bromo-2-hydroxy-5-methylphenyl)-3-methylbutan-1-one

> <CAS>
1250786-98-1

> <URL>
https://www.enaminestore.com/catalog/EN300-1276643

> <ROCS_ShapeQuery>
_x1604L0AP1_x0771L0AP1

> <ROCS_TanimotoCombo>
0.911 

> <ROCS_ShapeTanimoto>
0.629 

> <ROCS_ColorTanimoto>
0.281 

> <ROCS_RefTversky>
0.542 

> <ROCS_RefColorTversky>
0.341 

> <ROCS_RefTverskyCombo>
0.882 

> <ROCS_FitTversky>
1.346 

> <ROCS_FitColorTversky>
0.618 

> <ROCS_FitTverskyCombo>
1.964 

> <ROCS_ColorScore>
-3.888

> <ROCS_Overlap>
920.593

> <ROCS_Rank>
174                 

$$$$
untitled-dbase-1354_41
  -OEChem-06042309053D

 25 25  0     1  0  0  0  0  0999 V2000
   -4.6093   12.4974  -29.8424 C   0  0  0  0  0  0  0  0  0  0  0  0
   -4.3492   12.1788  -31.1752 C   0  0  0  0  0  0  0  0  0  0  0  0
   -5.5820   11.7923  -29.1337 C   0  0  0  0  0  0  0  0  0  0  0  0
   -5.0619   11.1551  -31.7994 C   0  0  0  0  0  0  0  0  0  0  0  0
   -6.2947   10.7685  -29.7579 C   0  0  0  0  0  0  0  0  0  0  0  0
   -6.0347   10.4499  -31.0908 C   0  0  0  0  0  0  0  0  0  0  0  0
   -3.2608   11.1015  -33.5556 C   0  0  0  0  0  0  0  0  0  0  0  0
   -5.6342   11.6375  -34.2193 C   0  0  0  0  0  0  0  0  0  0  0  0
   -4.7457   10.8529  -33.2290 C   0  0  2  0  0  0  0  0  0  0  0  0
   -6.6941    9.8642  -35.2722 N   0  0  0  0  0  0  0  0  0  0  0  0
   -7.2383   10.1018  -29.0339 O   0  0  0  0  0  0  0  0  0  0  0  0
   -6.8861   10.9737  -34.3525 O   0  0  0  0  0  0  0  0  0  0  0  0
   -7.0131    9.0511  -31.9317 Br  0  0  0  0  0  0  0  0  0  0  0  0
   -4.0547   13.2949  -29.3565 H   0  0  0  0  0  0  0  0  0  0  0  0
   -3.5891   12.7350  -31.7179 H   0  0  0  0  0  0  0  0  0  0  0  0
   -5.7794   12.0468  -28.0958 H   0  0  0  0  0  0  0  0  0  0  0  0
   -2.9842   12.1484  -33.3893 H   0  0  0  0  0  0  0  0  0  0  0  0
   -2.6024   10.4823  -32.9368 H   0  0  0  0  0  0  0  0  0  0  0  0
   -3.0543   10.8641  -34.6052 H   0  0  0  0  0  0  0  0  0  0  0  0
   -5.1753   11.6822  -35.2129 H   0  0  0  0  0  0  0  0  0  0  0  0
   -5.8166   12.6620  -33.8786 H   0  0  0  0  0  0  0  0  0  0  0  0
   -4.9318    9.7796  -33.4247 H   0  0  0  0  0  0  0  0  0  0  0  0
   -7.4197   10.0656  -35.9585 H   0  0  0  0  0  0  0  0  0  0  0  0
   -7.0377    9.0915  -34.7040 H   0  0  0  0  0  0  0  0  0  0  0  0
   -7.6580    9.4195  -29.5803 H   0  0  0  0  0  0  0  0  0  0  0  0
  1  2  1  0  0  0  0
  1  3  2  0  0  0  0
  2  4  2  0  0  0  0
  3  5  1  0  0  0  0
  4  6  1  0  0  0  0
  4  9  1  0  0  0  0
  5  6  2  0  0  0  0
  5 11  1  0  0  0  0
  6 13  1  0  0  0  0
  7  9  1  0  0  0  0
  8  9  1  0  0  0  0
  8 12  1  0  0  0  0
 10 12  1  0  0  0  0
  1 14  1  0  0  0  0
  2 15  1  0  0  0  0
  3 16  1  0  0  0  0
  7 17  1  0  0  0  0
  7 18  1  0  0  0  0
  7 19  1  0  0  0  0
  8 20  1  0  0  0  0
  8 21  1  0  0  0  0
  9 22  1  0  0  0  0
 10 23  1  0  0  0  0
 10 24  1  0  0  0  0
 11 25  1  0  0  0  0
M  END
> <id>
EN300-1904530

> <smiles>
CC(CON)C=1C=CC=C(O)C1Br

> <IUPAC Name>
3-[1-(aminooxy)propan-2-yl]-2-bromophenol

> <CAS>
2229357-85-9

> <URL>
https://www.enaminestore.com/catalog/EN300-1904530

> <ROCS_ShapeQuery>
_x1604L0AP1_x0771L0AP1

> <ROCS_TanimotoCombo>
0.911 

> <ROCS_ShapeTanimoto>
0.498 

> <ROCS_ColorTanimoto>
0.413 

> <ROCS_RefTversky>
0.450 

> <ROCS_RefColorTversky>
0.430 

> <ROCS_RefTverskyCombo>
0.879 

> <ROCS_FitTversky>
1.274 

> <ROCS_FitColorTversky>
0.915 

> <ROCS_FitTverskyCombo>
2.189 

> <ROCS_ColorScore>
-4.883

> <ROCS_Overlap>
761.791

> <ROCS_Rank>
175                 

$$$$
untitled-dbase-230_0
  -OEChem-06042309053D

 19 19  0     0  0  0  0  0  0999 V2000
   -4.5827   12.4777  -29.8611 C   0  0  0  0  0  0  0  0  0  0  0  0
   -5.0640   11.1291  -31.8070 C   0  0  0  0  0  0  0  0  0  0  0  0
   -4.3347   12.1476  -31.1934 C   0  0  0  0  0  0  0  0  0  0  0  0
   -5.5599   11.7892  -29.1423 C   0  0  0  0  0  0  0  0  0  0  0  0
   -6.2893   10.7708  -29.7558 C   0  0  0  0  0  0  0  0  0  0  0  0
   -6.0413   10.4407  -31.0882 C   0  0  0  0  0  0  0  0  0  0  0  0
   -3.2885   12.8824  -31.9615 C   0  0  0  0  0  0  0  0  0  0  0  0
   -5.8089   12.1579  -27.7166 C   0  0  0  0  0  0  0  0  0  0  0  0
   -7.2408   10.1051  -29.0388 O   0  0  0  0  0  0  0  0  0  0  0  0
   -7.0111    9.0627  -31.9572 Br  0  0  0  0  0  0  0  0  0  0  0  0
   -4.0126   13.2708  -29.3828 H   0  0  0  0  0  0  0  0  0  0  0  0
   -4.8647   10.8788  -32.8467 H   0  0  0  0  0  0  0  0  0  0  0  0
   -2.3171   12.3838  -31.8570 H   0  0  0  0  0  0  0  0  0  0  0  0
   -3.5402   12.9340  -33.0287 H   0  0  0  0  0  0  0  0  0  0  0  0
   -3.1883   13.9172  -31.6085 H   0  0  0  0  0  0  0  0  0  0  0  0
   -6.5766   12.9379  -27.6544 H   0  0  0  0  0  0  0  0  0  0  0  0
   -6.1443   11.2901  -27.1355 H   0  0  0  0  0  0  0  0  0  0  0  0
   -4.8941   12.5286  -27.2376 H   0  0  0  0  0  0  0  0  0  0  0  0
   -7.6622    9.4298  -29.5918 H   0  0  0  0  0  0  0  0  0  0  0  0
  1  3  2  0  0  0  0
  1  4  1  0  0  0  0
  2  3  1  0  0  0  0
  2  6  2  0  0  0  0
  3  7  1  0  0  0  0
  4  5  2  0  0  0  0
  4  8  1  0  0  0  0
  5  6  1  0  0  0  0
  5  9  1  0  0  0  0
  6 10  1  0  0  0  0
  1 11  1  0  0  0  0
  2 12  1  0  0  0  0
  7 13  1  0  0  0  0
  7 14  1  0  0  0  0
  7 15  1  0  0  0  0
  8 16  1  0  0  0  0
  8 17  1  0  0  0  0
  8 18  1  0  0  0  0
  9 19  1  0  0  0  0
M  END
> <id>
EN300-192641

> <smiles>
CC=1C=C(C)C(O)=C(Br)C1

> <MDLNUMBER>
MFCD08443978

> <IUPAC Name>
2-bromo-4,6-dimethylphenol

> <CAS>
15191-36-3

> <Purity>
95

> <URL>
https://www.enaminestore.com/catalog/EN300-192641

> <MP>
6-7

> <ROCS_ShapeQuery>
_x1604L0AP1_x0771L0AP1

> <ROCS_TanimotoCombo>
0.911 

> <ROCS_ShapeTanimoto>
0.460 

> <ROCS_ColorTanimoto>
0.451 

> <ROCS_RefTversky>
0.405 

> <ROCS_RefColorTversky>
0.431 

> <ROCS_RefTverskyCombo>
0.836 

> <ROCS_FitTversky>
1.415 

> <ROCS_FitColorTversky>
1.113 

> <ROCS_FitTverskyCombo>
2.528 

> <ROCS_ColorScore>
-4.881

> <ROCS_Overlap>
684.020

> <ROCS_Rank>
176                 

$$$$
untitled-dbase-138_0
  -OEChem-06042309053D

 19 20  0     0  0  0  0  0  0999 V2000
   -7.4517    9.8263  -33.2399 C   0  0  0  0  0  0  0  0  0  0  0  0
   -7.3935    9.9049  -31.8482 C   0  0  0  0  0  0  0  0  0  0  0  0
   -4.4674   12.1387  -31.3705 C   0  0  0  0  0  0  0  0  0  0  0  0
   -6.5226   10.5126  -34.0161 C   0  0  0  0  0  0  0  0  0  0  0  0
   -4.4093   12.2173  -29.9787 C   0  0  0  0  0  0  0  0  0  0  0  0
   -6.4029   10.6728  -31.2147 C   0  0  0  0  0  0  0  0  0  0  0  0
   -5.4581   11.3708  -32.0040 C   0  0  0  0  0  0  0  0  0  0  0  0
   -6.3294   10.7634  -29.8151 C   0  0  0  0  0  0  0  0  0  0  0  0
   -5.5317   11.2803  -33.4035 C   0  0  0  0  0  0  0  0  0  0  0  0
   -5.3384   11.5309  -29.2026 C   0  0  0  0  0  0  0  0  0  0  0  0
   -7.2356   10.0944  -29.0385 O   0  0  0  0  0  0  0  0  0  0  0  0
   -4.6476   11.9320  -34.1744 F   0  0  0  0  0  0  0  0  0  0  0  0
   -5.2214   11.6687  -27.3144 Br  0  0  0  0  0  0  0  0  0  0  0  0
   -8.2226    9.2288  -33.7178 H   0  0  0  0  0  0  0  0  0  0  0  0
   -8.1359    9.3552  -31.2738 H   0  0  0  0  0  0  0  0  0  0  0  0
   -3.7300   12.6842  -31.9555 H   0  0  0  0  0  0  0  0  0  0  0  0
   -6.5680   10.4510  -35.0992 H   0  0  0  0  0  0  0  0  0  0  0  0
   -3.6303   12.8202  -29.5192 H   0  0  0  0  0  0  0  0  0  0  0  0
   -7.0510   10.2578  -28.1023 H   0  0  0  0  0  0  0  0  0  0  0  0
  1  2  1  0  0  0  0
  1  4  2  0  0  0  0
  2  6  2  0  0  0  0
  3  5  2  0  0  0  0
  3  7  1  0  0  0  0
  4  9  1  0  0  0  0
  5 10  1  0  0  0  0
  6  7  1  0  0  0  0
  6  8  1  0  0  0  0
  7  9  2  0  0  0  0
  8 10  2  0  0  0  0
  8 11  1  0  0  0  0
  9 12  1  0  0  0  0
 10 13  1  0  0  0  0
  1 14  1  0  0  0  0
  2 15  1  0  0  0  0
  3 16  1  0  0  0  0
  4 17  1  0  0  0  0
  5 18  1  0  0  0  0
 11 19  1  0  0  0  0
M  END
> <id>
EN300-1144196

> <smiles>
OC=1C(Br)=CC=C2C(F)=CC=CC12

> <MDLNUMBER>
MFCD21875084

> <IUPAC Name>
2-bromo-5-fluoronaphthalen-1-ol

> <CAS>
1368920-66-4

> <URL>
https://www.enaminestore.com/catalog/EN300-1144196

> <ROCS_ShapeQuery>
_x1604L0AP1_x0771L0AP1

> <ROCS_TanimotoCombo>
0.911 

> <ROCS_ShapeTanimoto>
0.504 

> <ROCS_ColorTanimoto>
0.407 

> <ROCS_RefTversky>
0.461 

> <ROCS_RefColorTversky>
0.425 

> <ROCS_RefTverskyCombo>
0.887 

> <ROCS_FitTversky>
1.223 

> <ROCS_FitColorTversky>
0.905 

> <ROCS_FitTverskyCombo>
2.128 

> <ROCS_ColorScore>
-4.834

> <ROCS_Overlap>
782.618

> <ROCS_Rank>
177                 

$$$$
untitled-dbase-1592_391
  -OEChem-06042309053D

 26 26  0     1  0  0  0  0  0999 V2000
   -6.6356   11.4992  -33.6283 C   0  0  0  0  0  0  0  0  0  0  0  0
   -6.5928   11.7826  -32.2632 C   0  0  0  0  0  0  0  0  0  0  0  0
   -6.6230   10.1749  -34.0664 C   0  0  0  0  0  0  0  0  0  0  0  0
   -6.5374   10.7418  -31.3362 C   0  0  0  0  0  0  0  0  0  0  0  0
   -6.5676    9.1341  -33.1394 C   0  0  0  0  0  0  0  0  0  0  0  0
   -6.5247    9.4176  -31.7743 C   0  0  0  0  0  0  0  0  0  0  0  0
   -4.2808   12.2551  -30.1042 C   0  0  0  0  0  0  0  0  0  0  0  0
   -3.6345   14.5274  -30.0310 C   0  0  0  0  0  0  0  0  0  0  0  0
   -5.0539   11.1955  -29.3563 C   0  0  0  0  0  0  0  0  0  0  0  0
   -6.4922   11.1024  -29.8692 C   0  0  2  0  0  0  0  0  0  0  0  0
   -3.6740   12.0465  -31.1467 O   0  0  0  0  0  0  0  0  0  0  0  0
   -6.5562    7.8526  -33.6048 O   0  0  0  0  0  0  0  0  0  0  0  0
   -7.2033   10.1014  -29.1399 O   0  0  0  0  0  0  0  0  0  0  0  0
   -4.3497   13.4410  -29.4343 O   0  0  0  0  0  0  0  0  0  0  0  0
   -6.4496    7.9894  -30.5190 Br  0  0  0  0  0  0  0  0  0  0  0  0
   -6.6783   12.3096  -34.3501 H   0  0  0  0  0  0  0  0  0  0  0  0
   -6.6029   12.8182  -31.9330 H   0  0  0  0  0  0  0  0  0  0  0  0
   -6.6560    9.9621  -35.1316 H   0  0  0  0  0  0  0  0  0  0  0  0
   -3.7549   15.4241  -29.4183 H   0  0  0  0  0  0  0  0  0  0  0  0
   -4.0177   14.7074  -31.0386 H   0  0  0  0  0  0  0  0  0  0  0  0
   -2.5749   14.2670  -30.0874 H   0  0  0  0  0  0  0  0  0  0  0  0
   -5.0221   11.4573  -28.2914 H   0  0  0  0  0  0  0  0  0  0  0  0
   -4.5186   10.2439  -29.4647 H   0  0  0  0  0  0  0  0  0  0  0  0
   -7.0229   12.0478  -29.7041 H   0  0  0  0  0  0  0  0  0  0  0  0
   -6.5164    7.2285  -32.8637 H   0  0  0  0  0  0  0  0  0  0  0  0
   -7.1572   10.3586  -28.2069 H   0  0  0  0  0  0  0  0  0  0  0  0
  1  2  1  0  0  0  0
  1  3  2  0  0  0  0
  2  4  2  0  0  0  0
  3  5  1  0  0  0  0
  4  6  1  0  0  0  0
  4 10  1  0  0  0  0
  5  6  2  0  0  0  0
  5 12  1  0  0  0  0
  6 15  1  0  0  0  0
  7  9  1  0  0  0  0
  7 11  2  0  0  0  0
  7 14  1  0  0  0  0
  8 14  1  0  0  0  0
  9 10  1  0  0  0  0
 10 13  1  6  0  0  0
  1 16  1  0  0  0  0
  2 17  1  0  0  0  0
  3 18  1  0  0  0  0
  8 19  1  0  0  0  0
  8 20  1  0  0  0  0
  8 21  1  0  0  0  0
  9 22  1  0  0  0  0
  9 23  1  0  0  0  0
 10 24  1  0  0  0  0
 12 25  1  0  0  0  0
 13 26  1  0  0  0  0
M  END
> <id>
EN300-1904577

> <smiles>
COC(=O)C[C@H](O)C=1C=CC=C(O)C1Br

> <IUPAC Name>
methyl (3S)-3-(2-bromo-3-hydroxyphenyl)-3-hydroxypropanoate

> <CAS>
2227708-99-6

> <URL>
https://www.enaminestore.com/catalog/EN300-1904577

> <ROCS_ShapeQuery>
_x1604L0AP1_x0771L0AP1

> <ROCS_TanimotoCombo>
0.911 

> <ROCS_ShapeTanimoto>
0.635 

> <ROCS_ColorTanimoto>
0.275 

> <ROCS_RefTversky>
0.546 

> <ROCS_RefColorTversky>
0.352 

> <ROCS_RefTverskyCombo>
0.899 

> <ROCS_FitTversky>
1.344 

> <ROCS_FitColorTversky>
0.558 

> <ROCS_FitTverskyCombo>
1.902 

> <ROCS_ColorScore>
-4.039

> <ROCS_Overlap>
928.387

> <ROCS_Rank>
178                 

$$$$
untitled-dbase-1256_391
  -OEChem-06042309053D

 26 26  0     1  0  0  0  0  0999 V2000
   -6.6356   11.4992  -33.6283 C   0  0  0  0  0  0  0  0  0  0  0  0
   -6.5928   11.7826  -32.2632 C   0  0  0  0  0  0  0  0  0  0  0  0
   -6.6230   10.1749  -34.0664 C   0  0  0  0  0  0  0  0  0  0  0  0
   -6.5374   10.7418  -31.3362 C   0  0  0  0  0  0  0  0  0  0  0  0
   -6.5676    9.1341  -33.1394 C   0  0  0  0  0  0  0  0  0  0  0  0
   -6.5247    9.4176  -31.7743 C   0  0  0  0  0  0  0  0  0  0  0  0
   -4.2808   12.2551  -30.1042 C   0  0  0  0  0  0  0  0  0  0  0  0
   -3.6345   14.5274  -30.0310 C   0  0  0  0  0  0  0  0  0  0  0  0
   -5.0539   11.1955  -29.3563 C   0  0  0  0  0  0  0  0  0  0  0  0
   -6.4922   11.1024  -29.8692 C   0  0  2  0  0  0  0  0  0  0  0  0
   -3.6740   12.0465  -31.1467 O   0  0  0  0  0  0  0  0  0  0  0  0
   -6.5562    7.8526  -33.6048 O   0  0  0  0  0  0  0  0  0  0  0  0
   -7.2033   10.1014  -29.1399 O   0  0  0  0  0  0  0  0  0  0  0  0
   -4.3497   13.4410  -29.4343 O   0  0  0  0  0  0  0  0  0  0  0  0
   -6.4496    7.9894  -30.5190 Br  0  0  0  0  0  0  0  0  0  0  0  0
   -6.6783   12.3096  -34.3501 H   0  0  0  0  0  0  0  0  0  0  0  0
   -6.6029   12.8182  -31.9330 H   0  0  0  0  0  0  0  0  0  0  0  0
   -6.6560    9.9621  -35.1316 H   0  0  0  0  0  0  0  0  0  0  0  0
   -3.7549   15.4241  -29.4183 H   0  0  0  0  0  0  0  0  0  0  0  0
   -4.0177   14.7074  -31.0386 H   0  0  0  0  0  0  0  0  0  0  0  0
   -2.5749   14.2670  -30.0874 H   0  0  0  0  0  0  0  0  0  0  0  0
   -5.0221   11.4573  -28.2914 H   0  0  0  0  0  0  0  0  0  0  0  0
   -4.5186   10.2439  -29.4647 H   0  0  0  0  0  0  0  0  0  0  0  0
   -7.0229   12.0478  -29.7041 H   0  0  0  0  0  0  0  0  0  0  0  0
   -6.5164    7.2285  -32.8637 H   0  0  0  0  0  0  0  0  0  0  0  0
   -7.1572   10.3586  -28.2069 H   0  0  0  0  0  0  0  0  0  0  0  0
  1  2  1  0  0  0  0
  1  3  2  0  0  0  0
  2  4  2  0  0  0  0
  3  5  1  0  0  0  0
  4  6  1  0  0  0  0
  4 10  1  0  0  0  0
  5  6  2  0  0  0  0
  5 12  1  0  0  0  0
  6 15  1  0  0  0  0
  7  9  1  0  0  0  0
  7 11  2  0  0  0  0
  7 14  1  0  0  0  0
  8 14  1  0  0  0  0
  9 10  1  0  0  0  0
 10 13  1  0  0  0  0
  1 16  1  0  0  0  0
  2 17  1  0  0  0  0
  3 18  1  0  0  0  0
  8 19  1  0  0  0  0
  8 20  1  0  0  0  0
  8 21  1  0  0  0  0
  9 22  1  0  0  0  0
  9 23  1  0  0  0  0
 10 24  1  0  0  0  0
 12 25  1  0  0  0  0
 13 26  1  0  0  0  0
M  END
> <id>
EN300-1904580

> <smiles>
COC(=O)CC(O)C=1C=CC=C(O)C1Br

> <IUPAC Name>
methyl 3-(2-bromo-3-hydroxyphenyl)-3-hydroxypropanoate

> <CAS>
2228507-67-1

> <URL>
https://www.enaminestore.com/catalog/EN300-1904580

> <ROCS_ShapeQuery>
_x1604L0AP1_x0771L0AP1

> <ROCS_TanimotoCombo>
0.911 

> <ROCS_ShapeTanimoto>
0.635 

> <ROCS_ColorTanimoto>
0.275 

> <ROCS_RefTversky>
0.546 

> <ROCS_RefColorTversky>
0.352 

> <ROCS_RefTverskyCombo>
0.899 

> <ROCS_FitTversky>
1.344 

> <ROCS_FitColorTversky>
0.558 

> <ROCS_FitTverskyCombo>
1.902 

> <ROCS_ColorScore>
-4.039

> <ROCS_Overlap>
928.387

> <ROCS_Rank>
179                 

$$$$
untitled-dbase-201_62
  -OEChem-06042309053D

 27 27  0     0  0  0  0  0  0999 V2000
   -5.1189   11.2927  -31.7999 C   0  0  0  0  0  0  0  0  0  0  0  0
   -4.4679   12.4029  -29.7552 C   0  0  0  0  0  0  0  0  0  0  0  0
   -6.1034   10.5903  -31.1051 C   0  0  0  0  0  0  0  0  0  0  0  0
   -6.2703   10.7941  -29.7354 C   0  0  0  0  0  0  0  0  0  0  0  0
   -4.3010   12.1990  -31.1249 C   0  0  0  0  0  0  0  0  0  0  0  0
   -5.4526   11.7005  -29.0604 C   0  0  0  0  0  0  0  0  0  0  0  0
   -6.9542    9.6367  -31.8404 C   0  0  0  0  0  0  0  0  0  0  0  0
   -6.5985    9.6279  -35.7278 C   0  0  0  0  0  0  0  0  0  0  0  0
   -6.0678    7.8004  -34.1039 C   0  0  0  0  0  0  0  0  0  0  0  0
   -7.2556    9.8983  -33.3162 C   0  0  0  0  0  0  0  0  0  0  0  0
   -6.2091    9.3145  -34.2815 C   0  0  0  0  0  0  0  0  0  0  0  0
   -7.4014    8.6353  -31.2804 O   0  0  0  0  0  0  0  0  0  0  0  0
   -7.2364   10.0993  -29.0664 O   0  0  0  0  0  0  0  0  0  0  0  0
   -3.0862   13.0653  -31.9830 Cl  0  0  0  0  0  0  0  0  0  0  0  0
   -5.6481   12.0056  -27.1993 Br  0  0  0  0  0  0  0  0  0  0  0  0
   -4.9903   11.1319  -32.8682 H   0  0  0  0  0  0  0  0  0  0  0  0
   -3.8279   13.1105  -29.2324 H   0  0  0  0  0  0  0  0  0  0  0  0
   -7.5703    9.1868  -35.9733 H   0  0  0  0  0  0  0  0  0  0  0  0
   -5.8591    9.2337  -36.4334 H   0  0  0  0  0  0  0  0  0  0  0  0
   -6.6748   10.7090  -35.8849 H   0  0  0  0  0  0  0  0  0  0  0  0
   -7.0163    7.2856  -34.2845 H   0  0  0  0  0  0  0  0  0  0  0  0
   -5.7509    7.5592  -33.0836 H   0  0  0  0  0  0  0  0  0  0  0  0
   -5.3236    7.3874  -34.7935 H   0  0  0  0  0  0  0  0  0  0  0  0
   -8.2405    9.4825  -33.5588 H   0  0  0  0  0  0  0  0  0  0  0  0
   -7.2969   10.9873  -33.4424 H   0  0  0  0  0  0  0  0  0  0  0  0
   -5.2331    9.7772  -34.0893 H   0  0  0  0  0  0  0  0  0  0  0  0
   -7.7100    9.5159  -29.6783 H   0  0  0  0  0  0  0  0  0  0  0  0
  1  3  2  0  0  0  0
  1  5  1  0  0  0  0
  2  5  2  0  0  0  0
  2  6  1  0  0  0  0
  3  4  1  0  0  0  0
  3  7  1  0  0  0  0
  4  6  2  0  0  0  0
  4 13  1  0  0  0  0
  5 14  1  0  0  0  0
  6 15  1  0  0  0  0
  7 10  1  0  0  0  0
  7 12  2  0  0  0  0
  8 11  1  0  0  0  0
  9 11  1  0  0  0  0
 10 11  1  0  0  0  0
  1 16  1  0  0  0  0
  2 17  1  0  0  0  0
  8 18  1  0  0  0  0
  8 19  1  0  0  0  0
  8 20  1  0  0  0  0
  9 21  1  0  0  0  0
  9 22  1  0  0  0  0
  9 23  1  0  0  0  0
 10 24  1  0  0  0  0
 10 25  1  0  0  0  0
 11 26  1  0  0  0  0
 13 27  1  0  0  0  0
M  END
> <id>
EN300-1276713

> <smiles>
CC(C)CC(=O)C=1C=C(Cl)C=C(Br)C1O

> <MDLNUMBER>
MFCD16742961

> <IUPAC Name>
1-(3-bromo-5-chloro-2-hydroxyphenyl)-3-methylbutan-1-one

> <CAS>
1247670-84-3

> <URL>
https://www.enaminestore.com/catalog/EN300-1276713

> <ROCS_ShapeQuery>
_x1604L0AP1_x0771L0AP1

> <ROCS_TanimotoCombo>
0.911 

> <ROCS_ShapeTanimoto>
0.629 

> <ROCS_ColorTanimoto>
0.281 

> <ROCS_RefTversky>
0.540 

> <ROCS_RefColorTversky>
0.341 

> <ROCS_RefTverskyCombo>
0.881 

> <ROCS_FitTversky>
1.354 

> <ROCS_FitColorTversky>
0.618 

> <ROCS_FitTverskyCombo>
1.972 

> <ROCS_ColorScore>
-3.888

> <ROCS_Overlap>
917.861

> <ROCS_Rank>
180                 

$$$$
untitled-dbase-750_1
  -OEChem-06042309053D

 16 16  0     0  0  0  0  0  0999 V2000
   -4.6110   12.4941  -29.8590 C   0  0  0  0  0  0  0  0  0  0  0  0
   -5.5800   11.7925  -29.1419 C   0  0  0  0  0  0  0  0  0  0  0  0
   -5.0830   11.1510  -31.8110 C   0  0  0  0  0  0  0  0  0  0  0  0
   -4.3625   12.1734  -31.1936 C   0  0  0  0  0  0  0  0  0  0  0  0
   -6.3005   10.7701  -29.7592 C   0  0  0  0  0  0  0  0  0  0  0  0
   -6.0520   10.4493  -31.0938 C   0  0  0  0  0  0  0  0  0  0  0  0
   -3.3261   12.9241  -31.9592 C   0  0  0  0  0  0  0  0  0  0  0  0
   -7.2394   10.1026  -29.0304 O   0  0  0  0  0  0  0  0  0  0  0  0
   -1.6935   12.4120  -31.4756 Cl  0  0  0  0  0  0  0  0  0  0  0  0
   -7.0108    9.0652  -31.9642 Br  0  0  0  0  0  0  0  0  0  0  0  0
   -4.0549   13.2890  -29.3688 H   0  0  0  0  0  0  0  0  0  0  0  0
   -5.7681   12.0480  -28.1024 H   0  0  0  0  0  0  0  0  0  0  0  0
   -4.8829   10.9081  -32.8524 H   0  0  0  0  0  0  0  0  0  0  0  0
   -3.4056   14.0062  -31.7899 H   0  0  0  0  0  0  0  0  0  0  0  0
   -3.4262   12.7595  -33.0404 H   0  0  0  0  0  0  0  0  0  0  0  0
   -7.6637    9.4218  -29.5754 H   0  0  0  0  0  0  0  0  0  0  0  0
  1  2  1  0  0  0  0
  1  4  2  0  0  0  0
  2  5  2  0  0  0  0
  3  4  1  0  0  0  0
  3  6  2  0  0  0  0
  4  7  1  0  0  0  0
  5  6  1  0  0  0  0
  5  8  1  0  0  0  0
  6 10  1  0  0  0  0
  7  9  1  0  0  0  0
  1 11  1  0  0  0  0
  2 12  1  0  0  0  0
  3 13  1  0  0  0  0
  7 14  1  0  0  0  0
  7 15  1  0  0  0  0
  8 16  1  0  0  0  0
M  END
> <id>
EN300-1893115

> <smiles>
OC=1C=CC(CCl)=CC1Br

> <MDLNUMBER>
MFCD18391438

> <IUPAC Name>
2-bromo-4-(chloromethyl)phenol

> <CAS>
1261815-29-5

> <URL>
https://www.enaminestore.com/catalog/EN300-1893115

> <ROCS_ShapeQuery>
_x1604L0AP1_x0771L0AP1

> <ROCS_TanimotoCombo>
0.911 

> <ROCS_ShapeTanimoto>
0.460 

> <ROCS_ColorTanimoto>
0.451 

> <ROCS_RefTversky>
0.403 

> <ROCS_RefColorTversky>
0.431 

> <ROCS_RefTverskyCombo>
0.834 

> <ROCS_FitTversky>
1.438 

> <ROCS_FitColorTversky>
1.112 

> <ROCS_FitTverskyCombo>
2.550 

> <ROCS_ColorScore>
-4.878

> <ROCS_Overlap>
680.857

> <ROCS_Rank>
181                 

$$$$
untitled-dbase-2122_0
  -OEChem-06042309053D

 19 19  0     0  0  0  0  0  0999 V2000
   -4.3456   12.1721  -31.1879 C   0  0  0  0  0  0  0  0  0  0  0  0
   -5.5723   11.7870  -29.1425 C   0  0  0  0  0  0  0  0  0  0  0  0
   -4.5991   12.4892  -29.8535 C   0  0  0  0  0  0  0  0  0  0  0  0
   -5.0653   11.1528  -31.8115 C   0  0  0  0  0  0  0  0  0  0  0  0
   -6.2919   10.7677  -29.7660 C   0  0  0  0  0  0  0  0  0  0  0  0
   -6.0384   10.4506  -31.1005 C   0  0  0  0  0  0  0  0  0  0  0  0
   -3.8299   13.5801  -29.1881 C   0  0  0  0  0  0  0  0  0  0  0  0
   -4.7559   10.8524  -33.2430 C   0  0  0  0  0  0  0  0  0  0  0  0
   -7.2355   10.1035  -29.0397 O   0  0  0  0  0  0  0  0  0  0  0  0
   -7.0251    9.0573  -31.9412 Br  0  0  0  0  0  0  0  0  0  0  0  0
   -3.5884   12.7227  -31.7415 H   0  0  0  0  0  0  0  0  0  0  0  0
   -5.7714   12.0335  -28.1024 H   0  0  0  0  0  0  0  0  0  0  0  0
   -4.3430   14.5412  -29.3147 H   0  0  0  0  0  0  0  0  0  0  0  0
   -3.7128   13.3870  -28.1139 H   0  0  0  0  0  0  0  0  0  0  0  0
   -2.8189   13.6674  -29.6071 H   0  0  0  0  0  0  0  0  0  0  0  0
   -3.9680   10.0939  -33.3086 H   0  0  0  0  0  0  0  0  0  0  0  0
   -5.6437   10.4827  -33.7696 H   0  0  0  0  0  0  0  0  0  0  0  0
   -4.4213   11.7528  -33.7719 H   0  0  0  0  0  0  0  0  0  0  0  0
   -7.6603    9.4242  -29.5859 H   0  0  0  0  0  0  0  0  0  0  0  0
  1  3  2  0  0  0  0
  1  4  1  0  0  0  0
  2  3  1  0  0  0  0
  2  5  2  0  0  0  0
  3  7  1  0  0  0  0
  4  6  2  0  0  0  0
  4  8  1  0  0  0  0
  5  6  1  0  0  0  0
  5  9  1  0  0  0  0
  6 10  1  0  0  0  0
  1 11  1  0  0  0  0
  2 12  1  0  0  0  0
  7 13  1  0  0  0  0
  7 14  1  0  0  0  0
  7 15  1  0  0  0  0
  8 16  1  0  0  0  0
  8 17  1  0  0  0  0
  8 18  1  0  0  0  0
  9 19  1  0  0  0  0
M  END
> <id>
EN300-190926

> <smiles>
CC=1C=C(C)C(Br)=C(O)C1

> <MDLNUMBER>
MFCD22058629

> <IUPAC Name>
2-bromo-3,5-dimethylphenol

> <CAS>
125237-08-3

> <Purity>
95

> <URL>
https://www.enaminestore.com/catalog/EN300-190926

> <MP>
51-54

> <ROCS_ShapeQuery>
_x1604L0AP1_x0771L0AP1

> <ROCS_TanimotoCombo>
0.910 

> <ROCS_ShapeTanimoto>
0.459 

> <ROCS_ColorTanimoto>
0.451 

> <ROCS_RefTversky>
0.405 

> <ROCS_RefColorTversky>
0.432 

> <ROCS_RefTverskyCombo>
0.836 

> <ROCS_FitTversky>
1.416 

> <ROCS_FitColorTversky>
1.114 

> <ROCS_FitTverskyCombo>
2.529 

> <ROCS_ColorScore>
-4.883

> <ROCS_Overlap>
683.003

> <ROCS_Rank>
182                 

$$$$
untitled-dbase-43_0
  -OEChem-06042309053D

 16 16  0     0  0  0  0  0  0999 V2000
   -4.5821   12.4788  -29.8587 C   0  0  0  0  0  0  0  0  0  0  0  0
   -5.0636   11.1312  -31.8052 C   0  0  0  0  0  0  0  0  0  0  0  0
   -5.5586   11.7895  -29.1398 C   0  0  0  0  0  0  0  0  0  0  0  0
   -6.2877   10.7710  -29.7537 C   0  0  0  0  0  0  0  0  0  0  0  0
   -4.3346   12.1498  -31.1914 C   0  0  0  0  0  0  0  0  0  0  0  0
   -6.0402   10.4418  -31.0864 C   0  0  0  0  0  0  0  0  0  0  0  0
   -5.8076   12.1578  -27.7142 C   0  0  0  0  0  0  0  0  0  0  0  0
   -7.2398   10.1056  -29.0373 O   0  0  0  0  0  0  0  0  0  0  0  0
   -3.3968   12.8118  -31.8817 F   0  0  0  0  0  0  0  0  0  0  0  0
   -7.0093    9.0643  -31.9564 Br  0  0  0  0  0  0  0  0  0  0  0  0
   -4.0086   13.2739  -29.3897 H   0  0  0  0  0  0  0  0  0  0  0  0
   -4.8566   10.8890  -32.8444 H   0  0  0  0  0  0  0  0  0  0  0  0
   -6.5760   12.9372  -27.6517 H   0  0  0  0  0  0  0  0  0  0  0  0
   -6.1423   11.2897  -27.1330 H   0  0  0  0  0  0  0  0  0  0  0  0
   -4.8931   12.5293  -27.2352 H   0  0  0  0  0  0  0  0  0  0  0  0
   -7.6609    9.4303  -29.5905 H   0  0  0  0  0  0  0  0  0  0  0  0
  1  3  2  0  0  0  0
  1  5  1  0  0  0  0
  2  5  2  0  0  0  0
  2  6  1  0  0  0  0
  3  4  1  0  0  0  0
  3  7  1  0  0  0  0
  4  6  2  0  0  0  0
  4  8  1  0  0  0  0
  5  9  1  0  0  0  0
  6 10  1  0  0  0  0
  1 11  1  0  0  0  0
  2 12  1  0  0  0  0
  7 13  1  0  0  0  0
  7 14  1  0  0  0  0
  7 15  1  0  0  0  0
  8 16  1  0  0  0  0
M  END
> <id>
EN300-93412

> <smiles>
CC=1C=C(F)C=C(Br)C1O

> <MDLNUMBER>
MFCD22414711

> <IUPAC Name>
2-bromo-4-fluoro-6-methylphenol

> <CAS>
1572185-50-2

> <Purity>
95

> <URL>
https://www.enaminestore.com/catalog/EN300-93412

> <ROCS_ShapeQuery>
_x1604L0AP1_x0771L0AP1

> <ROCS_TanimotoCombo>
0.910 

> <ROCS_ShapeTanimoto>
0.459 

> <ROCS_ColorTanimoto>
0.451 

> <ROCS_RefTversky>
0.406 

> <ROCS_RefColorTversky>
0.431 

> <ROCS_RefTverskyCombo>
0.837 

> <ROCS_FitTversky>
1.404 

> <ROCS_FitColorTversky>
1.113 

> <ROCS_FitTverskyCombo>
2.517 

> <ROCS_ColorScore>
-4.881

> <ROCS_Overlap>
685.177

> <ROCS_Rank>
183                 

$$$$
untitled-dbase-68_0
  -OEChem-06042309053D

 16 16  0     0  0  0  0  0  0999 V2000
   -4.5790   12.4750  -29.8592 C   0  0  0  0  0  0  0  0  0  0  0  0
   -5.0633   11.1289  -31.8061 C   0  0  0  0  0  0  0  0  0  0  0  0
   -5.5562   11.7868  -29.1402 C   0  0  0  0  0  0  0  0  0  0  0  0
   -6.2870   10.7696  -29.7541 C   0  0  0  0  0  0  0  0  0  0  0  0
   -4.3326   12.1461  -31.1922 C   0  0  0  0  0  0  0  0  0  0  0  0
   -6.0406   10.4406  -31.0871 C   0  0  0  0  0  0  0  0  0  0  0  0
   -5.8040   12.1550  -27.7142 C   0  0  0  0  0  0  0  0  0  0  0  0
   -7.2399   10.1055  -29.0374 O   0  0  0  0  0  0  0  0  0  0  0  0
   -3.1267   12.9958  -32.0790 Cl  0  0  0  0  0  0  0  0  0  0  0  0
   -7.0130    9.0644  -31.9562 Br  0  0  0  0  0  0  0  0  0  0  0  0
   -4.0109   13.2675  -29.3766 H   0  0  0  0  0  0  0  0  0  0  0  0
   -4.8684   10.8757  -32.8459 H   0  0  0  0  0  0  0  0  0  0  0  0
   -6.5712   12.9354  -27.6512 H   0  0  0  0  0  0  0  0  0  0  0  0
   -6.1396   11.2870  -27.1333 H   0  0  0  0  0  0  0  0  0  0  0  0
   -4.8887   12.5248  -27.2356 H   0  0  0  0  0  0  0  0  0  0  0  0
   -7.6623    9.4310  -29.5905 H   0  0  0  0  0  0  0  0  0  0  0  0
  1  3  2  0  0  0  0
  1  5  1  0  0  0  0
  2  5  2  0  0  0  0
  2  6  1  0  0  0  0
  3  4  1  0  0  0  0
  3  7  1  0  0  0  0
  4  6  2  0  0  0  0
  4  8  1  0  0  0  0
  5  9  1  0  0  0  0
  6 10  1  0  0  0  0
  1 11  1  0  0  0  0
  2 12  1  0  0  0  0
  7 13  1  0  0  0  0
  7 14  1  0  0  0  0
  7 15  1  0  0  0  0
  8 16  1  0  0  0  0
M  END
> <id>
EN300-245419

> <smiles>
CC=1C=C(Cl)C=C(Br)C1O

> <MDLNUMBER>
MFCD00029750

> <IUPAC Name>
2-bromo-4-chloro-6-methylphenol

> <CAS>
54852-68-5

> <Purity>
95

> <URL>
https://www.enaminestore.com/catalog/EN300-245419

> <MP>
51-52

> <ROCS_ShapeQuery>
_x1604L0AP1_x0771L0AP1

> <ROCS_TanimotoCombo>
0.910 

> <ROCS_ShapeTanimoto>
0.459 

> <ROCS_ColorTanimoto>
0.451 

> <ROCS_RefTversky>
0.404 

> <ROCS_RefColorTversky>
0.431 

> <ROCS_RefTverskyCombo>
0.835 

> <ROCS_FitTversky>
1.428 

> <ROCS_FitColorTversky>
1.113 

> <ROCS_FitTverskyCombo>
2.541 

> <ROCS_ColorScore>
-4.881

> <ROCS_Overlap>
681.504

> <ROCS_Rank>
184                 

$$$$
untitled-dbase-893_134
  -OEChem-06042309053D

 20 20  0     0  0  0  0  0  0999 V2000
   -4.9111   11.7261  -31.5618 C   0  0  0  0  0  0  0  0  0  0  0  0
   -4.4338   12.4798  -29.3165 C   0  0  0  0  0  0  0  0  0  0  0  0
   -5.9292   10.9087  -31.0710 C   0  0  0  0  0  0  0  0  0  0  0  0
   -6.1997   10.8769  -29.7030 C   0  0  0  0  0  0  0  0  0  0  0  0
   -4.1633   12.5116  -30.6845 C   0  0  0  0  0  0  0  0  0  0  0  0
   -5.4520   11.6625  -28.8257 C   0  0  0  0  0  0  0  0  0  0  0  0
   -7.2194    8.9177  -31.6223 C   0  0  0  0  0  0  0  0  0  0  0  0
   -6.6935   10.0991  -32.0110 C   0  0  0  0  0  0  0  0  0  0  0  0
   -6.9295   10.4867  -33.4359 C   0  0  0  0  0  0  0  0  0  0  0  0
   -7.0067   11.6273  -33.8661 O   0  0  0  0  0  0  0  0  0  0  0  0
   -7.1978   10.0745  -29.2279 O   0  0  0  0  0  0  0  0  0  0  0  0
   -7.0347    9.3815  -34.2113 O   0  0  0  0  0  0  0  0  0  0  0  0
   -2.9070   13.5202  -31.2902 Cl  0  0  0  0  0  0  0  0  0  0  0  0
   -5.7883   11.6477  -26.9596 Br  0  0  0  0  0  0  0  0  0  0  0  0
   -4.6980   11.7534  -32.6287 H   0  0  0  0  0  0  0  0  0  0  0  0
   -3.8478   13.0940  -28.6356 H   0  0  0  0  0  0  0  0  0  0  0  0
   -7.7920    8.2795  -32.2879 H   0  0  0  0  0  0  0  0  0  0  0  0
   -7.0855    8.5527  -30.6079 H   0  0  0  0  0  0  0  0  0  0  0  0
   -7.2632   10.1615  -28.2653 H   0  0  0  0  0  0  0  0  0  0  0  0
   -7.1797    9.6076  -35.1548 H   0  0  0  0  0  0  0  0  0  0  0  0
  1  3  2  0  0  0  0
  1  5  1  0  0  0  0
  2  5  2  0  0  0  0
  2  6  1  0  0  0  0
  3  4  1  0  0  0  0
  3  8  1  0  0  0  0
  4  6  2  0  0  0  0
  4 11  1  0  0  0  0
  5 13  1  0  0  0  0
  6 14  1  0  0  0  0
  7  8  2  0  0  0  0
  8  9  1  0  0  0  0
  9 10  2  0  0  0  0
  9 12  1  0  0  0  0
  1 15  1  0  0  0  0
  2 16  1  0  0  0  0
  7 17  1  0  0  0  0
  7 18  1  0  0  0  0
 11 19  1  0  0  0  0
 12 20  1  0  0  0  0
M  END
> <id>
EN300-1922892

> <smiles>
OC(=O)C(=C)C=1C=C(Cl)C=C(Br)C1O

> <IUPAC Name>
2-(3-bromo-5-chloro-2-hydroxyphenyl)prop-2-enoic acid

> <CAS>
2228468-59-3

> <URL>
https://www.enaminestore.com/catalog/EN300-1922892

> <ROCS_ShapeQuery>
_x1604L0AP1_x0771L0AP1

> <ROCS_TanimotoCombo>
0.910 

> <ROCS_ShapeTanimoto>
0.609 

> <ROCS_ColorTanimoto>
0.302 

> <ROCS_RefTversky>
0.524 

> <ROCS_RefColorTversky>
0.397 

> <ROCS_RefTverskyCombo>
0.920 

> <ROCS_FitTversky>
1.363 

> <ROCS_FitColorTversky>
0.557 

> <ROCS_FitTverskyCombo>
1.920 

> <ROCS_ColorScore>
-4.566

> <ROCS_Overlap>
889.065

> <ROCS_Rank>
185                 

$$$$
untitled-dbase-145_62
  -OEChem-06042309053D

 27 27  0     0  0  0  0  0  0999 V2000
   -5.1333   11.2996  -31.8101 C   0  0  0  0  0  0  0  0  0  0  0  0
   -4.4779   12.4116  -29.7679 C   0  0  0  0  0  0  0  0  0  0  0  0
   -6.1113   10.5922  -31.1111 C   0  0  0  0  0  0  0  0  0  0  0  0
   -6.2726   10.7945  -29.7404 C   0  0  0  0  0  0  0  0  0  0  0  0
   -4.3165   12.2093  -31.1385 C   0  0  0  0  0  0  0  0  0  0  0  0
   -5.4559   11.7043  -29.0688 C   0  0  0  0  0  0  0  0  0  0  0  0
   -6.9626    9.6381  -31.8450 C   0  0  0  0  0  0  0  0  0  0  0  0
   -6.6274    9.6432  -35.7343 C   0  0  0  0  0  0  0  0  0  0  0  0
   -6.0819    7.8123  -34.1192 C   0  0  0  0  0  0  0  0  0  0  0  0
   -7.2727    9.9035  -33.3184 C   0  0  0  0  0  0  0  0  0  0  0  0
   -6.2293    9.3264  -34.2910 C   0  0  0  0  0  0  0  0  0  0  0  0
   -7.4034    8.6333  -31.2860 O   0  0  0  0  0  0  0  0  0  0  0  0
   -7.2341   10.0967  -29.0679 O   0  0  0  0  0  0  0  0  0  0  0  0
   -3.3773   12.8885  -31.8101 F   0  0  0  0  0  0  0  0  0  0  0  0
   -5.6453   12.0100  -27.2072 Br  0  0  0  0  0  0  0  0  0  0  0  0
   -4.9982   11.1519  -32.8785 H   0  0  0  0  0  0  0  0  0  0  0  0
   -3.8321   13.1245  -29.2618 H   0  0  0  0  0  0  0  0  0  0  0  0
   -7.5989    9.1996  -35.9761 H   0  0  0  0  0  0  0  0  0  0  0  0
   -5.8903    9.2539  -36.4450 H   0  0  0  0  0  0  0  0  0  0  0  0
   -6.7083   10.7246  -35.8873 H   0  0  0  0  0  0  0  0  0  0  0  0
   -7.0295    7.2947  -34.2965 H   0  0  0  0  0  0  0  0  0  0  0  0
   -5.7587    7.5689  -33.1013 H   0  0  0  0  0  0  0  0  0  0  0  0
   -5.3398    7.4042  -34.8140 H   0  0  0  0  0  0  0  0  0  0  0  0
   -8.2575    9.4850  -33.5571 H   0  0  0  0  0  0  0  0  0  0  0  0
   -7.3184   10.9927  -33.4407 H   0  0  0  0  0  0  0  0  0  0  0  0
   -5.2539    9.7919  -34.1025 H   0  0  0  0  0  0  0  0  0  0  0  0
   -7.7090    9.5127  -29.6783 H   0  0  0  0  0  0  0  0  0  0  0  0
  1  3  2  0  0  0  0
  1  5  1  0  0  0  0
  2  5  2  0  0  0  0
  2  6  1  0  0  0  0
  3  4  1  0  0  0  0
  3  7  1  0  0  0  0
  4  6  2  0  0  0  0
  4 13  1  0  0  0  0
  5 14  1  0  0  0  0
  6 15  1  0  0  0  0
  7 10  1  0  0  0  0
  7 12  2  0  0  0  0
  8 11  1  0  0  0  0
  9 11  1  0  0  0  0
 10 11  1  0  0  0  0
  1 16  1  0  0  0  0
  2 17  1  0  0  0  0
  8 18  1  0  0  0  0
  8 19  1  0  0  0  0
  8 20  1  0  0  0  0
  9 21  1  0  0  0  0
  9 22  1  0  0  0  0
  9 23  1  0  0  0  0
 10 24  1  0  0  0  0
 10 25  1  0  0  0  0
 11 26  1  0  0  0  0
 13 27  1  0  0  0  0
M  END
> <id>
EN300-1276629

> <smiles>
CC(C)CC(=O)C=1C=C(F)C=C(Br)C1O

> <MDLNUMBER>
MFCD16742963

> <IUPAC Name>
1-(3-bromo-5-fluoro-2-hydroxyphenyl)-3-methylbutan-1-one

> <CAS>
1249893-61-5

> <URL>
https://www.enaminestore.com/catalog/EN300-1276629

> <ROCS_ShapeQuery>
_x1604L0AP1_x0771L0AP1

> <ROCS_TanimotoCombo>
0.910 

> <ROCS_ShapeTanimoto>
0.629 

> <ROCS_ColorTanimoto>
0.281 

> <ROCS_RefTversky>
0.543 

> <ROCS_RefColorTversky>
0.341 

> <ROCS_RefTverskyCombo>
0.883 

> <ROCS_FitTversky>
1.338 

> <ROCS_FitColorTversky>
0.618 

> <ROCS_FitTverskyCombo>
1.957 

> <ROCS_ColorScore>
-3.888

> <ROCS_Overlap>
921.905

> <ROCS_Rank>
186                 

$$$$
untitled-dbase-585_138
  -OEChem-06042309053D

 23 23  0     0  0  0  0  0  0999 V2000
   -4.9985   11.1083  -31.7647 C   0  0  0  0  0  0  0  0  0  0  0  0
   -4.6071   12.5262  -29.8481 C   0  0  0  0  0  0  0  0  0  0  0  0
   -5.9812   10.4191  -31.0542 C   0  0  0  0  0  0  0  0  0  0  0  0
   -6.2769   10.7835  -29.7406 C   0  0  0  0  0  0  0  0  0  0  0  0
   -4.3114   12.1619  -31.1617 C   0  0  0  0  0  0  0  0  0  0  0  0
   -5.5899   11.8371  -29.1376 C   0  0  0  0  0  0  0  0  0  0  0  0
   -6.7047    9.2942  -31.7188 C   0  0  0  0  0  0  0  0  0  0  0  0
   -6.4644    9.1934  -33.2368 C   0  0  0  0  0  0  0  0  0  0  0  0
   -6.8848   10.4612  -33.9797 C   0  0  0  0  0  0  0  0  0  0  0  0
   -7.2409   10.0993  -29.0585 O   0  0  0  0  0  0  0  0  0  0  0  0
   -6.5709   10.2922  -35.7612 S   0  0  0  0  0  0  0  0  0  0  0  0
   -3.0987   13.0119  -32.0389 Cl  0  0  0  0  0  0  0  0  0  0  0  0
   -5.9633   12.3616  -27.3543 Br  0  0  0  0  0  0  0  0  0  0  0  0
   -4.7712   10.8213  -32.7892 H   0  0  0  0  0  0  0  0  0  0  0  0
   -4.0687   13.3481  -29.3814 H   0  0  0  0  0  0  0  0  0  0  0  0
   -7.7893    9.3591  -31.5311 H   0  0  0  0  0  0  0  0  0  0  0  0
   -6.3914    8.3451  -31.2536 H   0  0  0  0  0  0  0  0  0  0  0  0
   -7.0399    8.3393  -33.6170 H   0  0  0  0  0  0  0  0  0  0  0  0
   -5.4061    8.9764  -33.4296 H   0  0  0  0  0  0  0  0  0  0  0  0
   -6.3248   11.3302  -33.6225 H   0  0  0  0  0  0  0  0  0  0  0  0
   -7.9516   10.6588  -33.8339 H   0  0  0  0  0  0  0  0  0  0  0  0
   -7.3363   10.4614  -28.1646 H   0  0  0  0  0  0  0  0  0  0  0  0
   -7.3659    9.2295  -35.9438 H   0  0  0  0  0  0  0  0  0  0  0  0
  1  3  2  0  0  0  0
  1  5  1  0  0  0  0
  2  5  2  0  0  0  0
  2  6  1  0  0  0  0
  3  4  1  0  0  0  0
  3  7  1  0  0  0  0
  4  6  2  0  0  0  0
  4 10  1  0  0  0  0
  5 12  1  0  0  0  0
  6 13  1  0  0  0  0
  7  8  1  0  0  0  0
  8  9  1  0  0  0  0
  9 11  1  0  0  0  0
  1 14  1  0  0  0  0
  2 15  1  0  0  0  0
  7 16  1  0  0  0  0
  7 17  1  0  0  0  0
  8 18  1  0  0  0  0
  8 19  1  0  0  0  0
  9 20  1  0  0  0  0
  9 21  1  0  0  0  0
 10 22  1  0  0  0  0
 11 23  1  0  0  0  0
M  END
> <id>
EN300-1922926

> <smiles>
OC=1C(Br)=CC(Cl)=CC1CCCS

> <IUPAC Name>
2-bromo-4-chloro-6-(3-sulfanylpropyl)phenol

> <CAS>
2228217-39-6

> <URL>
https://www.enaminestore.com/catalog/EN300-1922926

> <ROCS_ShapeQuery>
_x1604L0AP1_x0771L0AP1

> <ROCS_TanimotoCombo>
0.910 

> <ROCS_ShapeTanimoto>
0.581 

> <ROCS_ColorTanimoto>
0.329 

> <ROCS_RefTversky>
0.493 

> <ROCS_RefColorTversky>
0.344 

> <ROCS_RefTverskyCombo>
0.837 

> <ROCS_FitTversky>
1.440 

> <ROCS_FitColorTversky>
0.886 

> <ROCS_FitTverskyCombo>
2.327 

> <ROCS_ColorScore>
-3.887

> <ROCS_Overlap>
835.606

> <ROCS_Rank>
187                 

$$$$
untitled-dbase-793_4
  -OEChem-06042309053D

 21 21  0     0  0  0  0  0  0999 V2000
   -4.6039   12.4885  -29.8646 C   0  0  0  0  0  0  0  0  0  0  0  0
   -4.3549   12.1669  -31.1987 C   0  0  0  0  0  0  0  0  0  0  0  0
   -5.5736   11.7878  -29.1474 C   0  0  0  0  0  0  0  0  0  0  0  0
   -5.0757   11.1445  -31.8159 C   0  0  0  0  0  0  0  0  0  0  0  0
   -6.2945   10.7654  -29.7645 C   0  0  0  0  0  0  0  0  0  0  0  0
   -6.0455   10.4438  -31.0988 C   0  0  0  0  0  0  0  0  0  0  0  0
   -5.9701   10.9797  -34.1730 C   0  0  0  0  0  0  0  0  0  0  0  0
   -6.0188   10.0442  -35.3534 C   0  0  0  0  0  0  0  0  0  0  0  0
   -4.7714   10.8389  -33.2473 C   0  0  0  0  0  0  0  0  0  0  0  0
   -6.8621   11.8061  -33.9855 O   0  0  0  0  0  0  0  0  0  0  0  0
   -7.2348   10.1031  -29.0323 O   0  0  0  0  0  0  0  0  0  0  0  0
   -7.0349    9.0469  -31.9299 Br  0  0  0  0  0  0  0  0  0  0  0  0
   -4.0430   13.2849  -29.3842 H   0  0  0  0  0  0  0  0  0  0  0  0
   -3.5970   12.7195  -31.7481 H   0  0  0  0  0  0  0  0  0  0  0  0
   -5.7623   12.0447  -28.1084 H   0  0  0  0  0  0  0  0  0  0  0  0
   -6.5482    9.1283  -35.0768 H   0  0  0  0  0  0  0  0  0  0  0  0
   -6.5505   10.5238  -36.1788 H   0  0  0  0  0  0  0  0  0  0  0  0
   -5.0018    9.7859  -35.6587 H   0  0  0  0  0  0  0  0  0  0  0  0
   -3.9788   11.5062  -33.6171 H   0  0  0  0  0  0  0  0  0  0  0  0
   -4.3896    9.8116  -33.3431 H   0  0  0  0  0  0  0  0  0  0  0  0
   -7.6609    9.4213  -29.5744 H   0  0  0  0  0  0  0  0  0  0  0  0
  1  2  1  0  0  0  0
  1  3  2  0  0  0  0
  2  4  2  0  0  0  0
  3  5  1  0  0  0  0
  4  6  1  0  0  0  0
  4  9  1  0  0  0  0
  5  6  2  0  0  0  0
  5 11  1  0  0  0  0
  6 12  1  0  0  0  0
  7  8  1  0  0  0  0
  7  9  1  0  0  0  0
  7 10  2  0  0  0  0
  1 13  1  0  0  0  0
  2 14  1  0  0  0  0
  3 15  1  0  0  0  0
  8 16  1  0  0  0  0
  8 17  1  0  0  0  0
  8 18  1  0  0  0  0
  9 19  1  0  0  0  0
  9 20  1  0  0  0  0
 11 21  1  0  0  0  0
M  END
> <id>
EN300-1893325

> <smiles>
CC(=O)CC=1C=CC=C(O)C1Br

> <MDLNUMBER>
MFCD10566806

> <IUPAC Name>
1-(2-bromo-3-hydroxyphenyl)propan-2-one

> <CAS>
1379333-76-2

> <URL>
https://www.enaminestore.com/catalog/EN300-1893325

> <ROCS_ShapeQuery>
_x1604L0AP1_x0771L0AP1

> <ROCS_TanimotoCombo>
0.910 

> <ROCS_ShapeTanimoto>
0.497 

> <ROCS_ColorTanimoto>
0.413 

> <ROCS_RefTversky>
0.442 

> <ROCS_RefColorTversky>
0.430 

> <ROCS_RefTverskyCombo>
0.872 

> <ROCS_FitTversky>
1.327 

> <ROCS_FitColorTversky>
0.915 

> <ROCS_FitTverskyCombo>
2.242 

> <ROCS_ColorScore>
-4.882

> <ROCS_Overlap>
748.984

> <ROCS_Rank>
188                 

$$$$
untitled-dbase-125_0
  -OEChem-06042309053D

 15 15  0     0  0  0  0  0  0999 V2000
   -5.0564   11.1310  -31.7966 C   0  0  0  0  0  0  0  0  0  0  0  0
   -5.5668   11.7751  -29.1306 C   0  0  0  0  0  0  0  0  0  0  0  0
   -4.3311   12.1464  -31.1733 C   0  0  0  0  0  0  0  0  0  0  0  0
   -6.2921   10.7598  -29.7540 C   0  0  0  0  0  0  0  0  0  0  0  0
   -4.5862   12.4684  -29.8403 C   0  0  0  0  0  0  0  0  0  0  0  0
   -6.0370   10.4377  -31.0870 C   0  0  0  0  0  0  0  0  0  0  0  0
   -3.3336   12.8512  -31.8982 N   0  3  0  0  0  0  0  0  0  0  0  0
   -3.1214   12.5437  -33.0959 O   0  5  0  0  0  0  0  0  0  0  0  0
   -2.6918   13.7616  -31.3206 O   0  0  0  0  0  0  0  0  0  0  0  0
   -7.2457   10.1036  -29.0339 O   0  0  0  0  0  0  0  0  0  0  0  0
   -3.8975   13.4434  -29.2295 F   0  0  0  0  0  0  0  0  0  0  0  0
   -7.0060    9.0665  -31.9665 Br  0  0  0  0  0  0  0  0  0  0  0  0
   -4.8536   10.8829  -32.8367 H   0  0  0  0  0  0  0  0  0  0  0  0
   -5.7607   12.0336  -28.0931 H   0  0  0  0  0  0  0  0  0  0  0  0
   -7.6719    9.4268  -29.5823 H   0  0  0  0  0  0  0  0  0  0  0  0
  1  3  1  0  0  0  0
  1  6  2  0  0  0  0
  2  4  2  0  0  0  0
  2  5  1  0  0  0  0
  3  5  2  0  0  0  0
  3  7  1  0  0  0  0
  4  6  1  0  0  0  0
  4 10  1  0  0  0  0
  5 11  1  0  0  0  0
  6 12  1  0  0  0  0
  7  8  1  0  0  0  0
  7  9  2  0  0  0  0
  1 13  1  0  0  0  0
  2 14  1  0  0  0  0
 10 15  1  0  0  0  0
M  CHG  2   7   1   8  -1
M  END
> <id>
EN300-746241

> <smiles>
OC=1C=C(F)C(=CC1Br)[N+](=O)[O-]

> <MDLNUMBER>
MFCD22034975

> <IUPAC Name>
2-bromo-5-fluoro-4-nitrophenol

> <CAS>
1369139-60-5

> <Purity>
95

> <URL>
https://www.enaminestore.com/catalog/EN300-746241

> <ROCS_ShapeQuery>
_x1604L0AP1_x0771L0AP1

> <ROCS_TanimotoCombo>
0.910 

> <ROCS_ShapeTanimoto>
0.530 

> <ROCS_ColorTanimoto>
0.380 

> <ROCS_RefTversky>
0.467 

> <ROCS_RefColorTversky>
0.427 

> <ROCS_RefTverskyCombo>
0.894 

> <ROCS_FitTversky>
1.343 

> <ROCS_FitColorTversky>
0.774 

> <ROCS_FitTverskyCombo>
2.117 

> <ROCS_ColorScore>
-4.879

> <ROCS_Overlap>
790.447

> <ROCS_Rank>
189                 

$$$$
untitled-dbase-2316_0
  -OEChem-06042309053D

 16 16  0     0  0  0  0  0  0999 V2000
   -4.3457   12.1713  -31.1911 C   0  0  0  0  0  0  0  0  0  0  0  0
   -5.5716   11.7876  -29.1448 C   0  0  0  0  0  0  0  0  0  0  0  0
   -5.0656   11.1516  -31.8136 C   0  0  0  0  0  0  0  0  0  0  0  0
   -6.2915   10.7679  -29.7673 C   0  0  0  0  0  0  0  0  0  0  0  0
   -4.5987   12.4893  -29.8567 C   0  0  0  0  0  0  0  0  0  0  0  0
   -6.0385   10.4499  -31.1017 C   0  0  0  0  0  0  0  0  0  0  0  0
   -4.7572   10.8495  -33.2449 C   0  0  0  0  0  0  0  0  0  0  0  0
   -7.2346   10.1040  -29.0399 O   0  0  0  0  0  0  0  0  0  0  0  0
   -3.7108   13.7476  -29.0886 Cl  0  0  0  0  0  0  0  0  0  0  0  0
   -7.0260    9.0563  -31.9408 Br  0  0  0  0  0  0  0  0  0  0  0  0
   -3.5874   12.7172  -31.7487 H   0  0  0  0  0  0  0  0  0  0  0  0
   -5.7739   12.0306  -28.1042 H   0  0  0  0  0  0  0  0  0  0  0  0
   -3.9695   10.0909  -33.3102 H   0  0  0  0  0  0  0  0  0  0  0  0
   -5.6453   10.4794  -33.7706 H   0  0  0  0  0  0  0  0  0  0  0  0
   -4.4228   11.7493  -33.7750 H   0  0  0  0  0  0  0  0  0  0  0  0
   -7.6597    9.4244  -29.5854 H   0  0  0  0  0  0  0  0  0  0  0  0
  1  3  2  0  0  0  0
  1  5  1  0  0  0  0
  2  4  1  0  0  0  0
  2  5  2  0  0  0  0
  3  6  1  0  0  0  0
  3  7  1  0  0  0  0
  4  6  2  0  0  0  0
  4  8  1  0  0  0  0
  5  9  1  0  0  0  0
  6 10  1  0  0  0  0
  1 11  1  0  0  0  0
  2 12  1  0  0  0  0
  7 13  1  0  0  0  0
  7 14  1  0  0  0  0
  7 15  1  0  0  0  0
  8 16  1  0  0  0  0
M  END
> <id>
EN300-33887700

> <smiles>
CC=1C=C(Cl)C=C(O)C1Br

> <MDLNUMBER>
MFCD33401552

> <IUPAC Name>
2-bromo-5-chloro-3-methylphenol

> <CAS>
2092417-16-6

> <Purity>
95

> <URL>
https://www.enaminestore.com/catalog/EN300-33887700

> <ROCS_ShapeQuery>
_x1604L0AP1_x0771L0AP1

> <ROCS_TanimotoCombo>
0.910 

> <ROCS_ShapeTanimoto>
0.458 

> <ROCS_ColorTanimoto>
0.451 

> <ROCS_RefTversky>
0.403 

> <ROCS_RefColorTversky>
0.432 

> <ROCS_RefTverskyCombo>
0.834 

> <ROCS_FitTversky>
1.428 

> <ROCS_FitColorTversky>
1.114 

> <ROCS_FitTverskyCombo>
2.541 

> <ROCS_ColorScore>
-4.883

> <ROCS_Overlap>
680.198

> <ROCS_Rank>
190                 

$$$$
untitled-dbase-570_1084
  -OEChem-06042309053D

 31 32  0     0  0  0  0  0  0999 V2000
   -6.2919   10.0938  -31.2306 C   0  0  0  0  0  0  0  0  0  0  0  0
   -4.4989   11.6057  -31.8105 C   0  0  0  0  0  0  0  0  0  0  0  0
   -5.3918   10.5963  -32.1703 C   0  0  0  0  0  0  0  0  0  0  0  0
   -6.2991   10.6008  -29.9311 C   0  0  0  0  0  0  0  0  0  0  0  0
   -5.4062   11.6102  -29.5713 C   0  0  0  0  0  0  0  0  0  0  0  0
   -4.5061   12.1127  -30.5110 C   0  0  0  0  0  0  0  0  0  0  0  0
   -7.8639    9.3222  -33.5550 C   0  0  0  0  0  0  0  0  0  0  0  0
   -7.3575    9.0988  -34.9514 C   0  0  0  0  0  0  0  0  0  0  0  0
   -6.4126    8.9672  -33.7798 C   0  0  0  0  0  0  0  0  0  0  0  0
   -8.0606    9.0692  -29.4760 C   0  0  0  0  0  0  0  0  0  0  0  0
   -5.3837   10.0456  -33.5791 C   0  0  0  0  0  0  0  0  0  0  0  0
   -5.9561    7.5872  -33.3938 C   0  0  0  0  0  0  0  0  0  0  0  0
   -5.4279   12.0924  -28.2951 O   0  0  0  0  0  0  0  0  0  0  0  0
   -6.3328    6.6639  -34.4089 O   0  0  0  0  0  0  0  0  0  0  0  0
   -7.1837   10.0993  -29.0244 O   0  0  0  0  0  0  0  0  0  0  0  0
   -3.2777   13.4841  -30.0593 Br  0  0  0  0  0  0  0  0  0  0  0  0
   -6.9888    9.3067  -31.5086 H   0  0  0  0  0  0  0  0  0  0  0  0
   -3.8005   11.9909  -32.5503 H   0  0  0  0  0  0  0  0  0  0  0  0
   -8.1115   10.3368  -33.2662 H   0  0  0  0  0  0  0  0  0  0  0  0
   -8.5225    8.5723  -33.1329 H   0  0  0  0  0  0  0  0  0  0  0  0
   -7.6771    8.1994  -35.4643 H   0  0  0  0  0  0  0  0  0  0  0  0
   -7.2661    9.9638  -35.5976 H   0  0  0  0  0  0  0  0  0  0  0  0
   -8.7129    8.7594  -28.6558 H   0  0  0  0  0  0  0  0  0  0  0  0
   -7.4730    8.2183  -29.8297 H   0  0  0  0  0  0  0  0  0  0  0  0
   -8.6697    9.4554  -30.2968 H   0  0  0  0  0  0  0  0  0  0  0  0
   -5.5481   10.8745  -34.2874 H   0  0  0  0  0  0  0  0  0  0  0  0
   -4.3743    9.6654  -33.8080 H   0  0  0  0  0  0  0  0  0  0  0  0
   -6.4170    7.2699  -32.4495 H   0  0  0  0  0  0  0  0  0  0  0  0
   -4.8650    7.5506  -33.2807 H   0  0  0  0  0  0  0  0  0  0  0  0
   -6.1084   11.6352  -27.7779 H   0  0  0  0  0  0  0  0  0  0  0  0
   -5.8987    6.9561  -35.2261 H   0  0  0  0  0  0  0  0  0  0  0  0
  1  3  1  0  0  0  0
  1  4  2  0  0  0  0
  2  3  2  0  0  0  0
  2  6  1  0  0  0  0
  3 11  1  0  0  0  0
  4  5  1  0  0  0  0
  4 15  1  0  0  0  0
  5  6  2  0  0  0  0
  5 13  1  0  0  0  0
  6 16  1  0  0  0  0
  7  8  1  0  0  0  0
  7  9  1  0  0  0  0
  8  9  1  0  0  0  0
  9 11  1  0  0  0  0
  9 12  1  0  0  0  0
 10 15  1  0  0  0  0
 12 14  1  0  0  0  0
  1 17  1  0  0  0  0
  2 18  1  0  0  0  0
  7 19  1  0  0  0  0
  7 20  1  0  0  0  0
  8 21  1  0  0  0  0
  8 22  1  0  0  0  0
 10 23  1  0  0  0  0
 10 24  1  0  0  0  0
 10 25  1  0  0  0  0
 11 26  1  0  0  0  0
 11 27  1  0  0  0  0
 12 28  1  0  0  0  0
 12 29  1  0  0  0  0
 13 30  1  0  0  0  0
 14 31  1  0  0  0  0
M  END
> <id>
EN300-1925710

> <smiles>
COC=1C=C(CC2(CO)CC2)C=C(Br)C1O

> <IUPAC Name>
2-bromo-4-{[1-(hydroxymethyl)cyclopropyl]methyl}-6-methoxyphenol

> <CAS>
2228199-58-2

> <URL>
https://www.enaminestore.com/catalog/EN300-1925710

> <ROCS_ShapeQuery>
_x1604L0AP1_x0771L0AP1

> <ROCS_TanimotoCombo>
0.910 

> <ROCS_ShapeTanimoto>
0.586 

> <ROCS_ColorTanimoto>
0.323 

> <ROCS_RefTversky>
0.530 

> <ROCS_RefColorTversky>
0.399 

> <ROCS_RefTverskyCombo>
0.928 

> <ROCS_FitTversky>
1.223 

> <ROCS_FitColorTversky>
0.632 

> <ROCS_FitTverskyCombo>
1.855 

> <ROCS_ColorScore>
-4.570

> <ROCS_Overlap>
901.166

> <ROCS_Rank>
191                 

$$$$
untitled-dbase-858_58
  -OEChem-06042309053D

 26 26  0     0  0  0  0  0  0999 V2000
   -4.3758   11.8799  -31.8035 C   0  0  0  0  0  0  0  0  0  0  0  0
   -4.3800   12.3872  -30.5042 C   0  0  0  0  0  0  0  0  0  0  0  0
   -5.2507   10.8515  -32.1536 C   0  0  0  0  0  0  0  0  0  0  0  0
   -5.2591   11.8659  -29.5549 C   0  0  0  0  0  0  0  0  0  0  0  0
   -6.1340   10.8375  -29.9049 C   0  0  0  0  0  0  0  0  0  0  0  0
   -6.1297   10.3302  -31.2043 C   0  0  0  0  0  0  0  0  0  0  0  0
   -3.8816   12.2922  -27.4100 C   0  0  0  0  0  0  0  0  0  0  0  0
   -5.5600   13.9529  -28.1863 C   0  0  0  0  0  0  0  0  0  0  0  0
   -6.3250   11.7443  -27.2569 C   0  0  0  0  0  0  0  0  0  0  0  0
   -5.2458   12.4403  -28.1258 C   0  0  0  0  0  0  0  0  0  0  0  0
   -6.9870   10.3368  -28.9646 O   0  0  0  0  0  0  0  0  0  0  0  0
   -6.3335   12.2821  -25.9388 O   0  0  0  0  0  0  0  0  0  0  0  0
   -7.3037    8.9337  -31.7196 Br  0  0  0  0  0  0  0  0  0  0  0  0
   -3.6916   12.2860  -32.5429 H   0  0  0  0  0  0  0  0  0  0  0  0
   -3.6967   13.1901  -30.2406 H   0  0  0  0  0  0  0  0  0  0  0  0
   -5.2332   10.4693  -33.1712 H   0  0  0  0  0  0  0  0  0  0  0  0
   -3.9119   12.7118  -26.3976 H   0  0  0  0  0  0  0  0  0  0  0  0
   -3.6027   11.2360  -27.3125 H   0  0  0  0  0  0  0  0  0  0  0  0
   -3.0728   12.7896  -27.9570 H   0  0  0  0  0  0  0  0  0  0  0  0
   -5.5592   14.3974  -27.1839 H   0  0  0  0  0  0  0  0  0  0  0  0
   -6.5461   14.1340  -28.6299 H   0  0  0  0  0  0  0  0  0  0  0  0
   -4.8311   14.5036  -28.7910 H   0  0  0  0  0  0  0  0  0  0  0  0
   -7.3216   11.9000  -27.6866 H   0  0  0  0  0  0  0  0  0  0  0  0
   -6.1641   10.6636  -27.1833 H   0  0  0  0  0  0  0  0  0  0  0  0
   -7.5303    9.6325  -29.3495 H   0  0  0  0  0  0  0  0  0  0  0  0
   -7.0247   11.8083  -25.4499 H   0  0  0  0  0  0  0  0  0  0  0  0
  1  2  1  0  0  0  0
  1  3  2  0  0  0  0
  2  4  2  0  0  0  0
  3  6  1  0  0  0  0
  4  5  1  0  0  0  0
  4 10  1  0  0  0  0
  5  6  2  0  0  0  0
  5 11  1  0  0  0  0
  6 13  1  0  0  0  0
  7 10  1  0  0  0  0
  8 10  1  0  0  0  0
  9 10  1  0  0  0  0
  9 12  1  0  0  0  0
  1 14  1  0  0  0  0
  2 15  1  0  0  0  0
  3 16  1  0  0  0  0
  7 17  1  0  0  0  0
  7 18  1  0  0  0  0
  7 19  1  0  0  0  0
  8 20  1  0  0  0  0
  8 21  1  0  0  0  0
  8 22  1  0  0  0  0
  9 23  1  0  0  0  0
  9 24  1  0  0  0  0
 11 25  1  0  0  0  0
 12 26  1  0  0  0  0
M  END
> <id>
EN300-1923101

> <smiles>
CC(C)(CO)C=1C=CC=C(Br)C1O

> <IUPAC Name>
2-bromo-6-(1-hydroxy-2-methylpropan-2-yl)phenol

> <CAS>
1897935-76-0

> <URL>
https://www.enaminestore.com/catalog/EN300-1923101

> <ROCS_ShapeQuery>
_x1604L0AP1_x0771L0AP1

> <ROCS_TanimotoCombo>
0.909 

> <ROCS_ShapeTanimoto>
0.426 

> <ROCS_ColorTanimoto>
0.483 

> <ROCS_RefTversky>
0.405 

> <ROCS_RefColorTversky>
0.531 

> <ROCS_RefTverskyCombo>
0.937 

> <ROCS_FitTversky>
1.137 

> <ROCS_FitColorTversky>
0.842 

> <ROCS_FitTverskyCombo>
1.979 

> <ROCS_ColorScore>
-6.093

> <ROCS_Overlap>
686.718

> <ROCS_Rank>
192                 

$$$$
untitled-dbase-1781_0
  -OEChem-06042309053D

 13 13  0     0  0  0  0  0  0999 V2000
   -5.5800   11.7811  -29.1259 C   0  0  0  0  0  0  0  0  0  0  0  0
   -4.6046   12.4959  -29.8211 C   0  0  0  0  0  0  0  0  0  0  0  0
   -6.2913   10.7669  -29.7672 C   0  0  0  0  0  0  0  0  0  0  0  0
   -4.3405   12.1966  -31.1576 C   0  0  0  0  0  0  0  0  0  0  0  0
   -5.0518   11.1824  -31.7990 C   0  0  0  0  0  0  0  0  0  0  0  0
   -6.0272   10.4676  -31.1037 C   0  0  0  0  0  0  0  0  0  0  0  0
   -7.2367   10.0941  -29.0510 O   0  0  0  0  0  0  0  0  0  0  0  0
   -3.1160   13.1286  -31.9505 Cl  0  0  0  0  0  0  0  0  0  0  0  0
   -4.7104   10.8221  -33.4661 Cl  0  0  0  0  0  0  0  0  0  0  0  0
   -7.0320    9.0677  -31.9277 Br  0  0  0  0  0  0  0  0  0  0  0  0
   -5.7803   12.0202  -28.0851 H   0  0  0  0  0  0  0  0  0  0  0  0
   -4.0607   13.2831  -29.3047 H   0  0  0  0  0  0  0  0  0  0  0  0
   -7.6575    9.4189  -29.6052 H   0  0  0  0  0  0  0  0  0  0  0  0
  1  2  1  0  0  0  0
  1  3  2  0  0  0  0
  2  4  2  0  0  0  0
  3  6  1  0  0  0  0
  3  7  1  0  0  0  0
  4  5  1  0  0  0  0
  4  8  1  0  0  0  0
  5  6  2  0  0  0  0
  5  9  1  0  0  0  0
  6 10  1  0  0  0  0
  1 11  1  0  0  0  0
  2 12  1  0  0  0  0
  7 13  1  0  0  0  0
M  END
> <id>
EN300-7655133

> <smiles>
OC=1C=CC(Cl)=C(Cl)C1Br

> <MDLNUMBER>
MFCD19707188

> <IUPAC Name>
2-bromo-3,4-dichlorophenol

> <CAS>
1379356-93-0

> <Purity>
95

> <URL>
https://www.enaminestore.com/catalog/EN300-7655133

> <ROCS_ShapeQuery>
_x1604L0AP1_x0771L0AP1

> <ROCS_TanimotoCombo>
0.909 

> <ROCS_ShapeTanimoto>
0.457 

> <ROCS_ColorTanimoto>
0.452 

> <ROCS_RefTversky>
0.401 

> <ROCS_RefColorTversky>
0.432 

> <ROCS_RefTverskyCombo>
0.833 

> <ROCS_FitTversky>
1.441 

> <ROCS_FitColorTversky>
1.114 

> <ROCS_FitTverskyCombo>
2.555 

> <ROCS_ColorScore>
-4.885

> <ROCS_Overlap>
677.257

> <ROCS_Rank>
193                 

$$$$
untitled-dbase-526_22
  -OEChem-06042309053D

 21 21  0     0  0  0  0  0  0999 V2000
   -4.2236   12.0922  -29.8561 C   0  0  0  0  0  0  0  0  0  0  0  0
   -5.1741   11.2041  -31.8920 C   0  0  0  0  0  0  0  0  0  0  0  0
   -5.1911   11.4186  -29.1105 C   0  0  0  0  0  0  0  0  0  0  0  0
   -6.1501   10.6377  -29.7556 C   0  0  0  0  0  0  0  0  0  0  0  0
   -4.2151   11.9849  -31.2468 C   0  0  0  0  0  0  0  0  0  0  0  0
   -6.1416   10.5304  -31.1464 C   0  0  0  0  0  0  0  0  0  0  0  0
   -6.2575   12.4763  -27.0790 C   0  0  0  0  0  0  0  0  0  0  0  0
   -7.2006   13.0757  -28.0901 C   0  0  0  0  0  0  0  0  0  0  0  0
   -5.1821   11.5471  -27.6226 C   0  0  0  0  0  0  0  0  0  0  0  0
   -6.3675   12.7365  -25.8815 O   0  0  0  0  0  0  0  0  0  0  0  0
   -7.0902    9.9849  -29.0123 O   0  0  0  0  0  0  0  0  0  0  0  0
   -3.0212   12.8165  -32.1664 Cl  0  0  0  0  0  0  0  0  0  0  0  0
   -7.4284    9.4790  -32.0593 Br  0  0  0  0  0  0  0  0  0  0  0  0
   -3.4771   12.6999  -29.3490 H   0  0  0  0  0  0  0  0  0  0  0  0
   -5.1643   11.1234  -32.9767 H   0  0  0  0  0  0  0  0  0  0  0  0
   -8.0659   12.4202  -28.2216 H   0  0  0  0  0  0  0  0  0  0  0  0
   -7.5461   14.0498  -27.7358 H   0  0  0  0  0  0  0  0  0  0  0  0
   -6.6894   13.1825  -29.0500 H   0  0  0  0  0  0  0  0  0  0  0  0
   -5.3215   10.5607  -27.1547 H   0  0  0  0  0  0  0  0  0  0  0  0
   -4.2067   11.9235  -27.2786 H   0  0  0  0  0  0  0  0  0  0  0  0
   -7.6851    9.4858  -29.5922 H   0  0  0  0  0  0  0  0  0  0  0  0
  1  3  2  0  0  0  0
  1  5  1  0  0  0  0
  2  5  2  0  0  0  0
  2  6  1  0  0  0  0
  3  4  1  0  0  0  0
  3  9  1  0  0  0  0
  4  6  2  0  0  0  0
  4 11  1  0  0  0  0
  5 12  1  0  0  0  0
  6 13  1  0  0  0  0
  7  8  1  0  0  0  0
  7  9  1  0  0  0  0
  7 10  2  0  0  0  0
  1 14  1  0  0  0  0
  2 15  1  0  0  0  0
  8 16  1  0  0  0  0
  8 17  1  0  0  0  0
  8 18  1  0  0  0  0
  9 19  1  0  0  0  0
  9 20  1  0  0  0  0
 11 21  1  0  0  0  0
M  END
> <id>
EN300-1912617

> <smiles>
CC(=O)CC=1C=C(Cl)C=C(Br)C1O

> <MDLNUMBER>
MFCD03410432

> <IUPAC Name>
1-(3-bromo-5-chloro-2-hydroxyphenyl)propan-2-one

> <CAS>
1017083-02-1

> <URL>
https://www.enaminestore.com/catalog/EN300-1912617

> <ROCS_ShapeQuery>
_x1604L0AP1_x0771L0AP1

> <ROCS_TanimotoCombo>
0.909 

> <ROCS_ShapeTanimoto>
0.439 

> <ROCS_ColorTanimoto>
0.470 

> <ROCS_RefTversky>
0.413 

> <ROCS_RefColorTversky>
0.469 

> <ROCS_RefTverskyCombo>
0.883 

> <ROCS_FitTversky>
1.169 

> <ROCS_FitColorTversky>
1.000 

> <ROCS_FitTverskyCombo>
2.169 

> <ROCS_ColorScore>
-5.336

> <ROCS_Overlap>
700.220

> <ROCS_Rank>
194                 

$$$$
untitled-dbase-172_20
  -OEChem-06042309053D

 17 17  0     0  0  0  0  0  0999 V2000
   -4.5760   12.4693  -29.8579 C   0  0  0  0  0  0  0  0  0  0  0  0
   -5.0608   11.1237  -31.8050 C   0  0  0  0  0  0  0  0  0  0  0  0
   -5.5547   11.7825  -29.1396 C   0  0  0  0  0  0  0  0  0  0  0  0
   -6.2864   10.7663  -29.7539 C   0  0  0  0  0  0  0  0  0  0  0  0
   -4.3290   12.1400  -31.1907 C   0  0  0  0  0  0  0  0  0  0  0  0
   -6.0395   10.4369  -31.0867 C   0  0  0  0  0  0  0  0  0  0  0  0
   -5.8030   12.1512  -27.7137 C   0  0  0  0  0  0  0  0  0  0  0  0
   -7.2408   10.1037  -29.0378 O   0  0  0  0  0  0  0  0  0  0  0  0
   -5.0263   13.7308  -27.2591 S   0  0  0  0  0  0  0  0  0  0  0  0
   -3.1213   12.9879  -32.0767 Cl  0  0  0  0  0  0  0  0  0  0  0  0
   -7.0133    9.0620  -31.9564 Br  0  0  0  0  0  0  0  0  0  0  0  0
   -4.0071   13.2610  -29.3749 H   0  0  0  0  0  0  0  0  0  0  0  0
   -4.8654   10.8702  -32.8447 H   0  0  0  0  0  0  0  0  0  0  0  0
   -6.8812   12.2238  -27.5120 H   0  0  0  0  0  0  0  0  0  0  0  0
   -5.4196   11.3716  -27.0402 H   0  0  0  0  0  0  0  0  0  0  0  0
   -7.6637    9.4297  -29.5912 H   0  0  0  0  0  0  0  0  0  0  0  0
   -5.6880   14.4744  -28.1556 H   0  0  0  0  0  0  0  0  0  0  0  0
  1  3  2  0  0  0  0
  1  5  1  0  0  0  0
  2  5  2  0  0  0  0
  2  6  1  0  0  0  0
  3  4  1  0  0  0  0
  3  7  1  0  0  0  0
  4  6  2  0  0  0  0
  4  8  1  0  0  0  0
  5 10  1  0  0  0  0
  6 11  1  0  0  0  0
  7  9  1  0  0  0  0
  1 12  1  0  0  0  0
  2 13  1  0  0  0  0
  7 14  1  0  0  0  0
  7 15  1  0  0  0  0
  8 16  1  0  0  0  0
  9 17  1  0  0  0  0
M  END
> <id>
EN300-1289363

> <smiles>
OC=1C(Br)=CC(Cl)=CC1CS

> <MDLNUMBER>
MFCD33497722

> <IUPAC Name>
2-bromo-4-chloro-6-(sulfanylmethyl)phenol

> <CAS>
2172197-28-1

> <URL>
https://www.enaminestore.com/catalog/EN300-1289363

> <ROCS_ShapeQuery>
_x1604L0AP1_x0771L0AP1

> <ROCS_TanimotoCombo>
0.909 

> <ROCS_ShapeTanimoto>
0.458 

> <ROCS_ColorTanimoto>
0.451 

> <ROCS_RefTversky>
0.408 

> <ROCS_RefColorTversky>
0.431 

> <ROCS_RefTverskyCombo>
0.840 

> <ROCS_FitTversky>
1.358 

> <ROCS_FitColorTversky>
1.113 

> <ROCS_FitTverskyCombo>
2.471 

> <ROCS_ColorScore>
-4.881

> <ROCS_Overlap>
690.138

> <ROCS_Rank>
195                 

$$$$
untitled-dbase-26_0
  -OEChem-06042309053D

 25 25  0     0  0  0  0  0  0999 V2000
   -5.0440   11.1567  -31.7747 C   0  0  0  0  0  0  0  0  0  0  0  0
   -4.5661   12.4937  -29.8199 C   0  0  0  0  0  0  0  0  0  0  0  0
   -6.0246   10.4660  -31.0626 C   0  0  0  0  0  0  0  0  0  0  0  0
   -6.2760   10.7893  -29.7292 C   0  0  0  0  0  0  0  0  0  0  0  0
   -4.3147   12.1704  -31.1533 C   0  0  0  0  0  0  0  0  0  0  0  0
   -5.5468   11.8031  -29.1078 C   0  0  0  0  0  0  0  0  0  0  0  0
   -6.3311    9.2130  -33.2263 C   0  0  0  0  0  0  0  0  0  0  0  0
   -8.3205    9.7017  -31.7636 C   0  0  0  0  0  0  0  0  0  0  0  0
   -6.6693    7.9643  -31.1031 C   0  0  0  0  0  0  0  0  0  0  0  0
   -6.8165    9.3522  -31.7672 C   0  0  0  0  0  0  0  0  0  0  0  0
   -7.2386   10.1041  -29.0459 O   0  0  0  0  0  0  0  0  0  0  0  0
   -2.9858   13.1058  -32.1183 Br  0  0  0  0  0  0  0  0  0  0  0  0
   -5.8594   12.2712  -27.2973 Br  0  0  0  0  0  0  0  0  0  0  0  0
   -4.8527   10.8999  -32.8141 H   0  0  0  0  0  0  0  0  0  0  0  0
   -3.9960   13.2848  -29.3369 H   0  0  0  0  0  0  0  0  0  0  0  0
   -6.8809    8.4237  -33.7523 H   0  0  0  0  0  0  0  0  0  0  0  0
   -6.4704   10.1362  -33.7995 H   0  0  0  0  0  0  0  0  0  0  0  0
   -5.2650    8.9596  -33.2649 H   0  0  0  0  0  0  0  0  0  0  0  0
   -8.9259    8.9335  -32.2569 H   0  0  0  0  0  0  0  0  0  0  0  0
   -8.7009    9.8008  -30.7402 H   0  0  0  0  0  0  0  0  0  0  0  0
   -8.5063   10.6500  -32.2818 H   0  0  0  0  0  0  0  0  0  0  0  0
   -7.2509    7.2055  -31.6404 H   0  0  0  0  0  0  0  0  0  0  0  0
   -5.6262    7.6271  -31.0996 H   0  0  0  0  0  0  0  0  0  0  0  0
   -7.0293    7.9722  -30.0677 H   0  0  0  0  0  0  0  0  0  0  0  0
   -7.3010   10.4355  -28.1373 H   0  0  0  0  0  0  0  0  0  0  0  0
  1  3  2  0  0  0  0
  1  5  1  0  0  0  0
  2  5  2  0  0  0  0
  2  6  1  0  0  0  0
  3  4  1  0  0  0  0
  3 10  1  0  0  0  0
  4  6  2  0  0  0  0
  4 11  1  0  0  0  0
  5 12  1  0  0  0  0
  6 13  1  0  0  0  0
  7 10  1  0  0  0  0
  8 10  1  0  0  0  0
  9 10  1  0  0  0  0
  1 14  1  0  0  0  0
  2 15  1  0  0  0  0
  7 16  1  0  0  0  0
  7 17  1  0  0  0  0
  7 18  1  0  0  0  0
  8 19  1  0  0  0  0
  8 20  1  0  0  0  0
  8 21  1  0  0  0  0
  9 22  1  0  0  0  0
  9 23  1  0  0  0  0
  9 24  1  0  0  0  0
 11 25  1  0  0  0  0
M  END
> <id>
EN300-152594

> <smiles>
CC(C)(C)C=1C=C(Br)C=C(Br)C1O

> <MDLNUMBER>
MFCD00463268

> <IUPAC Name>
2,4-dibromo-6-tert-butylphenol

> <CAS>
15460-12-5

> <Purity>
95

> <URL>
https://www.enaminestore.com/catalog/EN300-152594

> <ROCS_ShapeQuery>
_x1604L0AP1_x0771L0AP1

> <ROCS_TanimotoCombo>
0.909 

> <ROCS_ShapeTanimoto>
0.528 

> <ROCS_ColorTanimoto>
0.381 

> <ROCS_RefTversky>
0.467 

> <ROCS_RefColorTversky>
0.428 

> <ROCS_RefTverskyCombo>
0.894 

> <ROCS_FitTversky>
1.331 

> <ROCS_FitColorTversky>
0.777 

> <ROCS_FitTverskyCombo>
2.108 

> <ROCS_ColorScore>
-4.881

> <ROCS_Overlap>
790.390

> <ROCS_Rank>
196                 

$$$$
untitled-dbase-729_12
  -OEChem-06042309053D

 20 20  0     0  0  0  0  0  0999 V2000
   -4.5794   12.4684  -29.8218 C   0  0  0  0  0  0  0  0  0  0  0  0
   -5.0505   11.1358  -31.7812 C   0  0  0  0  0  0  0  0  0  0  0  0
   -4.3233   12.1481  -31.1550 C   0  0  0  0  0  0  0  0  0  0  0  0
   -5.5626   11.7763  -29.1147 C   0  0  0  0  0  0  0  0  0  0  0  0
   -6.2898   10.7640  -29.7408 C   0  0  0  0  0  0  0  0  0  0  0  0
   -6.0338   10.4437  -31.0741 C   0  0  0  0  0  0  0  0  0  0  0  0
   -5.0128   13.1479  -27.2513 C   0  0  0  0  0  0  0  0  0  0  0  0
   -3.2727   12.8889  -31.9109 C   0  0  0  0  0  0  0  0  0  0  0  0
   -7.2481   10.0991  -29.0328 O   0  0  0  0  0  0  0  0  0  0  0  0
   -5.8016   12.1010  -27.8133 O   0  0  0  0  0  0  0  0  0  0  0  0
   -2.8070   14.3729  -31.0492 Cl  0  0  0  0  0  0  0  0  0  0  0  0
   -7.0014    9.0744  -31.9589 Br  0  0  0  0  0  0  0  0  0  0  0  0
   -4.0140   13.2574  -29.3315 H   0  0  0  0  0  0  0  0  0  0  0  0
   -4.8438   10.8936  -32.8213 H   0  0  0  0  0  0  0  0  0  0  0  0
   -5.3042   13.3058  -26.2100 H   0  0  0  0  0  0  0  0  0  0  0  0
   -5.1614   14.0657  -27.8256 H   0  0  0  0  0  0  0  0  0  0  0  0
   -3.9595   12.8608  -27.2929 H   0  0  0  0  0  0  0  0  0  0  0  0
   -3.6228   13.1743  -32.9118 H   0  0  0  0  0  0  0  0  0  0  0  0
   -2.3696   12.2792  -32.0475 H   0  0  0  0  0  0  0  0  0  0  0  0
   -7.2950   10.4460  -28.1289 H   0  0  0  0  0  0  0  0  0  0  0  0
  1  3  1  0  0  0  0
  1  4  2  0  0  0  0
  2  3  2  0  0  0  0
  2  6  1  0  0  0  0
  3  8  1  0  0  0  0
  4  5  1  0  0  0  0
  4 10  1  0  0  0  0
  5  6  2  0  0  0  0
  5  9  1  0  0  0  0
  6 12  1  0  0  0  0
  7 10  1  0  0  0  0
  8 11  1  0  0  0  0
  1 13  1  0  0  0  0
  2 14  1  0  0  0  0
  7 15  1  0  0  0  0
  7 16  1  0  0  0  0
  7 17  1  0  0  0  0
  8 18  1  0  0  0  0
  8 19  1  0  0  0  0
  9 20  1  0  0  0  0
M  END
> <id>
EN300-1897827

> <smiles>
COC=1C=C(CCl)C=C(Br)C1O

> <MDLNUMBER>
MFCD13178320

> <IUPAC Name>
2-bromo-4-(chloromethyl)-6-methoxyphenol

> <CAS>
21709-81-9

> <URL>
https://www.enaminestore.com/catalog/EN300-1897827

> <ROCS_ShapeQuery>
_x1604L0AP1_x0771L0AP1

> <ROCS_TanimotoCombo>
0.908 

> <ROCS_ShapeTanimoto>
0.493 

> <ROCS_ColorTanimoto>
0.415 

> <ROCS_RefTversky>
0.440 

> <ROCS_RefColorTversky>
0.431 

> <ROCS_RefTverskyCombo>
0.871 

> <ROCS_FitTversky>
1.330 

> <ROCS_FitColorTversky>
0.918 

> <ROCS_FitTverskyCombo>
2.248 

> <ROCS_ColorScore>
-4.899

> <ROCS_Overlap>
744.082

> <ROCS_Rank>
197                 

$$$$
untitled-dbase-891_15
  -OEChem-06042309053D

 19 19  0     0  0  0  0  0  0999 V2000
   -4.5699   12.4661  -29.8636 C   0  0  0  0  0  0  0  0  0  0  0  0
   -5.0607   11.1203  -31.8091 C   0  0  0  0  0  0  0  0  0  0  0  0
   -5.5484   11.7814  -29.1430 C   0  0  0  0  0  0  0  0  0  0  0  0
   -6.2830   10.7660  -29.7554 C   0  0  0  0  0  0  0  0  0  0  0  0
   -4.3261   12.1356  -31.1967 C   0  0  0  0  0  0  0  0  0  0  0  0
   -6.0392   10.4355  -31.0885 C   0  0  0  0  0  0  0  0  0  0  0  0
   -5.7933   12.1511  -27.7169 C   0  0  0  0  0  0  0  0  0  0  0  0
   -7.3492   12.2787  -26.0024 N   0  0  0  0  0  0  0  0  0  0  0  0
   -7.2371   10.1054  -29.0372 O   0  0  0  0  0  0  0  0  0  0  0  0
   -7.1561   11.9061  -27.3949 O   0  0  0  0  0  0  0  0  0  0  0  0
   -3.1187   12.9811  -32.0855 Cl  0  0  0  0  0  0  0  0  0  0  0  0
   -7.0170    9.0619  -31.9556 Br  0  0  0  0  0  0  0  0  0  0  0  0
   -3.9987   13.2571  -29.3821 H   0  0  0  0  0  0  0  0  0  0  0  0
   -4.8678   10.8660  -32.8490 H   0  0  0  0  0  0  0  0  0  0  0  0
   -5.1600   11.5647  -27.0385 H   0  0  0  0  0  0  0  0  0  0  0  0
   -5.5728   13.2121  -27.5408 H   0  0  0  0  0  0  0  0  0  0  0  0
   -7.7411   11.4142  -25.6319 H   0  0  0  0  0  0  0  0  0  0  0  0
   -8.1239   12.9343  -26.0915 H   0  0  0  0  0  0  0  0  0  0  0  0
   -7.6623    9.4318  -29.5893 H   0  0  0  0  0  0  0  0  0  0  0  0
  1  3  2  0  0  0  0
  1  5  1  0  0  0  0
  2  5  2  0  0  0  0
  2  6  1  0  0  0  0
  3  4  1  0  0  0  0
  3  7  1  0  0  0  0
  4  6  2  0  0  0  0
  4  9  1  0  0  0  0
  5 11  1  0  0  0  0
  6 12  1  0  0  0  0
  7 10  1  0  0  0  0
  8 10  1  0  0  0  0
  1 13  1  0  0  0  0
  2 14  1  0  0  0  0
  7 15  1  0  0  0  0
  7 16  1  0  0  0  0
  8 17  1  0  0  0  0
  8 18  1  0  0  0  0
  9 19  1  0  0  0  0
M  END
> <id>
EN300-1922561

> <smiles>
NOCC=1C=C(Cl)C=C(Br)C1O

> <IUPAC Name>
2-[(aminooxy)methyl]-6-bromo-4-chlorophenol

> <CAS>
2229516-41-8

> <URL>
https://www.enaminestore.com/catalog/EN300-1922561

> <ROCS_ShapeQuery>
_x1604L0AP1_x0771L0AP1

> <ROCS_TanimotoCombo>
0.908 

> <ROCS_ShapeTanimoto>
0.457 

> <ROCS_ColorTanimoto>
0.451 

> <ROCS_RefTversky>
0.417 

> <ROCS_RefColorTversky>
0.431 

> <ROCS_RefTverskyCombo>
0.848 

> <ROCS_FitTversky>
1.268 

> <ROCS_FitColorTversky>
1.113 

> <ROCS_FitTverskyCombo>
2.381 

> <ROCS_ColorScore>
-4.881

> <ROCS_Overlap>
705.672

> <ROCS_Rank>
198                 

$$$$
untitled-dbase-1579_2
  -OEChem-06042309053D

 24 24  0     0  0  0  0  0  0999 V2000
   -5.5894   10.4636  -32.8401 C   0  0  0  0  0  0  0  0  0  0  0  0
   -5.2354   11.3883  -31.8577 C   0  0  0  0  0  0  0  0  0  0  0  0
   -6.5105    9.4568  -32.5509 C   0  0  0  0  0  0  0  0  0  0  0  0
   -5.8024   11.3062  -30.5859 C   0  0  0  0  0  0  0  0  0  0  0  0
   -6.7235   10.2994  -30.2966 C   0  0  0  0  0  0  0  0  0  0  0  0
   -7.0775    9.3747  -31.2791 C   0  0  0  0  0  0  0  0  0  0  0  0
   -4.4988   13.2122  -30.0173 C   0  0  0  0  0  0  0  0  0  0  0  0
   -5.9251    7.2797  -33.6293 C   0  0  0  0  0  0  0  0  0  0  0  0
   -6.8569    8.4920  -33.6391 C   0  0  0  0  0  0  0  0  0  0  0  0
   -7.2646   10.2400  -29.0452 O   0  0  0  0  0  0  0  0  0  0  0  0
   -6.3067    6.3837  -34.6668 O   0  0  0  0  0  0  0  0  0  0  0  0
   -5.4466   12.2167  -29.6370 O   0  0  0  0  0  0  0  0  0  0  0  0
   -8.1420    8.0256  -33.5423 F   0  0  0  0  0  0  0  0  0  0  0  0
   -6.7874    9.0558  -34.8865 F   0  0  0  0  0  0  0  0  0  0  0  0
   -8.3421    8.0096  -30.8786 Br  0  0  0  0  0  0  0  0  0  0  0  0
   -5.1417   10.5372  -33.8278 H   0  0  0  0  0  0  0  0  0  0  0  0
   -4.5181   12.1708  -32.0901 H   0  0  0  0  0  0  0  0  0  0  0  0
   -4.3033   13.8731  -29.1693 H   0  0  0  0  0  0  0  0  0  0  0  0
   -4.8918   13.7882  -30.8588 H   0  0  0  0  0  0  0  0  0  0  0  0
   -3.5692   12.7221  -30.3162 H   0  0  0  0  0  0  0  0  0  0  0  0
   -5.9889    6.7430  -32.6772 H   0  0  0  0  0  0  0  0  0  0  0  0
   -4.8874    7.5808  -33.8064 H   0  0  0  0  0  0  0  0  0  0  0  0
   -6.9092   10.9543  -28.4948 H   0  0  0  0  0  0  0  0  0  0  0  0
   -7.2219    6.1186  -34.4831 H   0  0  0  0  0  0  0  0  0  0  0  0
  1  2  1  0  0  0  0
  1  3  2  0  0  0  0
  2  4  2  0  0  0  0
  3  6  1  0  0  0  0
  3  9  1  0  0  0  0
  4  5  1  0  0  0  0
  4 12  1  0  0  0  0
  5  6  2  0  0  0  0
  5 10  1  0  0  0  0
  6 15  1  0  0  0  0
  7 12  1  0  0  0  0
  8  9  1  0  0  0  0
  8 11  1  0  0  0  0
  9 13  1  0  0  0  0
  9 14  1  0  0  0  0
  1 16  1  0  0  0  0
  2 17  1  0  0  0  0
  7 18  1  0  0  0  0
  7 19  1  0  0  0  0
  7 20  1  0  0  0  0
  8 21  1  0  0  0  0
  8 22  1  0  0  0  0
 10 23  1  0  0  0  0
 11 24  1  0  0  0  0
M  END
> <id>
EN300-1965402

> <smiles>
COC=1C=CC(=C(Br)C1O)C(F)(F)CO

> <IUPAC Name>
2-bromo-3-(1,1-difluoro-2-hydroxyethyl)-6-methoxyphenol

> <CAS>
2228381-22-2

> <URL>
https://www.enaminestore.com/catalog/EN300-1965402

> <ROCS_ShapeQuery>
_x1604L0AP1_x0771L0AP1

> <ROCS_TanimotoCombo>
0.908 

> <ROCS_ShapeTanimoto>
0.538 

> <ROCS_ColorTanimoto>
0.370 

> <ROCS_RefTversky>
0.496 

> <ROCS_RefColorTversky>
0.440 

> <ROCS_RefTverskyCombo>
0.936 

> <ROCS_FitTversky>
1.191 

> <ROCS_FitColorTversky>
0.698 

> <ROCS_FitTverskyCombo>
1.889 

> <ROCS_ColorScore>
-5.049

> <ROCS_Overlap>
842.761

> <ROCS_Rank>
199                 

$$$$
untitled-dbase-47_0
  -OEChem-06042309053D

 16 16  0     0  0  0  0  0  0999 V2000
   -4.5773   12.4796  -29.8612 C   0  0  0  0  0  0  0  0  0  0  0  0
   -5.0643   11.1293  -31.8045 C   0  0  0  0  0  0  0  0  0  0  0  0
   -4.3332   12.1484  -31.1939 C   0  0  0  0  0  0  0  0  0  0  0  0
   -6.2835   10.7727  -29.7493 C   0  0  0  0  0  0  0  0  0  0  0  0
   -5.5524   11.7917  -29.1388 C   0  0  0  0  0  0  0  0  0  0  0  0
   -6.0395   10.4415  -31.0822 C   0  0  0  0  0  0  0  0  0  0  0  0
   -3.2912   12.8845  -31.9664 C   0  0  0  0  0  0  0  0  0  0  0  0
   -7.2393   10.1037  -29.0401 O   0  0  0  0  0  0  0  0  0  0  0  0
   -5.8294   12.2255  -27.4919 Cl  0  0  0  0  0  0  0  0  0  0  0  0
   -7.0130    9.0645  -31.9497 Br  0  0  0  0  0  0  0  0  0  0  0  0
   -4.0040   13.2758  -29.3914 H   0  0  0  0  0  0  0  0  0  0  0  0
   -4.8672   10.8779  -32.8443 H   0  0  0  0  0  0  0  0  0  0  0  0
   -2.3185   12.3880  -31.8647 H   0  0  0  0  0  0  0  0  0  0  0  0
   -3.5467   12.9343  -33.0328 H   0  0  0  0  0  0  0  0  0  0  0  0
   -3.1920   13.9198  -31.6150 H   0  0  0  0  0  0  0  0  0  0  0  0
   -7.2872   10.4518  -28.1370 H   0  0  0  0  0  0  0  0  0  0  0  0
  1  3  2  0  0  0  0
  1  5  1  0  0  0  0
  2  3  1  0  0  0  0
  2  6  2  0  0  0  0
  3  7  1  0  0  0  0
  4  5  2  0  0  0  0
  4  6  1  0  0  0  0
  4  8  1  0  0  0  0
  5  9  1  0  0  0  0
  6 10  1  0  0  0  0
  1 11  1  0  0  0  0
  2 12  1  0  0  0  0
  7 13  1  0  0  0  0
  7 14  1  0  0  0  0
  7 15  1  0  0  0  0
  8 16  1  0  0  0  0
M  END
> <id>
EN300-203031

> <smiles>
CC=1C=C(Cl)C(O)=C(Br)C1

> <MDLNUMBER>
MFCD22414716

> <IUPAC Name>
2-bromo-6-chloro-4-methylphenol

> <CAS>
57018-10-7

> <Purity>
95

> <URL>
https://www.enaminestore.com/catalog/EN300-203031

> <ROCS_ShapeQuery>
_x1604L0AP1_x0771L0AP1

> <ROCS_TanimotoCombo>
0.908 

> <ROCS_ShapeTanimoto>
0.457 

> <ROCS_ColorTanimoto>
0.451 

> <ROCS_RefTversky>
0.402 

> <ROCS_RefColorTversky>
0.431 

> <ROCS_RefTverskyCombo>
0.834 

> <ROCS_FitTversky>
1.424 

> <ROCS_FitColorTversky>
1.113 

> <ROCS_FitTverskyCombo>
2.538 

> <ROCS_ColorScore>
-4.882

> <ROCS_Overlap>
679.005

> <ROCS_Rank>
200                 

$$$$
untitled-dbase-712_47
  -OEChem-06042309053D

 22 22  0     0  0  0  0  0  0999 V2000
   -5.0864   11.2312  -31.8640 C   0  0  0  0  0  0  0  0  0  0  0  0
   -4.4987   12.3827  -29.8230 C   0  0  0  0  0  0  0  0  0  0  0  0
   -6.0696   10.5179  -31.1785 C   0  0  0  0  0  0  0  0  0  0  0  0
   -6.2675   10.7370  -29.8152 C   0  0  0  0  0  0  0  0  0  0  0  0
   -4.3008   12.1636  -31.1862 C   0  0  0  0  0  0  0  0  0  0  0  0
   -5.4821   11.6694  -29.1374 C   0  0  0  0  0  0  0  0  0  0  0  0
   -6.8748    9.5503  -31.9126 C   0  0  0  0  0  0  0  0  0  0  0  0
   -6.4115    8.8519  -32.9440 C   0  0  0  0  0  0  0  0  0  0  0  0
   -7.2506    7.8452  -33.6652 C   0  0  0  0  0  0  0  0  0  0  0  0
   -6.4027    6.7969  -34.1580 N   0  0  0  0  0  0  0  0  0  0  0  0
   -7.2318   10.0355  -29.1490 O   0  0  0  0  0  0  0  0  0  0  0  0
   -3.0875   13.0437  -32.0321 Cl  0  0  0  0  0  0  0  0  0  0  0  0
   -5.7197   11.9964  -27.2848 Br  0  0  0  0  0  0  0  0  0  0  0  0
   -4.9300   11.0627  -32.9278 H   0  0  0  0  0  0  0  0  0  0  0  0
   -3.8835   13.1108  -29.2980 H   0  0  0  0  0  0  0  0  0  0  0  0
   -7.8789    9.3954  -31.5552 H   0  0  0  0  0  0  0  0  0  0  0  0
   -5.3893    8.9555  -33.2988 H   0  0  0  0  0  0  0  0  0  0  0  0
   -7.9805    7.3985  -32.9838 H   0  0  0  0  0  0  0  0  0  0  0  0
   -7.7849    8.2719  -34.5193 H   0  0  0  0  0  0  0  0  0  0  0  0
   -6.4750    6.7476  -35.1547 H   0  0  0  0  0  0  0  0  0  0  0  0
   -5.4538    6.9859  -33.9030 H   0  0  0  0  0  0  0  0  0  0  0  0
   -7.2473   10.2971  -28.2163 H   0  0  0  0  0  0  0  0  0  0  0  0
  1  3  2  0  0  0  0
  1  5  1  0  0  0  0
  2  5  2  0  0  0  0
  2  6  1  0  0  0  0
  3  4  1  0  0  0  0
  3  7  1  0  0  0  0
  4  6  2  0  0  0  0
  4 11  1  0  0  0  0
  5 12  1  0  0  0  0
  6 13  1  0  0  0  0
  7  8  2  3  0  0  0
  8  9  1  0  0  0  0
  9 10  1  0  0  0  0
  1 14  1  0  0  0  0
  2 15  1  0  0  0  0
  7 16  1  0  0  0  0
  8 17  1  0  0  0  0
  9 18  1  0  0  0  0
  9 19  1  0  0  0  0
 10 20  1  0  0  0  0
 10 21  1  0  0  0  0
 11 22  1  0  0  0  0
M  END
> <id>
EN300-1922899

> <smiles>
NCC=CC=1C=C(Cl)C=C(Br)C1O

> <IUPAC Name>
2-(3-aminoprop-1-en-1-yl)-6-bromo-4-chlorophenol

> <CAS>
2229663-28-7

> <URL>
https://www.enaminestore.com/catalog/EN300-1922899

> <ROCS_ShapeQuery>
_x1604L0AP1_x0771L0AP1

> <ROCS_TanimotoCombo>
0.908 

> <ROCS_ShapeTanimoto>
0.552 

> <ROCS_ColorTanimoto>
0.357 

> <ROCS_RefTversky>
0.480 

> <ROCS_RefColorTversky>
0.408 

> <ROCS_RefTverskyCombo>
0.888 

> <ROCS_FitTversky>
1.367 

> <ROCS_FitColorTversky>
0.740 

> <ROCS_FitTverskyCombo>
2.107 

> <ROCS_ColorScore>
-4.653

> <ROCS_Overlap>
814.019

> <ROCS_Rank>
201                 

$$$$
untitled-dbase-1285_44
  -OEChem-06042309053D

 20 20  0     0  0  0  0  0  0999 V2000
   -4.5713   12.4687  -29.8658 C   0  0  0  0  0  0  0  0  0  0  0  0
   -5.0621   11.1223  -31.8109 C   0  0  0  0  0  0  0  0  0  0  0  0
   -5.5488   11.7832  -29.1446 C   0  0  0  0  0  0  0  0  0  0  0  0
   -6.2829   10.7672  -29.7564 C   0  0  0  0  0  0  0  0  0  0  0  0
   -4.3280   12.1383  -31.1990 C   0  0  0  0  0  0  0  0  0  0  0  0
   -6.0396   10.4367  -31.0896 C   0  0  0  0  0  0  0  0  0  0  0  0
   -5.7932   12.1529  -27.7183 C   0  0  0  0  0  0  0  0  0  0  0  0
   -7.2570   12.0451  -27.2627 C   0  0  0  0  0  0  0  0  0  0  0  0
   -7.2360   10.1059  -29.0375 O   0  0  0  0  0  0  0  0  0  0  0  0
   -7.4827   12.5286  -25.5231 S   0  0  0  0  0  0  0  0  0  0  0  0
   -3.1218   12.9847  -32.0886 Cl  0  0  0  0  0  0  0  0  0  0  0  0
   -7.0167    9.0622  -31.9560 Br  0  0  0  0  0  0  0  0  0  0  0  0
   -4.0005   13.2602  -29.3847 H   0  0  0  0  0  0  0  0  0  0  0  0
   -4.8696   10.8680  -32.8508 H   0  0  0  0  0  0  0  0  0  0  0  0
   -5.1546   11.5627  -27.0390 H   0  0  0  0  0  0  0  0  0  0  0  0
   -5.4673   13.1963  -27.5697 H   0  0  0  0  0  0  0  0  0  0  0  0
   -7.8813   12.7097  -27.8688 H   0  0  0  0  0  0  0  0  0  0  0  0
   -7.6371   11.0267  -27.3917 H   0  0  0  0  0  0  0  0  0  0  0  0
   -7.6609    9.4319  -29.5894 H   0  0  0  0  0  0  0  0  0  0  0  0
   -6.6650   11.5977  -25.0143 H   0  0  0  0  0  0  0  0  0  0  0  0
  1  3  2  0  0  0  0
  1  5  1  0  0  0  0
  2  5  2  0  0  0  0
  2  6  1  0  0  0  0
  3  4  1  0  0  0  0
  3  7  1  0  0  0  0
  4  6  2  0  0  0  0
  4  9  1  0  0  0  0
  5 11  1  0  0  0  0
  6 12  1  0  0  0  0
  7  8  1  0  0  0  0
  8 10  1  0  0  0  0
  1 13  1  0  0  0  0
  2 14  1  0  0  0  0
  7 15  1  0  0  0  0
  7 16  1  0  0  0  0
  8 17  1  0  0  0  0
  8 18  1  0  0  0  0
  9 19  1  0  0  0  0
 10 20  1  0  0  0  0
M  END
> <id>
EN300-1922923

> <smiles>
OC=1C(Br)=CC(Cl)=CC1CCS

> <IUPAC Name>
2-bromo-4-chloro-6-(2-sulfanylethyl)phenol

> <CAS>
2229491-54-5

> <URL>
https://www.enaminestore.com/catalog/EN300-1922923

> <ROCS_ShapeQuery>
_x1604L0AP1_x0771L0AP1

> <ROCS_TanimotoCombo>
0.908 

> <ROCS_ShapeTanimoto>
0.457 

> <ROCS_ColorTanimoto>
0.451 

> <ROCS_RefTversky>
0.415 

> <ROCS_RefColorTversky>
0.431 

> <ROCS_RefTverskyCombo>
0.846 

> <ROCS_FitTversky>
1.289 

> <ROCS_FitColorTversky>
1.113 

> <ROCS_FitTverskyCombo>
2.402 

> <ROCS_ColorScore>
-4.881

> <ROCS_Overlap>
701.281

> <ROCS_Rank>
202                 

$$$$
untitled-dbase-1508_0
  -OEChem-06042309053D

 13 13  0     0  0  0  0  0  0999 V2000
   -4.5755   12.4784  -29.8581 C   0  0  0  0  0  0  0  0  0  0  0  0
   -5.0620   11.1296  -31.8025 C   0  0  0  0  0  0  0  0  0  0  0  0
   -6.2836   10.7732  -29.7488 C   0  0  0  0  0  0  0  0  0  0  0  0
   -4.3304   12.1475  -31.1908 C   0  0  0  0  0  0  0  0  0  0  0  0
   -5.5520   11.7912  -29.1371 C   0  0  0  0  0  0  0  0  0  0  0  0
   -6.0386   10.4424  -31.0816 C   0  0  0  0  0  0  0  0  0  0  0  0
   -7.2395   10.1037  -29.0401 O   0  0  0  0  0  0  0  0  0  0  0  0
   -3.3935   12.8083  -31.8835 F   0  0  0  0  0  0  0  0  0  0  0  0
   -5.8298   12.2264  -27.4906 Cl  0  0  0  0  0  0  0  0  0  0  0  0
   -7.0116    9.0661  -31.9505 Br  0  0  0  0  0  0  0  0  0  0  0  0
   -3.9975   13.2748  -29.3961 H   0  0  0  0  0  0  0  0  0  0  0  0
   -4.8570   10.8854  -32.8418 H   0  0  0  0  0  0  0  0  0  0  0  0
   -7.2869   10.4508  -28.1366 H   0  0  0  0  0  0  0  0  0  0  0  0
  1  4  2  0  0  0  0
  1  5  1  0  0  0  0
  2  4  1  0  0  0  0
  2  6  2  0  0  0  0
  3  5  2  0  0  0  0
  3  6  1  0  0  0  0
  3  7  1  0  0  0  0
  4  8  1  0  0  0  0
  5  9  1  0  0  0  0
  6 10  1  0  0  0  0
  1 11  1  0  0  0  0
  2 12  1  0  0  0  0
  7 13  1  0  0  0  0
M  END
> <id>
EN300-1238568

> <smiles>
OC=1C(Cl)=CC(F)=CC1Br

> <MDLNUMBER>
MFCD04115954

> <IUPAC Name>
2-bromo-6-chloro-4-fluorophenol

> <CAS>
886499-83-8

> <Purity>
95

> <URL>
https://www.enaminestore.com/catalog/EN300-1238568

> <ROCS_ShapeQuery>
_x1604L0AP1_x0771L0AP1

> <ROCS_TanimotoCombo>
0.908 

> <ROCS_ShapeTanimoto>
0.457 

> <ROCS_ColorTanimoto>
0.451 

> <ROCS_RefTversky>
0.403 

> <ROCS_RefColorTversky>
0.431 

> <ROCS_RefTverskyCombo>
0.834 

> <ROCS_FitTversky>
1.413 

> <ROCS_FitColorTversky>
1.113 

> <ROCS_FitTverskyCombo>
2.526 

> <ROCS_ColorScore>
-4.882

> <ROCS_Overlap>
680.304

> <ROCS_Rank>
203                 

$$$$
untitled-dbase-55_0
  -OEChem-06042309053D

 13 13  0     0  0  0  0  0  0999 V2000
   -4.5741   12.4762  -29.8574 C   0  0  0  0  0  0  0  0  0  0  0  0
   -5.0592   11.1262  -31.8014 C   0  0  0  0  0  0  0  0  0  0  0  0
   -6.2839   10.7727  -29.7491 C   0  0  0  0  0  0  0  0  0  0  0  0
   -4.3275   12.1439  -31.1895 C   0  0  0  0  0  0  0  0  0  0  0  0
   -5.5523   11.7905  -29.1372 C   0  0  0  0  0  0  0  0  0  0  0  0
   -6.0374   10.4405  -31.0812 C   0  0  0  0  0  0  0  0  0  0  0  0
   -7.2402   10.1036  -29.0404 O   0  0  0  0  0  0  0  0  0  0  0  0
   -3.1224   12.9919  -32.0789 Cl  0  0  0  0  0  0  0  0  0  0  0  0
   -5.8319   12.2244  -27.4904 Cl  0  0  0  0  0  0  0  0  0  0  0  0
   -7.0107    9.0644  -31.9499 Br  0  0  0  0  0  0  0  0  0  0  0  0
   -4.0027   13.2707  -29.3818 H   0  0  0  0  0  0  0  0  0  0  0  0
   -4.8642   10.8706  -32.8407 H   0  0  0  0  0  0  0  0  0  0  0  0
   -7.2878   10.4509  -28.1370 H   0  0  0  0  0  0  0  0  0  0  0  0
  1  4  2  0  0  0  0
  1  5  1  0  0  0  0
  2  4  1  0  0  0  0
  2  6  2  0  0  0  0
  3  5  2  0  0  0  0
  3  6  1  0  0  0  0
  3  7  1  0  0  0  0
  4  8  1  0  0  0  0
  5  9  1  0  0  0  0
  6 10  1  0  0  0  0
  1 11  1  0  0  0  0
  2 12  1  0  0  0  0
  7 13  1  0  0  0  0
M  END
> <id>
EN300-212292

> <smiles>
OC=1C(Cl)=CC(Cl)=CC1Br

> <MDLNUMBER>
MFCD00474518

> <IUPAC Name>
2-bromo-4,6-dichlorophenol

> <CAS>
4524-77-0

> <Purity>
95

> <URL>
https://www.enaminestore.com/catalog/EN300-212292

> <MP>
67-71

> <ROCS_ShapeQuery>
_x1604L0AP1_x0771L0AP1

> <ROCS_TanimotoCombo>
0.908 

> <ROCS_ShapeTanimoto>
0.457 

> <ROCS_ColorTanimoto>
0.451 

> <ROCS_RefTversky>
0.401 

> <ROCS_RefColorTversky>
0.431 

> <ROCS_RefTverskyCombo>
0.832 

> <ROCS_FitTversky>
1.438 

> <ROCS_FitColorTversky>
1.113 

> <ROCS_FitTverskyCombo>
2.551 

> <ROCS_ColorScore>
-4.882

> <ROCS_Overlap>
676.640

> <ROCS_Rank>
204                 

$$$$
untitled-dbase-1258_86
  -OEChem-06042309053D

 22 22  0     0  0  0  0  0  0999 V2000
   -4.9087   11.7372  -31.5545 C   0  0  0  0  0  0  0  0  0  0  0  0
   -4.4372   12.4867  -29.3067 C   0  0  0  0  0  0  0  0  0  0  0  0
   -5.9264   10.9170  -31.0676 C   0  0  0  0  0  0  0  0  0  0  0  0
   -6.1995   10.8816  -29.7002 C   0  0  0  0  0  0  0  0  0  0  0  0
   -4.1640   12.5221  -30.6741 C   0  0  0  0  0  0  0  0  0  0  0  0
   -5.4549   11.6665  -28.8197 C   0  0  0  0  0  0  0  0  0  0  0  0
   -7.2224    8.9161  -31.6421 C   0  0  0  0  0  0  0  0  0  0  0  0
   -6.6875   10.1082  -32.0109 C   0  0  0  0  0  0  0  0  0  0  0  0
   -6.9352   10.6215  -33.4183 C   0  0  0  0  0  0  0  0  0  0  0  0
   -7.0646    9.5098  -34.3224 N   0  0  0  0  0  0  0  0  0  0  0  0
   -7.1972   10.0764  -29.2290 O   0  0  0  0  0  0  0  0  0  0  0  0
   -2.9083   13.5342  -31.2750 Cl  0  0  0  0  0  0  0  0  0  0  0  0
   -5.7949   11.6469  -26.9543 Br  0  0  0  0  0  0  0  0  0  0  0  0
   -4.6936   11.7673  -32.6210 H   0  0  0  0  0  0  0  0  0  0  0  0
   -3.8536   13.1003  -28.6232 H   0  0  0  0  0  0  0  0  0  0  0  0
   -7.8057    8.3104  -32.3288 H   0  0  0  0  0  0  0  0  0  0  0  0
   -7.0971    8.5244  -30.6377 H   0  0  0  0  0  0  0  0  0  0  0  0
   -7.8578   11.2059  -33.5029 H   0  0  0  0  0  0  0  0  0  0  0  0
   -6.1147   11.2550  -33.7674 H   0  0  0  0  0  0  0  0  0  0  0  0
   -7.8587    8.9611  -34.0629 H   0  0  0  0  0  0  0  0  0  0  0  0
   -7.1844    9.8519  -35.2538 H   0  0  0  0  0  0  0  0  0  0  0  0
   -7.2646   10.1611  -28.2662 H   0  0  0  0  0  0  0  0  0  0  0  0
  1  3  2  0  0  0  0
  1  5  1  0  0  0  0
  2  5  2  0  0  0  0
  2  6  1  0  0  0  0
  3  4  1  0  0  0  0
  3  8  1  0  0  0  0
  4  6  2  0  0  0  0
  4 11  1  0  0  0  0
  5 12  1  0  0  0  0
  6 13  1  0  0  0  0
  7  8  2  0  0  0  0
  8  9  1  0  0  0  0
  9 10  1  0  0  0  0
  1 14  1  0  0  0  0
  2 15  1  0  0  0  0
  7 16  1  0  0  0  0
  7 17  1  0  0  0  0
  9 18  1  0  0  0  0
  9 19  1  0  0  0  0
 10 20  1  0  0  0  0
 10 21  1  0  0  0  0
 11 22  1  0  0  0  0
M  END
> <id>
EN300-1922896

> <smiles>
NCC(=C)C=1C=C(Cl)C=C(Br)C1O

> <IUPAC Name>
2-(3-aminoprop-1-en-2-yl)-6-bromo-4-chlorophenol

> <CAS>
2229295-57-0

> <URL>
https://www.enaminestore.com/catalog/EN300-1922896

> <ROCS_ShapeQuery>
_x1604L0AP1_x0771L0AP1

> <ROCS_TanimotoCombo>
0.908 

> <ROCS_ShapeTanimoto>
0.585 

> <ROCS_ColorTanimoto>
0.323 

> <ROCS_RefTversky>
0.500 

> <ROCS_RefColorTversky>
0.398 

> <ROCS_RefTverskyCombo>
0.898 

> <ROCS_FitTversky>
1.409 

> <ROCS_FitColorTversky>
0.631 

> <ROCS_FitTverskyCombo>
2.040 

> <ROCS_ColorScore>
-4.568

> <ROCS_Overlap>
846.910

> <ROCS_Rank>
205                 

$$$$
untitled-dbase-382_47
  -OEChem-06042309053D

 26 26  0     1  0  0  0  0  0999 V2000
   -5.7756   10.0939  -34.7397 C   0  0  0  0  0  0  0  0  0  0  0  0
   -6.3470   10.5184  -33.5402 C   0  0  0  0  0  0  0  0  0  0  0  0
   -5.7876    8.7406  -35.0776 C   0  0  0  0  0  0  0  0  0  0  0  0
   -6.9304    9.5897  -32.6785 C   0  0  0  0  0  0  0  0  0  0  0  0
   -6.3711    7.8118  -34.2159 C   0  0  0  0  0  0  0  0  0  0  0  0
   -6.9425    8.2363  -33.0163 C   0  0  0  0  0  0  0  0  0  0  0  0
   -5.6585   11.3677  -30.3115 C   0  0  0  0  0  0  0  0  0  0  0  0
   -4.0087   12.4499  -31.6176 C   0  0  0  0  0  0  0  0  0  0  0  0
   -7.5348   10.1006  -31.3924 C   0  0  0  0  0  0  0  0  0  0  0  0
   -6.5191   10.1206  -30.2479 C   0  0  2  0  0  0  0  0  0  0  0  0
   -5.6449   12.2476  -29.4606 O   0  0  0  0  0  0  0  0  0  0  0  0
   -6.3634    6.4977  -34.5792 O   0  0  0  0  0  0  0  0  0  0  0  0
   -7.2216   10.1441  -29.0119 O   0  0  0  0  0  0  0  0  0  0  0  0
   -4.8934   11.3387  -31.4424 O   0  0  0  0  0  0  0  0  0  0  0  0
   -7.7358    6.9601  -31.8489 Br  0  0  0  0  0  0  0  0  0  0  0  0
   -5.3208   10.8171  -35.4105 H   0  0  0  0  0  0  0  0  0  0  0  0
   -6.3318   11.5754  -33.2869 H   0  0  0  0  0  0  0  0  0  0  0  0
   -5.3399    8.4176  -36.0136 H   0  0  0  0  0  0  0  0  0  0  0  0
   -3.4477   12.3269  -32.5472 H   0  0  0  0  0  0  0  0  0  0  0  0
   -3.3214   12.5068  -30.7697 H   0  0  0  0  0  0  0  0  0  0  0  0
   -4.5977   13.3686  -31.6689 H   0  0  0  0  0  0  0  0  0  0  0  0
   -8.3947    9.4728  -31.1233 H   0  0  0  0  0  0  0  0  0  0  0  0
   -7.9416   11.1029  -31.5773 H   0  0  0  0  0  0  0  0  0  0  0  0
   -5.8673    9.2398  -30.2509 H   0  0  0  0  0  0  0  0  0  0  0  0
   -6.7970    5.9604  -33.8983 H   0  0  0  0  0  0  0  0  0  0  0  0
   -6.5515   10.1531  -28.3096 H   0  0  0  0  0  0  0  0  0  0  0  0
  1  2  1  0  0  0  0
  1  3  2  0  0  0  0
  2  4  2  0  0  0  0
  3  5  1  0  0  0  0
  4  6  1  0  0  0  0
  4  9  1  0  0  0  0
  5  6  2  0  0  0  0
  5 12  1  0  0  0  0
  6 15  1  0  0  0  0
  7 10  1  0  0  0  0
  7 11  2  0  0  0  0
  7 14  1  0  0  0  0
  8 14  1  0  0  0  0
  9 10  1  0  0  0  0
 10 13  1  0  0  0  0
  1 16  1  0  0  0  0
  2 17  1  0  0  0  0
  3 18  1  0  0  0  0
  8 19  1  0  0  0  0
  8 20  1  0  0  0  0
  8 21  1  0  0  0  0
  9 22  1  0  0  0  0
  9 23  1  0  0  0  0
 10 24  1  0  0  0  0
 12 25  1  0  0  0  0
 13 26  1  0  0  0  0
M  END
> <id>
EN300-1904583

> <smiles>
COC(=O)C(O)CC=1C=CC=C(O)C1Br

> <IUPAC Name>
methyl 3-(2-bromo-3-hydroxyphenyl)-2-hydroxypropanoate

> <CAS>
2228321-26-2

> <URL>
https://www.enaminestore.com/catalog/EN300-1904583

> <ROCS_ShapeQuery>
_x1604L0AP1_x0771L0AP1

> <ROCS_TanimotoCombo>
0.908 

> <ROCS_ShapeTanimoto>
0.551 

> <ROCS_ColorTanimoto>
0.357 

> <ROCS_RefTversky>
0.500 

> <ROCS_RefColorTversky>
0.429 

> <ROCS_RefTverskyCombo>
0.929 

> <ROCS_FitTversky>
1.229 

> <ROCS_FitColorTversky>
0.680 

> <ROCS_FitTverskyCombo>
1.909 

> <ROCS_ColorScore>
-4.918

> <ROCS_Overlap>
848.977

> <ROCS_Rank>
206                 

$$$$
untitled-dbase-294_428
  -OEChem-06042309053D

 22 22  0     0  0  0  0  0  0999 V2000
   -4.2973   12.4176  -30.9351 C   0  0  0  0  0  0  0  0  0  0  0  0
   -4.9906   11.4971  -31.7209 C   0  0  0  0  0  0  0  0  0  0  0  0
   -4.5788   12.5238  -29.5731 C   0  0  0  0  0  0  0  0  0  0  0  0
   -5.9657   10.6829  -31.1447 C   0  0  0  0  0  0  0  0  0  0  0  0
   -6.2473   10.7892  -29.7827 C   0  0  0  0  0  0  0  0  0  0  0  0
   -5.5539   11.7097  -28.9969 C   0  0  0  0  0  0  0  0  0  0  0  0
   -6.3141    8.0136  -33.8685 C   0  0  0  0  0  0  0  0  0  0  0  0
   -5.7322    8.6980  -32.6503 C   0  0  0  0  0  0  0  0  0  0  0  0
   -6.6969    9.7050  -32.0045 C   0  0  0  0  0  0  0  0  0  0  0  0
   -6.5012    6.8111  -33.9892 O   0  0  0  0  0  0  0  0  0  0  0  0
   -7.2052    9.9868  -29.2339 O   0  0  0  0  0  0  0  0  0  0  0  0
   -6.6149    8.9114  -34.8437 O   0  0  0  0  0  0  0  0  0  0  0  0
   -7.6384    8.9929  -31.3062 F   0  0  0  0  0  0  0  0  0  0  0  0
   -7.4005   10.3143  -33.0119 F   0  0  0  0  0  0  0  0  0  0  0  0
   -5.9066   11.8837  -27.1423 Br  0  0  0  0  0  0  0  0  0  0  0  0
   -3.5377   13.0513  -31.3836 H   0  0  0  0  0  0  0  0  0  0  0  0
   -4.7632   11.4192  -32.7807 H   0  0  0  0  0  0  0  0  0  0  0  0
   -4.0278   13.2467  -28.9766 H   0  0  0  0  0  0  0  0  0  0  0  0
   -4.8190    9.2154  -32.9671 H   0  0  0  0  0  0  0  0  0  0  0  0
   -5.4757    7.9175  -31.9244 H   0  0  0  0  0  0  0  0  0  0  0  0
   -7.2908   10.1712  -28.2862 H   0  0  0  0  0  0  0  0  0  0  0  0
   -6.9967    8.5234  -35.6601 H   0  0  0  0  0  0  0  0  0  0  0  0
  1  2  1  0  0  0  0
  1  3  2  0  0  0  0
  2  4  2  0  0  0  0
  3  6  1  0  0  0  0
  4  5  1  0  0  0  0
  4  9  1  0  0  0  0
  5  6  2  0  0  0  0
  5 11  1  0  0  0  0
  6 15  1  0  0  0  0
  7  8  1  0  0  0  0
  7 10  2  0  0  0  0
  7 12  1  0  0  0  0
  8  9  1  0  0  0  0
  9 13  1  0  0  0  0
  9 14  1  0  0  0  0
  1 16  1  0  0  0  0
  2 17  1  0  0  0  0
  3 18  1  0  0  0  0
  8 19  1  0  0  0  0
  8 20  1  0  0  0  0
 11 21  1  0  0  0  0
 12 22  1  0  0  0  0
M  END
> <id>
EN300-1963221

> <smiles>
OC(=O)CC(F)(F)C=1C=CC=C(Br)C1O

> <IUPAC Name>
3-(3-bromo-2-hydroxyphenyl)-3,3-difluoropropanoic acid

> <CAS>
2228657-71-2

> <URL>
https://www.enaminestore.com/catalog/EN300-1963221

> <ROCS_ShapeQuery>
_x1604L0AP1_x0771L0AP1

> <ROCS_TanimotoCombo>
0.908 

> <ROCS_ShapeTanimoto>
0.599 

> <ROCS_ColorTanimoto>
0.309 

> <ROCS_RefTversky>
0.531 

> <ROCS_RefColorTversky>
0.385 

> <ROCS_RefTverskyCombo>
0.916 

> <ROCS_FitTversky>
1.270 

> <ROCS_FitColorTversky>
0.610 

> <ROCS_FitTverskyCombo>
1.880 

> <ROCS_ColorScore>
-4.417

> <ROCS_Overlap>
902.990

> <ROCS_Rank>
207                 

$$$$
untitled-dbase-753_38
  -OEChem-06042309053D

 21 21  0     0  0  0  0  0  0999 V2000
   -4.3232   12.1424  -31.2321 C   0  0  0  0  0  0  0  0  0  0  0  0
   -5.0379   11.1195  -31.8552 C   0  0  0  0  0  0  0  0  0  0  0  0
   -4.5829   12.4632  -29.8996 C   0  0  0  0  0  0  0  0  0  0  0  0
   -6.0124   10.4174  -31.1461 C   0  0  0  0  0  0  0  0  0  0  0  0
   -6.2722   10.7381  -29.8136 C   0  0  0  0  0  0  0  0  0  0  0  0
   -5.5574   11.7610  -29.1904 C   0  0  0  0  0  0  0  0  0  0  0  0
   -6.8826    7.8410  -33.8845 C   0  0  0  0  0  0  0  0  0  0  0  0
   -6.7667    9.3267  -31.8329 C   0  0  0  0  0  0  0  0  0  0  0  0
   -6.1286    8.9354  -33.1682 C   0  0  0  0  0  0  0  0  0  0  0  0
   -6.4018    6.7635  -34.2185 O   0  0  0  0  0  0  0  0  0  0  0  0
   -7.2298   10.0432  -29.1336 O   0  0  0  0  0  0  0  0  0  0  0  0
   -5.8800   12.2264  -27.3812 Br  0  0  0  0  0  0  0  0  0  0  0  0
   -3.5640   12.6889  -31.7840 H   0  0  0  0  0  0  0  0  0  0  0  0
   -4.8275   10.8746  -32.8929 H   0  0  0  0  0  0  0  0  0  0  0  0
   -4.0154   13.2631  -29.4307 H   0  0  0  0  0  0  0  0  0  0  0  0
   -7.9397    8.0716  -34.1025 H   0  0  0  0  0  0  0  0  0  0  0  0
   -6.8329    8.4412  -31.1798 H   0  0  0  0  0  0  0  0  0  0  0  0
   -7.8124    9.6341  -31.9975 H   0  0  0  0  0  0  0  0  0  0  0  0
   -5.1029    8.5815  -33.0144 H   0  0  0  0  0  0  0  0  0  0  0  0
   -6.0861    9.7994  -33.8410 H   0  0  0  0  0  0  0  0  0  0  0  0
   -7.2991   10.3741  -28.2252 H   0  0  0  0  0  0  0  0  0  0  0  0
  1  2  1  0  0  0  0
  1  3  2  0  0  0  0
  2  4  2  0  0  0  0
  3  6  1  0  0  0  0
  4  5  1  0  0  0  0
  4  8  1  0  0  0  0
  5  6  2  0  0  0  0
  5 11  1  0  0  0  0
  6 12  1  0  0  0  0
  7  9  1  0  0  0  0
  7 10  2  0  0  0  0
  8  9  1  0  0  0  0
  1 13  1  0  0  0  0
  2 14  1  0  0  0  0
  3 15  1  0  0  0  0
  7 16  1  0  0  0  0
  8 17  1  0  0  0  0
  8 18  1  0  0  0  0
  9 19  1  0  0  0  0
  9 20  1  0  0  0  0
 11 21  1  0  0  0  0
M  END
> <id>
EN300-1894720

> <smiles>
OC=1C(Br)=CC=CC1CCC=O

> <MDLNUMBER>
MFCD18391532

> <IUPAC Name>
3-(3-bromo-2-hydroxyphenyl)propanal

> <CAS>
1261756-85-7

> <URL>
https://www.enaminestore.com/catalog/EN300-1894720

> <ROCS_ShapeQuery>
_x1604L0AP1_x0771L0AP1

> <ROCS_TanimotoCombo>
0.908 

> <ROCS_ShapeTanimoto>
0.515 

> <ROCS_ColorTanimoto>
0.393 

> <ROCS_RefTversky>
0.453 

> <ROCS_RefColorTversky>
0.414 

> <ROCS_RefTverskyCombo>
0.867 

> <ROCS_FitTversky>
1.366 

> <ROCS_FitColorTversky>
0.883 

> <ROCS_FitTverskyCombo>
2.248 

> <ROCS_ColorScore>
-4.708

> <ROCS_Overlap>
766.040

> <ROCS_Rank>
208                 

$$$$
untitled-dbase-45_0
  -OEChem-06042309053D

 13 13  0     0  0  0  0  0  0999 V2000
   -5.7126   11.7951  -28.9727 C   0  0  0  0  0  0  0  0  0  0  0  0
   -4.8896   11.2319  -31.5781 C   0  0  0  0  0  0  0  0  0  0  0  0
   -6.3322   10.7751  -29.6946 C   0  0  0  0  0  0  0  0  0  0  0  0
   -4.6816   12.5336  -29.5535 C   0  0  0  0  0  0  0  0  0  0  0  0
   -4.2701   12.2520  -30.8561 C   0  0  0  0  0  0  0  0  0  0  0  0
   -5.9207   10.4934  -30.9973 C   0  0  0  0  0  0  0  0  0  0  0  0
   -7.3365   10.0722  -29.0982 O   0  0  0  0  0  0  0  0  0  0  0  0
   -4.0959   13.5110  -28.8468 F   0  0  0  0  0  0  0  0  0  0  0  0
   -2.9981   13.1603  -31.5778 Cl  0  0  0  0  0  0  0  0  0  0  0  0
   -6.7398    9.1146  -32.0076 Br  0  0  0  0  0  0  0  0  0  0  0  0
   -6.0277   12.0203  -27.9575 H   0  0  0  0  0  0  0  0  0  0  0  0
   -4.5661   11.0149  -32.5939 H   0  0  0  0  0  0  0  0  0  0  0  0
   -7.6782    9.3974  -29.7051 H   0  0  0  0  0  0  0  0  0  0  0  0
  1  3  2  0  0  0  0
  1  4  1  0  0  0  0
  2  5  1  0  0  0  0
  2  6  2  0  0  0  0
  3  6  1  0  0  0  0
  3  7  1  0  0  0  0
  4  5  2  0  0  0  0
  4  8  1  0  0  0  0
  5  9  1  0  0  0  0
  6 10  1  0  0  0  0
  1 11  1  0  0  0  0
  2 12  1  0  0  0  0
  7 13  1  0  0  0  0
M  END
> <id>
EN300-194438

> <smiles>
OC=1C=C(F)C(Cl)=CC1Br

> <MDLNUMBER>
MFCD26895908

> <IUPAC Name>
2-bromo-4-chloro-5-fluorophenol

> <CAS>
157165-23-6

> <Purity>
95

> <URL>
https://www.enaminestore.com/catalog/EN300-194438

> <ROCS_ShapeQuery>
_x1604L0AP1_x0771L0AP1

> <ROCS_TanimotoCombo>
0.907 

> <ROCS_ShapeTanimoto>
0.477 

> <ROCS_ColorTanimoto>
0.431 

> <ROCS_RefTversky>
0.415 

> <ROCS_RefColorTversky>
0.418 

> <ROCS_RefTverskyCombo>
0.833 

> <ROCS_FitTversky>
1.454 

> <ROCS_FitColorTversky>
1.078 

> <ROCS_FitTverskyCombo>
2.532 

> <ROCS_ColorScore>
-4.727

> <ROCS_Overlap>
700.475

> <ROCS_Rank>
209                 

$$$$
untitled-dbase-1160_35
  -OEChem-06042309053D

 30 30  0     0  0  0  0  0  0999 V2000
   -4.2671   12.3155  -31.0244 C   0  0  0  0  0  0  0  0  0  0  0  0
   -4.9454   11.3215  -31.7297 C   0  0  0  0  0  0  0  0  0  0  0  0
   -4.5783   12.5571  -29.6863 C   0  0  0  0  0  0  0  0  0  0  0  0
   -5.9350   10.5692  -31.0970 C   0  0  0  0  0  0  0  0  0  0  0  0
   -6.2463   10.8109  -29.7589 C   0  0  0  0  0  0  0  0  0  0  0  0
   -5.5679   11.8048  -29.0536 C   0  0  0  0  0  0  0  0  0  0  0  0
   -6.4302    8.1160  -31.1969 C   0  0  0  0  0  0  0  0  0  0  0  0
   -8.2063    9.6723  -31.9503 C   0  0  0  0  0  0  0  0  0  0  0  0
   -6.1264    9.3782  -33.3535 C   0  0  0  0  0  0  0  0  0  0  0  0
   -7.0843    8.7410  -34.3615 C   0  0  0  0  0  0  0  0  0  0  0  0
   -6.6718    9.4780  -31.8949 C   0  0  0  0  0  0  0  0  0  0  0  0
   -6.4866    8.6718  -35.6682 N   0  0  0  0  0  0  0  0  0  0  0  0
   -7.2181   10.0676  -29.1542 O   0  0  0  0  0  0  0  0  0  0  0  0
   -5.9609   12.1631  -27.2339 Br  0  0  0  0  0  0  0  0  0  0  0  0
   -3.4962   12.9010  -31.5169 H   0  0  0  0  0  0  0  0  0  0  0  0
   -4.6950   11.1382  -32.7712 H   0  0  0  0  0  0  0  0  0  0  0  0
   -4.0386   13.3356  -29.1529 H   0  0  0  0  0  0  0  0  0  0  0  0
   -6.9372    7.3033  -31.7303 H   0  0  0  0  0  0  0  0  0  0  0  0
   -6.8086    8.1256  -30.1678 H   0  0  0  0  0  0  0  0  0  0  0  0
   -5.3668    7.8566  -31.1527 H   0  0  0  0  0  0  0  0  0  0  0  0
   -8.6903    8.8749  -32.5270 H   0  0  0  0  0  0  0  0  0  0  0  0
   -8.4654   10.6215  -32.4345 H   0  0  0  0  0  0  0  0  0  0  0  0
   -8.6602    9.6809  -30.9538 H   0  0  0  0  0  0  0  0  0  0  0  0
   -5.1926    8.7980  -33.3493 H   0  0  0  0  0  0  0  0  0  0  0  0
   -5.8394   10.3722  -33.7219 H   0  0  0  0  0  0  0  0  0  0  0  0
   -7.3441    7.7174  -34.0787 H   0  0  0  0  0  0  0  0  0  0  0  0
   -8.0073    9.3186  -34.4640 H   0  0  0  0  0  0  0  0  0  0  0  0
   -7.0260    9.2163  -36.3097 H   0  0  0  0  0  0  0  0  0  0  0  0
   -5.5547    9.0307  -35.6263 H   0  0  0  0  0  0  0  0  0  0  0  0
   -7.3240   10.3456  -28.2317 H   0  0  0  0  0  0  0  0  0  0  0  0
  1  2  1  0  0  0  0
  1  3  2  0  0  0  0
  2  4  2  0  0  0  0
  3  6  1  0  0  0  0
  4  5  1  0  0  0  0
  4 11  1  0  0  0  0
  5  6  2  0  0  0  0
  5 13  1  0  0  0  0
  6 14  1  0  0  0  0
  7 11  1  0  0  0  0
  8 11  1  0  0  0  0
  9 10  1  0  0  0  0
  9 11  1  0  0  0  0
 10 12  1  0  0  0  0
  1 15  1  0  0  0  0
  2 16  1  0  0  0  0
  3 17  1  0  0  0  0
  7 18  1  0  0  0  0
  7 19  1  0  0  0  0
  7 20  1  0  0  0  0
  8 21  1  0  0  0  0
  8 22  1  0  0  0  0
  8 23  1  0  0  0  0
  9 24  1  0  0  0  0
  9 25  1  0  0  0  0
 10 26  1  0  0  0  0
 10 27  1  0  0  0  0
 12 28  1  0  0  0  0
 12 29  1  0  0  0  0
 13 30  1  0  0  0  0
M  END
> <id>
EN300-1923107

> <smiles>
CC(C)(CCN)C=1C=CC=C(Br)C1O

> <IUPAC Name>
2-(4-amino-2-methylbutan-2-yl)-6-bromophenol

> <CAS>
2228338-87-0

> <URL>
https://www.enaminestore.com/catalog/EN300-1923107

> <ROCS_ShapeQuery>
_x1604L0AP1_x0771L0AP1

> <ROCS_TanimotoCombo>
0.907 

> <ROCS_ShapeTanimoto>
0.562 

> <ROCS_ColorTanimoto>
0.345 

> <ROCS_RefTversky>
0.495 

> <ROCS_RefColorTversky>
0.418 

> <ROCS_RefTverskyCombo>
0.914 

> <ROCS_FitTversky>
1.317 

> <ROCS_FitColorTversky>
0.663 

> <ROCS_FitTverskyCombo>
1.980 

> <ROCS_ColorScore>
-4.798

> <ROCS_Overlap>
840.286

> <ROCS_Rank>
210                 

$$$$
untitled-dbase-1073_0
  -OEChem-06042309053D

 16 16  0     0  0  0  0  0  0999 V2000
   -5.5737   11.7862  -29.1381 C   0  0  0  0  0  0  0  0  0  0  0  0
   -4.3398   12.1835  -31.1769 C   0  0  0  0  0  0  0  0  0  0  0  0
   -4.5990   12.4936  -29.8419 C   0  0  0  0  0  0  0  0  0  0  0  0
   -6.2891   10.7686  -29.7694 C   0  0  0  0  0  0  0  0  0  0  0  0
   -5.0552   11.1659  -31.8082 C   0  0  0  0  0  0  0  0  0  0  0  0
   -6.0298   10.4585  -31.1044 C   0  0  0  0  0  0  0  0  0  0  0  0
   -3.8347   13.5818  -29.1667 C   0  0  0  0  0  0  0  0  0  0  0  0
   -7.2330   10.1011  -29.0462 O   0  0  0  0  0  0  0  0  0  0  0  0
   -4.6762   10.8411  -33.4646 Cl  0  0  0  0  0  0  0  0  0  0  0  0
   -7.0315    9.0600  -31.9286 Br  0  0  0  0  0  0  0  0  0  0  0  0
   -5.7772   12.0269  -28.0972 H   0  0  0  0  0  0  0  0  0  0  0  0
   -3.5780   12.7407  -31.7175 H   0  0  0  0  0  0  0  0  0  0  0  0
   -2.9294   13.1780  -28.6971 H   0  0  0  0  0  0  0  0  0  0  0  0
   -3.5383   14.3621  -29.8796 H   0  0  0  0  0  0  0  0  0  0  0  0
   -4.4393   14.0721  -28.3925 H   0  0  0  0  0  0  0  0  0  0  0  0
   -7.6562    9.4230  -29.5952 H   0  0  0  0  0  0  0  0  0  0  0  0
  1  3  2  0  0  0  0
  1  4  1  0  0  0  0
  2  3  1  0  0  0  0
  2  5  2  0  0  0  0
  3  7  1  0  0  0  0
  4  6  2  0  0  0  0
  4  8  1  0  0  0  0
  5  6  1  0  0  0  0
  5  9  1  0  0  0  0
  6 10  1  0  0  0  0
  1 11  1  0  0  0  0
  2 12  1  0  0  0  0
  7 13  1  0  0  0  0
  7 14  1  0  0  0  0
  7 15  1  0  0  0  0
  8 16  1  0  0  0  0
M  END
> <id>
EN300-6478405

> <smiles>
CC=1C=C(O)C(Br)=C(Cl)C1

> <MDLNUMBER>
MFCD31667454

> <IUPAC Name>
2-bromo-3-chloro-5-methylphenol

> <CAS>
1780800-51-2

> <Purity>
95

> <URL>
https://www.enaminestore.com/catalog/EN300-6478405

> <ROCS_ShapeQuery>
_x1604L0AP1_x0771L0AP1

> <ROCS_TanimotoCombo>
0.907 

> <ROCS_ShapeTanimoto>
0.455 

> <ROCS_ColorTanimoto>
0.452 

> <ROCS_RefTversky>
0.401 

> <ROCS_RefColorTversky>
0.432 

> <ROCS_RefTverskyCombo>
0.833 

> <ROCS_FitTversky>
1.423 

> <ROCS_FitColorTversky>
1.114 

> <ROCS_FitTverskyCombo>
2.537 

> <ROCS_ColorScore>
-4.885

> <ROCS_Overlap>
677.221

> <ROCS_Rank>
211                 

$$$$
untitled-dbase-1808_0
  -OEChem-06042309053D

 21 21  0     0  0  0  0  0  0999 V2000
   -4.8157   12.6766  -30.1437 C   0  0  0  0  0  0  0  0  0  0  0  0
   -5.0335   11.0043  -31.8736 C   0  0  0  0  0  0  0  0  0  0  0  0
   -5.7828   12.0176  -29.3848 C   0  0  0  0  0  0  0  0  0  0  0  0
   -6.3752   10.8519  -29.8703 C   0  0  0  0  0  0  0  0  0  0  0  0
   -4.4410   12.1700  -31.3881 C   0  0  0  0  0  0  0  0  0  0  0  0
   -6.0006   10.3452  -31.1147 C   0  0  0  0  0  0  0  0  0  0  0  0
   -6.1693   12.5772  -28.0551 C   0  0  0  0  0  0  0  0  0  0  0  0
   -5.5666   11.8118  -26.8716 C   0  0  0  0  0  0  0  0  0  0  0  0
   -5.9709   12.3579  -25.6038 N   0  0  0  0  0  0  0  0  0  0  0  0
   -7.3201   10.2186  -29.1160 O   0  0  0  0  0  0  0  0  0  0  0  0
   -3.2477   12.9838  -32.3243 Cl  0  0  0  0  0  0  0  0  0  0  0  0
   -6.7831    8.7637  -31.8085 Br  0  0  0  0  0  0  0  0  0  0  0  0
   -4.3557   13.5854  -29.7612 H   0  0  0  0  0  0  0  0  0  0  0  0
   -4.7388   10.6127  -32.8448 H   0  0  0  0  0  0  0  0  0  0  0  0
   -7.2674   12.5631  -27.9601 H   0  0  0  0  0  0  0  0  0  0  0  0
   -5.8857   13.6407  -27.9860 H   0  0  0  0  0  0  0  0  0  0  0  0
   -5.8945   10.7676  -26.8845 H   0  0  0  0  0  0  0  0  0  0  0  0
   -4.4722   11.8263  -26.9036 H   0  0  0  0  0  0  0  0  0  0  0  0
   -6.9648   12.2960  -25.5167 H   0  0  0  0  0  0  0  0  0  0  0  0
   -5.5380   11.8405  -24.8662 H   0  0  0  0  0  0  0  0  0  0  0  0
   -7.6400    9.4289  -29.5779 H   0  0  0  0  0  0  0  0  0  0  0  0
  1  3  2  0  0  0  0
  1  5  1  0  0  0  0
  2  5  2  0  0  0  0
  2  6  1  0  0  0  0
  3  4  1  0  0  0  0
  3  7  1  0  0  0  0
  4  6  2  0  0  0  0
  4 10  1  0  0  0  0
  5 11  1  0  0  0  0
  6 12  1  0  0  0  0
  7  8  1  0  0  0  0
  8  9  1  0  0  0  0
  1 13  1  0  0  0  0
  2 14  1  0  0  0  0
  7 15  1  0  0  0  0
  7 16  1  0  0  0  0
  8 17  1  0  0  0  0
  8 18  1  0  0  0  0
  9 19  1  0  0  0  0
  9 20  1  0  0  0  0
 10 21  1  0  0  0  0
M  END
> <id>
EN300-1911646

> <smiles>
NCCC=1C=C(Cl)C=C(Br)C1O

> <MDLNUMBER>
MFCD08448912

> <IUPAC Name>
2-(2-aminoethyl)-6-bromo-4-chlorophenol

> <CAS>
1000575-19-8

> <URL>
https://www.enaminestore.com/catalog/EN300-1911646

> <ROCS_ShapeQuery>
_x1604L0AP1_x0771L0AP1

> <ROCS_TanimotoCombo>
0.907 

> <ROCS_ShapeTanimoto>
0.454 

> <ROCS_ColorTanimoto>
0.453 

> <ROCS_RefTversky>
0.414 

> <ROCS_RefColorTversky>
0.484 

> <ROCS_RefTverskyCombo>
0.898 

> <ROCS_FitTversky>
1.268 

> <ROCS_FitColorTversky>
0.878 

> <ROCS_FitTverskyCombo>
2.147 

> <ROCS_ColorScore>
-5.520

> <ROCS_Overlap>
700.798

> <ROCS_Rank>
212                 

$$$$
untitled-dbase-1906_65
  -OEChem-06042309053D

 23 23  0     0  0  0  0  0  0999 V2000
   -4.5900   12.4755  -29.8120 C   0  0  0  0  0  0  0  0  0  0  0  0
   -5.0516   11.1427  -31.7735 C   0  0  0  0  0  0  0  0  0  0  0  0
   -5.5736   11.7806  -29.1083 C   0  0  0  0  0  0  0  0  0  0  0  0
   -6.2962   10.7666  -29.7372 C   0  0  0  0  0  0  0  0  0  0  0  0
   -4.3290   12.1566  -31.1446 C   0  0  0  0  0  0  0  0  0  0  0  0
   -6.0352   10.4476  -31.0698 C   0  0  0  0  0  0  0  0  0  0  0  0
   -4.1447   10.4185  -27.4980 C   0  0  0  0  0  0  0  0  0  0  0  0
   -5.0662   11.4066  -26.8152 C   0  0  0  0  0  0  0  0  0  0  0  0
   -3.3951   12.9072  -33.4391 O   0  0  0  0  0  0  0  0  0  0  0  0
   -2.9099   14.3093  -31.3749 O   0  0  0  0  0  0  0  0  0  0  0  0
   -7.2542   10.0984  -29.0318 O   0  0  0  0  0  0  0  0  0  0  0  0
   -5.8176   12.1030  -27.8072 O   0  0  0  0  0  0  0  0  0  0  0  0
   -1.7269   12.2509  -31.8201 F   0  0  0  0  0  0  0  0  0  0  0  0
   -3.0977   13.0269  -32.0250 S   0  0  0  0  0  0  0  0  0  0  0  0
   -6.9960    9.0763  -31.9585 Br  0  0  0  0  0  0  0  0  0  0  0  0
   -4.0291   13.2652  -29.3180 H   0  0  0  0  0  0  0  0  0  0  0  0
   -4.8425   10.8996  -32.8128 H   0  0  0  0  0  0  0  0  0  0  0  0
   -4.7161    9.6891  -28.0788 H   0  0  0  0  0  0  0  0  0  0  0  0
   -3.4501   10.9371  -28.1670 H   0  0  0  0  0  0  0  0  0  0  0  0
   -3.5369    9.8844  -26.7601 H   0  0  0  0  0  0  0  0  0  0  0  0
   -4.4884   12.1332  -26.2361 H   0  0  0  0  0  0  0  0  0  0  0  0
   -5.7600   10.8867  -26.1478 H   0  0  0  0  0  0  0  0  0  0  0  0
   -7.3042   10.4445  -28.1278 H   0  0  0  0  0  0  0  0  0  0  0  0
  1  3  2  0  0  0  0
  1  5  1  0  0  0  0
  2  5  2  0  0  0  0
  2  6  1  0  0  0  0
  3  4  1  0  0  0  0
  3 12  1  0  0  0  0
  4  6  2  0  0  0  0
  4 11  1  0  0  0  0
  5 14  1  0  0  0  0
  6 15  1  0  0  0  0
  7  8  1  0  0  0  0
  8 12  1  0  0  0  0
  9 14  2  0  0  0  0
 10 14  2  0  0  0  0
 13 14  1  0  0  0  0
  1 16  1  0  0  0  0
  2 17  1  0  0  0  0
  7 18  1  0  0  0  0
  7 19  1  0  0  0  0
  7 20  1  0  0  0  0
  8 21  1  0  0  0  0
  8 22  1  0  0  0  0
 11 23  1  0  0  0  0
M  END
> <id>
EN300-6493405

> <smiles>
CCOC=1C=C(C=C(Br)C1O)S(=O)(=O)F

> <IUPAC Name>
3-bromo-5-ethoxy-4-hydroxybenzene-1-sulfonyl fluoride

> <CAS>
2247105-97-9

> <URL>
https://www.enaminestore.com/catalog/EN300-6493405

> <ROCS_ShapeQuery>
_x1604L0AP1_x0771L0AP1

> <ROCS_TanimotoCombo>
0.907 

> <ROCS_ShapeTanimoto>
0.492 

> <ROCS_ColorTanimoto>
0.415 

> <ROCS_RefTversky>
0.461 

> <ROCS_RefColorTversky>
0.431 

> <ROCS_RefTverskyCombo>
0.892 

> <ROCS_FitTversky>
1.154 

> <ROCS_FitColorTversky>
0.918 

> <ROCS_FitTverskyCombo>
2.072 

> <ROCS_ColorScore>
-4.898

> <ROCS_Overlap>
783.988

> <ROCS_Rank>
213                 

$$$$
untitled-dbase-952_2
  -OEChem-06042309053D

 16 16  0     0  0  0  0  0  0999 V2000
   -4.5848   12.4773  -29.8619 C   0  0  0  0  0  0  0  0  0  0  0  0
   -5.0670   11.1286  -31.8076 C   0  0  0  0  0  0  0  0  0  0  0  0
   -5.5610   11.7883  -29.1423 C   0  0  0  0  0  0  0  0  0  0  0  0
   -6.2903   10.7694  -29.7554 C   0  0  0  0  0  0  0  0  0  0  0  0
   -4.3378   12.1475  -31.1946 C   0  0  0  0  0  0  0  0  0  0  0  0
   -6.0433   10.4396  -31.0880 C   0  0  0  0  0  0  0  0  0  0  0  0
   -5.8094   12.1574  -27.7167 C   0  0  0  0  0  0  0  0  0  0  0  0
   -7.2422   10.1047  -29.0380 O   0  0  0  0  0  0  0  0  0  0  0  0
   -3.1331   12.9982  -32.0821 Cl  0  0  0  0  0  0  0  0  0  0  0  0
   -4.3350   11.9424  -26.7480 Cl  0  0  0  0  0  0  0  0  0  0  0  0
   -7.0136    9.0612  -31.9559 Br  0  0  0  0  0  0  0  0  0  0  0  0
   -4.0178   13.2710  -29.3800 H   0  0  0  0  0  0  0  0  0  0  0  0
   -4.8716   10.8748  -32.8472 H   0  0  0  0  0  0  0  0  0  0  0  0
   -6.5999   11.5379  -27.2747 H   0  0  0  0  0  0  0  0  0  0  0  0
   -6.1279   13.2034  -27.6235 H   0  0  0  0  0  0  0  0  0  0  0  0
   -7.6636    9.4290  -29.5905 H   0  0  0  0  0  0  0  0  0  0  0  0
  1  3  2  0  0  0  0
  1  5  1  0  0  0  0
  2  5  2  0  0  0  0
  2  6  1  0  0  0  0
  3  4  1  0  0  0  0
  3  7  1  0  0  0  0
  4  6  2  0  0  0  0
  4  8  1  0  0  0  0
  5  9  1  0  0  0  0
  6 11  1  0  0  0  0
  7 10  1  0  0  0  0
  1 12  1  0  0  0  0
  2 13  1  0  0  0  0
  7 14  1  0  0  0  0
  7 15  1  0  0  0  0
  8 16  1  0  0  0  0
M  END
> <id>
EN300-1926028

> <smiles>
OC=1C(Br)=CC(Cl)=CC1CCl

> <MDLNUMBER>
MFCD33417863

> <IUPAC Name>
2-bromo-4-chloro-6-(chloromethyl)phenol

> <CAS>
2090336-59-5

> <URL>
https://www.enaminestore.com/catalog/EN300-1926028

> <ROCS_ShapeQuery>
_x1604L0AP1_x0771L0AP1

> <ROCS_TanimotoCombo>
0.907 

> <ROCS_ShapeTanimoto>
0.456 

> <ROCS_ColorTanimoto>
0.451 

> <ROCS_RefTversky>
0.407 

> <ROCS_RefColorTversky>
0.431 

> <ROCS_RefTverskyCombo>
0.839 

> <ROCS_FitTversky>
1.352 

> <ROCS_FitColorTversky>
1.113 

> <ROCS_FitTverskyCombo>
2.465 

> <ROCS_ColorScore>
-4.881

> <ROCS_Overlap>
688.104

> <ROCS_Rank>
214                 

$$$$
untitled-dbase-1402_0
  -OEChem-06042309053D

 25 25  0     0  0  0  0  0  0999 V2000
   -5.0458   11.1568  -31.7771 C   0  0  0  0  0  0  0  0  0  0  0  0
   -4.5646   12.4923  -29.8221 C   0  0  0  0  0  0  0  0  0  0  0  0
   -6.0258   10.4663  -31.0642 C   0  0  0  0  0  0  0  0  0  0  0  0
   -6.2754   10.7888  -29.7303 C   0  0  0  0  0  0  0  0  0  0  0  0
   -5.5448   11.8019  -29.1092 C   0  0  0  0  0  0  0  0  0  0  0  0
   -4.3151   12.1698  -31.1560 C   0  0  0  0  0  0  0  0  0  0  0  0
   -6.3335    9.2125  -33.2273 C   0  0  0  0  0  0  0  0  0  0  0  0
   -8.3221    9.7015  -31.7635 C   0  0  0  0  0  0  0  0  0  0  0  0
   -6.6703    7.9645  -31.1034 C   0  0  0  0  0  0  0  0  0  0  0  0
   -6.8181    9.3521  -31.7679 C   0  0  0  0  0  0  0  0  0  0  0  0
   -7.2370   10.1040  -29.0457 O   0  0  0  0  0  0  0  0  0  0  0  0
   -5.8519   12.2650  -27.2965 Br  0  0  0  0  0  0  0  0  0  0  0  0
   -2.8552   13.1987  -32.2189 I   0  0  0  0  0  0  0  0  0  0  0  0
   -4.8592   10.8964  -32.8166 H   0  0  0  0  0  0  0  0  0  0  0  0
   -3.9956   13.2814  -29.3348 H   0  0  0  0  0  0  0  0  0  0  0  0
   -6.8836    8.4230  -33.7527 H   0  0  0  0  0  0  0  0  0  0  0  0
   -6.4733   10.1355  -33.8007 H   0  0  0  0  0  0  0  0  0  0  0  0
   -5.2675    8.9592  -33.2664 H   0  0  0  0  0  0  0  0  0  0  0  0
   -8.9277    8.9331  -32.2562 H   0  0  0  0  0  0  0  0  0  0  0  0
   -8.7019    9.8009  -30.7399 H   0  0  0  0  0  0  0  0  0  0  0  0
   -8.5083   10.6496  -32.2819 H   0  0  0  0  0  0  0  0  0  0  0  0
   -7.2521    7.2055  -31.6401 H   0  0  0  0  0  0  0  0  0  0  0  0
   -5.6271    7.6274  -31.1005 H   0  0  0  0  0  0  0  0  0  0  0  0
   -7.0297    7.9727  -30.0678 H   0  0  0  0  0  0  0  0  0  0  0  0
   -7.2979   10.4351  -28.1367 H   0  0  0  0  0  0  0  0  0  0  0  0
  1  3  2  0  0  0  0
  1  6  1  0  0  0  0
  2  5  1  0  0  0  0
  2  6  2  0  0  0  0
  3  4  1  0  0  0  0
  3 10  1  0  0  0  0
  4  5  2  0  0  0  0
  4 11  1  0  0  0  0
  5 12  1  0  0  0  0
  6 13  1  0  0  0  0
  7 10  1  0  0  0  0
  8 10  1  0  0  0  0
  9 10  1  0  0  0  0
  1 14  1  0  0  0  0
  2 15  1  0  0  0  0
  7 16  1  0  0  0  0
  7 17  1  0  0  0  0
  7 18  1  0  0  0  0
  8 19  1  0  0  0  0
  8 20  1  0  0  0  0
  8 21  1  0  0  0  0
  9 22  1  0  0  0  0
  9 23  1  0  0  0  0
  9 24  1  0  0  0  0
 11 25  1  0  0  0  0
M  END
> <id>
EN300-266388

> <smiles>
CC(C)(C)C=1C=C(I)C=C(Br)C1O

> <MDLNUMBER>
MFCD22042856

> <IUPAC Name>
2-bromo-6-tert-butyl-4-iodophenol

> <CAS>
60803-27-2

> <Purity>
95

> <URL>
https://www.enaminestore.com/catalog/EN300-266388

> <ROCS_ShapeQuery>
_x1604L0AP1_x0771L0AP1

> <ROCS_TanimotoCombo>
0.906 

> <ROCS_ShapeTanimoto>
0.526 

> <ROCS_ColorTanimoto>
0.381 

> <ROCS_RefTversky>
0.465 

> <ROCS_RefColorTversky>
0.428 

> <ROCS_RefTverskyCombo>
0.892 

> <ROCS_FitTversky>
1.333 

> <ROCS_FitColorTversky>
0.777 

> <ROCS_FitTverskyCombo>
2.110 

> <ROCS_ColorScore>
-4.881

> <ROCS_Overlap>
787.156

> <ROCS_Rank>
215                 

$$$$
untitled-dbase-937_9
  -OEChem-06042309053D

 23 23  0     0  0  0  0  0  0999 V2000
   -4.6044   12.4905  -29.8665 C   0  0  0  0  0  0  0  0  0  0  0  0
   -4.3622   12.1739  -31.2031 C   0  0  0  0  0  0  0  0  0  0  0  0
   -5.5703   11.7867  -29.1471 C   0  0  0  0  0  0  0  0  0  0  0  0
   -5.0858   11.1537  -31.8205 C   0  0  0  0  0  0  0  0  0  0  0  0
   -6.2940   10.7665  -29.7644 C   0  0  0  0  0  0  0  0  0  0  0  0
   -6.0517   10.4500  -31.1011 C   0  0  0  0  0  0  0  0  0  0  0  0
   -4.7887   10.8536  -33.2546 C   0  0  0  0  0  0  0  0  0  0  0  0
   -5.8077   11.4398  -34.2488 C   0  0  0  0  0  0  0  0  0  0  0  0
   -5.4762   11.0899  -35.6992 C   0  0  0  0  0  0  0  0  0  0  0  0
   -7.2304   10.1011  -29.0299 O   0  0  0  0  0  0  0  0  0  0  0  0
   -5.4536    9.2884  -35.9333 S   0  0  0  0  0  0  0  0  0  0  0  0
   -7.0450    9.0559  -31.9325 Br  0  0  0  0  0  0  0  0  0  0  0  0
   -4.0413   13.2852  -29.3859 H   0  0  0  0  0  0  0  0  0  0  0  0
   -3.6073   12.7289  -31.7543 H   0  0  0  0  0  0  0  0  0  0  0  0
   -5.7538   12.0396  -28.1062 H   0  0  0  0  0  0  0  0  0  0  0  0
   -4.7101    9.7668  -33.4191 H   0  0  0  0  0  0  0  0  0  0  0  0
   -3.7917   11.2531  -33.5012 H   0  0  0  0  0  0  0  0  0  0  0  0
   -5.8117   12.5309  -34.1279 H   0  0  0  0  0  0  0  0  0  0  0  0
   -6.8157   11.0869  -33.9964 H   0  0  0  0  0  0  0  0  0  0  0  0
   -4.4927   11.4761  -35.9820 H   0  0  0  0  0  0  0  0  0  0  0  0
   -6.2196   11.5175  -36.3796 H   0  0  0  0  0  0  0  0  0  0  0  0
   -7.6591    9.4212  -29.5724 H   0  0  0  0  0  0  0  0  0  0  0  0
   -6.7267    9.0835  -35.5698 H   0  0  0  0  0  0  0  0  0  0  0  0
  1  2  2  0  0  0  0
  1  3  1  0  0  0  0
  2  4  1  0  0  0  0
  3  5  2  0  0  0  0
  4  6  2  0  0  0  0
  4  7  1  0  0  0  0
  5  6  1  0  0  0  0
  5 10  1  0  0  0  0
  6 12  1  0  0  0  0
  7  8  1  0  0  0  0
  8  9  1  0  0  0  0
  9 11  1  0  0  0  0
  1 13  1  0  0  0  0
  2 14  1  0  0  0  0
  3 15  1  0  0  0  0
  7 16  1  0  0  0  0
  7 17  1  0  0  0  0
  8 18  1  0  0  0  0
  8 19  1  0  0  0  0
  9 20  1  0  0  0  0
  9 21  1  0  0  0  0
 10 22  1  0  0  0  0
 11 23  1  0  0  0  0
M  END
> <id>
EN300-1904623

> <smiles>
OC=1C=CC=C(CCCS)C1Br

> <IUPAC Name>
2-bromo-3-(3-sulfanylpropyl)phenol

> <CAS>
2228489-31-2

> <URL>
https://www.enaminestore.com/catalog/EN300-1904623

> <ROCS_ShapeQuery>
_x1604L0AP1_x0771L0AP1

> <ROCS_TanimotoCombo>
0.906 

> <ROCS_ShapeTanimoto>
0.455 

> <ROCS_ColorTanimoto>
0.451 

> <ROCS_RefTversky>
0.414 

> <ROCS_RefColorTversky>
0.431 

> <ROCS_RefTverskyCombo>
0.845 

> <ROCS_FitTversky>
1.284 

> <ROCS_FitColorTversky>
1.113 

> <ROCS_FitTverskyCombo>
2.397 

> <ROCS_ColorScore>
-4.881

> <ROCS_Overlap>
699.814

> <ROCS_Rank>
216                 

$$$$
untitled-dbase-588_841
  -OEChem-06042309053D

 25 25  0     0  0  0  0  0  0999 V2000
   -5.0702   11.2263  -31.7794 C   0  0  0  0  0  0  0  0  0  0  0  0
   -4.5122   12.4396  -29.7661 C   0  0  0  0  0  0  0  0  0  0  0  0
   -4.2972   12.1819  -31.1200 C   0  0  0  0  0  0  0  0  0  0  0  0
   -6.0584   10.5285  -31.0850 C   0  0  0  0  0  0  0  0  0  0  0  0
   -6.2734   10.7862  -29.7311 C   0  0  0  0  0  0  0  0  0  0  0  0
   -5.5003   11.7418  -29.0717 C   0  0  0  0  0  0  0  0  0  0  0  0
   -2.9874   14.3231  -31.3377 C   0  0  0  0  0  0  0  0  0  0  0  0
   -6.4464    8.6507  -33.9122 C   0  0  0  0  0  0  0  0  0  0  0  0
   -3.2401   12.9270  -31.8626 C   0  0  0  0  0  0  0  0  0  0  0  0
   -7.0283    9.8121  -33.1348 C   0  0  0  0  0  0  0  0  0  0  0  0
   -2.6715   14.5857  -30.1820 O   0  0  0  0  0  0  0  0  0  0  0  0
   -7.2440   10.0926  -29.0688 O   0  0  0  0  0  0  0  0  0  0  0  0
   -6.8049    9.5977  -31.7427 O   0  0  0  0  0  0  0  0  0  0  0  0
   -5.7632   12.1194  -27.2325 Br  0  0  0  0  0  0  0  0  0  0  0  0
   -4.9043   11.0234  -32.8348 H   0  0  0  0  0  0  0  0  0  0  0  0
   -3.9039   13.1864  -29.2605 H   0  0  0  0  0  0  0  0  0  0  0  0
   -3.1063   15.1331  -32.0783 H   0  0  0  0  0  0  0  0  0  0  0  0
   -5.3697    8.5666  -33.7404 H   0  0  0  0  0  0  0  0  0  0  0  0
   -6.9258    7.7110  -33.6187 H   0  0  0  0  0  0  0  0  0  0  0  0
   -6.6241    8.7771  -34.9853 H   0  0  0  0  0  0  0  0  0  0  0  0
   -3.5027   13.0191  -32.9273 H   0  0  0  0  0  0  0  0  0  0  0  0
   -2.2831   12.3850  -31.8277 H   0  0  0  0  0  0  0  0  0  0  0  0
   -8.1052    9.8907  -33.3110 H   0  0  0  0  0  0  0  0  0  0  0  0
   -6.5477   10.7501  -33.4286 H   0  0  0  0  0  0  0  0  0  0  0  0
   -7.6811    9.4728  -29.6725 H   0  0  0  0  0  0  0  0  0  0  0  0
  1  3  1  0  0  0  0
  1  4  2  0  0  0  0
  2  3  2  0  0  0  0
  2  6  1  0  0  0  0
  3  9  1  0  0  0  0
  4  5  1  0  0  0  0
  4 13  1  0  0  0  0
  5  6  2  0  0  0  0
  5 12  1  0  0  0  0
  6 14  1  0  0  0  0
  7  9  1  0  0  0  0
  7 11  2  0  0  0  0
  8 10  1  0  0  0  0
 10 13  1  0  0  0  0
  1 15  1  0  0  0  0
  2 16  1  0  0  0  0
  7 17  1  0  0  0  0
  8 18  1  0  0  0  0
  8 19  1  0  0  0  0
  8 20  1  0  0  0  0
  9 21  1  0  0  0  0
  9 22  1  0  0  0  0
 10 23  1  0  0  0  0
 10 24  1  0  0  0  0
 12 25  1  0  0  0  0
M  END
> <id>
EN300-1920250

> <smiles>
CCOC=1C=C(CC=O)C=C(Br)C1O

> <IUPAC Name>
2-(3-bromo-5-ethoxy-4-hydroxyphenyl)acetaldehyde

> <CAS>
2229233-69-4

> <URL>
https://www.enaminestore.com/catalog/EN300-1920250

> <ROCS_ShapeQuery>
_x1604L0AP1_x0771L0AP1

> <ROCS_TanimotoCombo>
0.906 

> <ROCS_ShapeTanimoto>
0.625 

> <ROCS_ColorTanimoto>
0.281 

> <ROCS_RefTversky>
0.531 

> <ROCS_RefColorTversky>
0.340 

> <ROCS_RefTverskyCombo>
0.872 

> <ROCS_FitTversky>
1.394 

> <ROCS_FitColorTversky>
0.618 

> <ROCS_FitTverskyCombo>
2.012 

> <ROCS_ColorScore>
-3.887

> <ROCS_Overlap>
901.374

> <ROCS_Rank>
217                 

$$$$
untitled-dbase-435_570
  -OEChem-06042309053D

 24 24  0     0  0  0  0  0  0999 V2000
   -4.6054   12.4946  -29.8449 C   0  0  0  0  0  0  0  0  0  0  0  0
   -5.0711   11.1478  -31.7958 C   0  0  0  0  0  0  0  0  0  0  0  0
   -4.3516   12.1704  -31.1776 C   0  0  0  0  0  0  0  0  0  0  0  0
   -5.5787   11.7961  -29.1304 C   0  0  0  0  0  0  0  0  0  0  0  0
   -6.2982   10.7736  -29.7486 C   0  0  0  0  0  0  0  0  0  0  0  0
   -6.0445   10.4494  -31.0813 C   0  0  0  0  0  0  0  0  0  0  0  0
   -5.9135   11.6637  -25.4823 C   0  0  0  0  0  0  0  0  0  0  0  0
   -3.3115   12.9180  -31.9414 C   0  0  0  0  0  0  0  0  0  0  0  0
   -5.6153   11.1020  -26.8560 C   0  0  0  0  0  0  0  0  0  0  0  0
   -7.2469   10.1026  -29.0333 O   0  0  0  0  0  0  0  0  0  0  0  0
   -5.8155   12.1248  -27.8296 O   0  0  0  0  0  0  0  0  0  0  0  0
   -2.2402   13.9182  -30.8645 S   0  0  0  0  0  0  0  0  0  0  0  0
   -7.0019    9.0661  -31.9554 Br  0  0  0  0  0  0  0  0  0  0  0  0
   -4.0459   13.2916  -29.3608 H   0  0  0  0  0  0  0  0  0  0  0  0
   -4.8663   10.9026  -32.8357 H   0  0  0  0  0  0  0  0  0  0  0  0
   -5.2493   12.5010  -25.2504 H   0  0  0  0  0  0  0  0  0  0  0  0
   -6.9510   12.0086  -25.4231 H   0  0  0  0  0  0  0  0  0  0  0  0
   -5.7904   10.8922  -24.7149 H   0  0  0  0  0  0  0  0  0  0  0  0
   -2.6762   12.2283  -32.5166 H   0  0  0  0  0  0  0  0  0  0  0  0
   -3.7771   13.5871  -32.6801 H   0  0  0  0  0  0  0  0  0  0  0  0
   -6.2829   10.2651  -27.0816 H   0  0  0  0  0  0  0  0  0  0  0  0
   -4.5781   10.7586  -26.9136 H   0  0  0  0  0  0  0  0  0  0  0  0
   -7.6633    9.4243  -29.5867 H   0  0  0  0  0  0  0  0  0  0  0  0
   -1.4783   14.4135  -31.8486 H   0  0  0  0  0  0  0  0  0  0  0  0
  1  3  1  0  0  0  0
  1  4  2  0  0  0  0
  2  3  2  0  0  0  0
  2  6  1  0  0  0  0
  3  8  1  0  0  0  0
  4  5  1  0  0  0  0
  4 11  1  0  0  0  0
  5  6  2  0  0  0  0
  5 10  1  0  0  0  0
  6 13  1  0  0  0  0
  7  9  1  0  0  0  0
  8 12  1  0  0  0  0
  9 11  1  0  0  0  0
  1 14  1  0  0  0  0
  2 15  1  0  0  0  0
  7 16  1  0  0  0  0
  7 17  1  0  0  0  0
  7 18  1  0  0  0  0
  8 19  1  0  0  0  0
  8 20  1  0  0  0  0
  9 21  1  0  0  0  0
  9 22  1  0  0  0  0
 10 23  1  0  0  0  0
 12 24  1  0  0  0  0
M  END
> <id>
EN300-1920290

> <smiles>
CCOC=1C=C(CS)C=C(Br)C1O

> <IUPAC Name>
2-bromo-6-ethoxy-4-(sulfanylmethyl)phenol

> <CAS>
2228782-38-3

> <URL>
https://www.enaminestore.com/catalog/EN300-1920290

> <ROCS_ShapeQuery>
_x1604L0AP1_x0771L0AP1

> <ROCS_TanimotoCombo>
0.906 

> <ROCS_ShapeTanimoto>
0.491 

> <ROCS_ColorTanimoto>
0.415 

> <ROCS_RefTversky>
0.445 

> <ROCS_RefColorTversky>
0.431 

> <ROCS_RefTverskyCombo>
0.876 

> <ROCS_FitTversky>
1.266 

> <ROCS_FitColorTversky>
0.918 

> <ROCS_FitTverskyCombo>
2.184 

> <ROCS_ColorScore>
-4.898

> <ROCS_Overlap>
754.510

> <ROCS_Rank>
218                 

$$$$
untitled-dbase-1199_77
  -OEChem-06042309053D

 27 27  0     1  0  0  0  0  0999 V2000
   -5.1661   11.8521  -31.6356 C   0  0  0  0  0  0  0  0  0  0  0  0
   -4.2619   12.2640  -29.4334 C   0  0  0  0  0  0  0  0  0  0  0  0
   -6.1679   11.0592  -31.0760 C   0  0  0  0  0  0  0  0  0  0  0  0
   -6.2168   10.8687  -29.6950 C   0  0  0  0  0  0  0  0  0  0  0  0
   -4.2131   12.4545  -30.8143 C   0  0  0  0  0  0  0  0  0  0  0  0
   -5.2637   11.4711  -28.8737 C   0  0  0  0  0  0  0  0  0  0  0  0
   -7.2141    8.8922  -31.7849 C   0  0  0  0  0  0  0  0  0  0  0  0
   -6.9782   10.7480  -33.4821 C   0  0  0  0  0  0  0  0  0  0  0  0
   -5.9176    9.8938  -34.1795 C   0  0  0  0  0  0  0  0  0  0  0  0
   -7.1955   10.4127  -31.9886 C   0  0  2  0  0  0  0  0  0  0  0  0
   -5.7888   10.2672  -35.5672 N   0  0  0  0  0  0  0  0  0  0  0  0
   -7.2030   10.0899  -29.1626 O   0  0  0  0  0  0  0  0  0  0  0  0
   -2.9769   13.4328  -31.5054 Cl  0  0  0  0  0  0  0  0  0  0  0  0
   -5.2969   11.2357  -26.9927 Br  0  0  0  0  0  0  0  0  0  0  0  0
   -5.1318   11.9986  -32.7131 H   0  0  0  0  0  0  0  0  0  0  0  0
   -3.5165   12.7352  -28.7964 H   0  0  0  0  0  0  0  0  0  0  0  0
   -6.2472    8.4490  -32.0487 H   0  0  0  0  0  0  0  0  0  0  0  0
   -7.9823    8.4065  -32.3968 H   0  0  0  0  0  0  0  0  0  0  0  0
   -7.4192    8.6466  -30.7372 H   0  0  0  0  0  0  0  0  0  0  0  0
   -6.6883   11.8040  -33.5667 H   0  0  0  0  0  0  0  0  0  0  0  0
   -7.9218   10.6437  -34.0322 H   0  0  0  0  0  0  0  0  0  0  0  0
   -6.2133    8.8405  -34.1271 H   0  0  0  0  0  0  0  0  0  0  0  0
   -4.9461    9.9787  -33.6832 H   0  0  0  0  0  0  0  0  0  0  0  0
   -8.1927   10.7740  -31.7042 H   0  0  0  0  0  0  0  0  0  0  0  0
   -5.0940    9.6947  -35.9980 H   0  0  0  0  0  0  0  0  0  0  0  0
   -6.6661   10.1353  -36.0247 H   0  0  0  0  0  0  0  0  0  0  0  0
   -7.1107   10.0491  -28.1986 H   0  0  0  0  0  0  0  0  0  0  0  0
  1  3  2  0  0  0  0
  1  5  1  0  0  0  0
  2  5  2  0  0  0  0
  2  6  1  0  0  0  0
  3  4  1  0  0  0  0
  3 10  1  0  0  0  0
  4  6  2  0  0  0  0
  4 12  1  0  0  0  0
  5 13  1  0  0  0  0
  6 14  1  0  0  0  0
  7 10  1  0  0  0  0
  8  9  1  0  0  0  0
  8 10  1  0  0  0  0
  9 11  1  0  0  0  0
  1 15  1  0  0  0  0
  2 16  1  0  0  0  0
  7 17  1  0  0  0  0
  7 18  1  0  0  0  0
  7 19  1  0  0  0  0
  8 20  1  0  0  0  0
  8 21  1  0  0  0  0
  9 22  1  0  0  0  0
  9 23  1  0  0  0  0
 10 24  1  0  0  0  0
 11 25  1  0  0  0  0
 11 26  1  0  0  0  0
 12 27  1  0  0  0  0
M  END
> <id>
EN300-1922552

> <smiles>
CC(CCN)C=1C=C(Cl)C=C(Br)C1O

> <IUPAC Name>
2-(4-aminobutan-2-yl)-6-bromo-4-chlorophenol

> <CAS>
2228734-02-7

> <URL>
https://www.enaminestore.com/catalog/EN300-1922552

> <ROCS_ShapeQuery>
_x1604L0AP1_x0771L0AP1

> <ROCS_TanimotoCombo>
0.906 

> <ROCS_ShapeTanimoto>
0.570 

> <ROCS_ColorTanimoto>
0.337 

> <ROCS_RefTversky>
0.497 

> <ROCS_RefColorTversky>
0.411 

> <ROCS_RefTverskyCombo>
0.908 

> <ROCS_FitTversky>
1.344 

> <ROCS_FitColorTversky>
0.651 

> <ROCS_FitTverskyCombo>
1.994 

> <ROCS_ColorScore>
-4.709

> <ROCS_Overlap>
843.230

> <ROCS_Rank>
219                 

$$$$
untitled-dbase-2011_0
  -OEChem-06042309053D

 17 17  0     0  0  0  0  0  0999 V2000
   -5.5242   11.6955  -29.0455 C   0  0  0  0  0  0  0  0  0  0  0  0
   -4.9533   11.1096  -31.7126 C   0  0  0  0  0  0  0  0  0  0  0  0
   -4.4874   12.3612  -29.6992 C   0  0  0  0  0  0  0  0  0  0  0  0
   -6.2756   10.7368  -29.7253 C   0  0  0  0  0  0  0  0  0  0  0  0
   -4.2019   12.0683  -31.0328 C   0  0  0  0  0  0  0  0  0  0  0  0
   -5.9901   10.4439  -31.0588 C   0  0  0  0  0  0  0  0  0  0  0  0
   -4.2179   14.6439  -29.0889 C   0  0  0  0  0  0  0  0  0  0  0  0
   -7.2816   10.1037  -29.0581 O   0  0  0  0  0  0  0  0  0  0  0  0
   -3.7546   13.2955  -29.0340 O   0  0  0  0  0  0  0  0  0  0  0  0
   -3.2063   12.7034  -31.6663 F   0  0  0  0  0  0  0  0  0  0  0  0
   -6.9897    9.1476  -32.0140 Br  0  0  0  0  0  0  0  0  0  0  0  0
   -5.7440   11.9230  -28.0054 H   0  0  0  0  0  0  0  0  0  0  0  0
   -4.7153   10.8947  -32.7512 H   0  0  0  0  0  0  0  0  0  0  0  0
   -3.5428   15.2855  -28.5174 H   0  0  0  0  0  0  0  0  0  0  0  0
   -5.2281   14.7001  -28.6756 H   0  0  0  0  0  0  0  0  0  0  0  0
   -4.2339   14.9721  -30.1309 H   0  0  0  0  0  0  0  0  0  0  0  0
   -7.7209    9.4663  -29.6423 H   0  0  0  0  0  0  0  0  0  0  0  0
  1  3  2  0  0  0  0
  1  4  1  0  0  0  0
  2  5  2  0  0  0  0
  2  6  1  0  0  0  0
  3  5  1  0  0  0  0
  3  9  1  0  0  0  0
  4  6  2  0  0  0  0
  4  8  1  0  0  0  0
  5 10  1  0  0  0  0
  6 11  1  0  0  0  0
  7  9  1  0  0  0  0
  1 12  1  0  0  0  0
  2 13  1  0  0  0  0
  7 14  1  0  0  0  0
  7 15  1  0  0  0  0
  7 16  1  0  0  0  0
  8 17  1  0  0  0  0
M  END
> <id>
EN300-6825593

> <smiles>
COC=1C=C(O)C(Br)=CC1F

> <MDLNUMBER>
MFCD26390960

> <IUPAC Name>
2-bromo-4-fluoro-5-methoxyphenol

> <CAS>
1185836-63-8

> <Purity>
95

> <URL>
https://www.enaminestore.com/catalog/EN300-6825593

> <MP>
73-77

> <ROCS_ShapeQuery>
_x1604L0AP1_x0771L0AP1

> <ROCS_TanimotoCombo>
0.906 

> <ROCS_ShapeTanimoto>
0.497 

> <ROCS_ColorTanimoto>
0.409 

> <ROCS_RefTversky>
0.437 

> <ROCS_RefColorTversky>
0.426 

> <ROCS_RefTverskyCombo>
0.863 

> <ROCS_FitTversky>
1.386 

> <ROCS_FitColorTversky>
0.908 

> <ROCS_FitTverskyCombo>
2.295 

> <ROCS_ColorScore>
-4.846

> <ROCS_Overlap>
738.639

> <ROCS_Rank>
220                 

$$$$
untitled-dbase-1344_19
  -OEChem-06042309053D

 17 17  0     0  0  0  0  0  0999 V2000
   -4.6021   12.4913  -29.8477 C   0  0  0  0  0  0  0  0  0  0  0  0
   -4.3481   12.1759  -31.1825 C   0  0  0  0  0  0  0  0  0  0  0  0
   -5.5744   11.7872  -29.1375 C   0  0  0  0  0  0  0  0  0  0  0  0
   -5.0665   11.1564  -31.8071 C   0  0  0  0  0  0  0  0  0  0  0  0
   -6.2928   10.7676  -29.7621 C   0  0  0  0  0  0  0  0  0  0  0  0
   -6.0389   10.4522  -31.0969 C   0  0  0  0  0  0  0  0  0  0  0  0
   -4.7568   10.8575  -33.2387 C   0  0  0  0  0  0  0  0  0  0  0  0
   -7.2358   10.1018  -29.0364 O   0  0  0  0  0  0  0  0  0  0  0  0
   -6.2107   11.0364  -34.3146 S   0  0  0  0  0  0  0  0  0  0  0  0
   -7.0251    9.0591  -31.9382 Br  0  0  0  0  0  0  0  0  0  0  0  0
   -4.0430   13.2855  -29.3615 H   0  0  0  0  0  0  0  0  0  0  0  0
   -3.5883   12.7312  -31.7265 H   0  0  0  0  0  0  0  0  0  0  0  0
   -5.7670   12.0392  -28.0980 H   0  0  0  0  0  0  0  0  0  0  0  0
   -3.9644   11.5213  -33.6113 H   0  0  0  0  0  0  0  0  0  0  0  0
   -4.3721    9.8338  -33.3443 H   0  0  0  0  0  0  0  0  0  0  0  0
   -7.6598    9.4225  -29.5833 H   0  0  0  0  0  0  0  0  0  0  0  0
   -6.4264   12.3306  -34.0441 H   0  0  0  0  0  0  0  0  0  0  0  0
  1  2  2  0  0  0  0
  1  3  1  0  0  0  0
  2  4  1  0  0  0  0
  3  5  2  0  0  0  0
  4  6  2  0  0  0  0
  4  7  1  0  0  0  0
  5  6  1  0  0  0  0
  5  8  1  0  0  0  0
  6 10  1  0  0  0  0
  7  9  1  0  0  0  0
  1 11  1  0  0  0  0
  2 12  1  0  0  0  0
  3 13  1  0  0  0  0
  7 14  1  0  0  0  0
  7 15  1  0  0  0  0
  8 16  1  0  0  0  0
  9 17  1  0  0  0  0
M  END
> <id>
EN300-1288200

> <smiles>
OC=1C=CC=C(CS)C1Br

> <MDLNUMBER>
MFCD33497260

> <IUPAC Name>
2-bromo-3-(sulfanylmethyl)phenol

> <CAS>
2172151-36-7

> <URL>
https://www.enaminestore.com/catalog/EN300-1288200

> <ROCS_ShapeQuery>
_x1604L0AP1_x0771L0AP1

> <ROCS_TanimotoCombo>
0.906 

> <ROCS_ShapeTanimoto>
0.455 

> <ROCS_ColorTanimoto>
0.451 

> <ROCS_RefTversky>
0.400 

> <ROCS_RefColorTversky>
0.432 

> <ROCS_RefTverskyCombo>
0.832 

> <ROCS_FitTversky>
1.427 

> <ROCS_FitColorTversky>
1.114 

> <ROCS_FitTverskyCombo>
2.541 

> <ROCS_ColorScore>
-4.883

> <ROCS_Overlap>
675.385

> <ROCS_Rank>
221                 

$$$$
untitled-dbase-958_111
  -OEChem-06042309053D

 24 24  0     0  0  0  0  0  0999 V2000
   -4.3051   12.1030  -31.2500 C   0  0  0  0  0  0  0  0  0  0  0  0
   -4.9212   10.9873  -31.8167 C   0  0  0  0  0  0  0  0  0  0  0  0
   -4.6700   12.5276  -29.9724 C   0  0  0  0  0  0  0  0  0  0  0  0
   -5.9023   10.2961  -31.1058 C   0  0  0  0  0  0  0  0  0  0  0  0
   -6.2673   10.7207  -29.8282 C   0  0  0  0  0  0  0  0  0  0  0  0
   -5.6511   11.8364  -29.2616 C   0  0  0  0  0  0  0  0  0  0  0  0
   -6.5572    9.0917  -31.7387 C   0  0  0  0  0  0  0  0  0  0  0  0
   -7.3098    8.0287  -33.9466 C   0  0  0  0  0  0  0  0  0  0  0  0
   -6.6549    9.2211  -33.2583 C   0  0  0  0  0  0  0  0  0  0  0  0
   -6.4040    6.8937  -34.0639 N   0  0  0  0  0  0  0  0  0  0  0  0
   -7.2301   10.0351  -29.1459 O   0  0  0  0  0  0  0  0  0  0  0  0
   -5.4061    9.3674  -33.7799 F   0  0  0  0  0  0  0  0  0  0  0  0
   -7.3398   10.3487  -33.5842 F   0  0  0  0  0  0  0  0  0  0  0  0
   -6.1183   12.4443  -27.5277 Br  0  0  0  0  0  0  0  0  0  0  0  0
   -3.5408   12.6409  -31.8033 H   0  0  0  0  0  0  0  0  0  0  0  0
   -4.6291   10.6619  -32.8116 H   0  0  0  0  0  0  0  0  0  0  0  0
   -4.1784   13.3989  -29.5471 H   0  0  0  0  0  0  0  0  0  0  0  0
   -5.9807    8.1961  -31.4756 H   0  0  0  0  0  0  0  0  0  0  0  0
   -7.5526    8.9661  -31.2958 H   0  0  0  0  0  0  0  0  0  0  0  0
   -7.6663    8.3202  -34.9404 H   0  0  0  0  0  0  0  0  0  0  0  0
   -8.1893    7.7225  -33.3692 H   0  0  0  0  0  0  0  0  0  0  0  0
   -6.8981    6.1392  -34.4810 H   0  0  0  0  0  0  0  0  0  0  0  0
   -5.6353    7.1634  -34.6328 H   0  0  0  0  0  0  0  0  0  0  0  0
   -7.3774   10.4425  -28.2789 H   0  0  0  0  0  0  0  0  0  0  0  0
  1  2  1  0  0  0  0
  1  3  2  0  0  0  0
  2  4  2  0  0  0  0
  3  6  1  0  0  0  0
  4  5  1  0  0  0  0
  4  7  1  0  0  0  0
  5  6  2  0  0  0  0
  5 11  1  0  0  0  0
  6 14  1  0  0  0  0
  7  9  1  0  0  0  0
  8  9  1  0  0  0  0
  8 10  1  0  0  0  0
  9 12  1  0  0  0  0
  9 13  1  0  0  0  0
  1 15  1  0  0  0  0
  2 16  1  0  0  0  0
  3 17  1  0  0  0  0
  7 18  1  0  0  0  0
  7 19  1  0  0  0  0
  8 20  1  0  0  0  0
  8 21  1  0  0  0  0
 10 22  1  0  0  0  0
 10 23  1  0  0  0  0
 11 24  1  0  0  0  0
M  END
> <id>
EN300-1963209

> <smiles>
NCC(F)(F)CC=1C=CC=C(Br)C1O

> <IUPAC Name>
2-(3-amino-2,2-difluoropropyl)-6-bromophenol

> <CAS>
2228634-10-2

> <URL>
https://www.enaminestore.com/catalog/EN300-1963209

> <ROCS_ShapeQuery>
_x1604L0AP1_x0771L0AP1

> <ROCS_TanimotoCombo>
0.906 

> <ROCS_ShapeTanimoto>
0.561 

> <ROCS_ColorTanimoto>
0.345 

> <ROCS_RefTversky>
0.498 

> <ROCS_RefColorTversky>
0.398 

> <ROCS_RefTverskyCombo>
0.895 

> <ROCS_FitTversky>
1.292 

> <ROCS_FitColorTversky>
0.722 

> <ROCS_FitTverskyCombo>
2.014 

> <ROCS_ColorScore>
-4.539

> <ROCS_Overlap>
845.022

> <ROCS_Rank>
222                 

$$$$
untitled-dbase-647_256
  -OEChem-06042309053D

 24 24  0     0  0  0  0  0  0999 V2000
   -4.5870   12.4711  -29.8154 C   0  0  0  0  0  0  0  0  0  0  0  0
   -5.0537   11.1414  -31.7777 C   0  0  0  0  0  0  0  0  0  0  0  0
   -4.3291   12.1540  -31.1490 C   0  0  0  0  0  0  0  0  0  0  0  0
   -5.5693   11.7755  -29.1104 C   0  0  0  0  0  0  0  0  0  0  0  0
   -6.2938   10.7628  -29.7392 C   0  0  0  0  0  0  0  0  0  0  0  0
   -6.0360   10.4458  -31.0728 C   0  0  0  0  0  0  0  0  0  0  0  0
   -2.5914   13.9647  -31.0649 C   0  0  0  0  0  0  0  0  0  0  0  0
   -5.0239   13.1445  -27.2439 C   0  0  0  0  0  0  0  0  0  0  0  0
   -3.2795   12.8986  -31.9026 C   0  0  0  0  0  0  0  0  0  0  0  0
   -3.3986   14.9862  -30.6389 N   0  0  0  0  0  0  0  0  0  0  0  0
   -7.2512   10.0945  -29.0332 O   0  0  0  0  0  0  0  0  0  0  0  0
   -5.8100   12.0971  -27.8086 O   0  0  0  0  0  0  0  0  0  0  0  0
   -0.9596   13.9159  -30.7020 S   0  0  0  0  0  0  0  0  0  0  0  0
   -6.9999    9.0762  -31.9611 Br  0  0  0  0  0  0  0  0  0  0  0  0
   -4.0237   13.2603  -29.3231 H   0  0  0  0  0  0  0  0  0  0  0  0
   -4.8456   10.9017  -32.8182 H   0  0  0  0  0  0  0  0  0  0  0  0
   -5.3165   13.2998  -26.2025 H   0  0  0  0  0  0  0  0  0  0  0  0
   -5.1740   14.0632  -27.8165 H   0  0  0  0  0  0  0  0  0  0  0  0
   -3.9699   12.8599  -27.2852 H   0  0  0  0  0  0  0  0  0  0  0  0
   -3.7022   13.3672  -32.8084 H   0  0  0  0  0  0  0  0  0  0  0  0
   -2.5176   12.1922  -32.2756 H   0  0  0  0  0  0  0  0  0  0  0  0
   -4.3864   15.0297  -30.8675 H   0  0  0  0  0  0  0  0  0  0  0  0
   -3.0287   15.7446  -30.0756 H   0  0  0  0  0  0  0  0  0  0  0  0
   -7.2996   10.4396  -28.1286 H   0  0  0  0  0  0  0  0  0  0  0  0
  1  3  1  0  0  0  0
  1  4  2  0  0  0  0
  2  3  2  0  0  0  0
  2  6  1  0  0  0  0
  3  9  1  0  0  0  0
  4  5  1  0  0  0  0
  4 12  1  0  0  0  0
  5  6  2  0  0  0  0
  5 11  1  0  0  0  0
  6 14  1  0  0  0  0
  7  9  1  0  0  0  0
  7 10  1  0  0  0  0
  7 13  2  0  0  0  0
  8 12  1  0  0  0  0
  1 15  1  0  0  0  0
  2 16  1  0  0  0  0
  8 17  1  0  0  0  0
  8 18  1  0  0  0  0
  8 19  1  0  0  0  0
  9 20  1  0  0  0  0
  9 21  1  0  0  0  0
 10 22  1  0  0  0  0
 10 23  1  0  0  0  0
 11 24  1  0  0  0  0
M  END
> <id>
EN300-1925674

> <smiles>
COC=1C=C(CC(=S)N)C=C(Br)C1O

> <IUPAC Name>
2-(3-bromo-4-hydroxy-5-methoxyphenyl)ethanethioamide

> <CAS>
2229398-06-3

> <URL>
https://www.enaminestore.com/catalog/EN300-1925674

> <ROCS_ShapeQuery>
_x1604L0AP1_x0771L0AP1

> <ROCS_TanimotoCombo>
0.906 

> <ROCS_ShapeTanimoto>
0.523 

> <ROCS_ColorTanimoto>
0.383 

> <ROCS_RefTversky>
0.473 

> <ROCS_RefColorTversky>
0.429 

> <ROCS_RefTverskyCombo>
0.902 

> <ROCS_FitTversky>
1.254 

> <ROCS_FitColorTversky>
0.779 

> <ROCS_FitTverskyCombo>
2.033 

> <ROCS_ColorScore>
-4.898

> <ROCS_Overlap>
802.443

> <ROCS_Rank>
223                 

$$$$
untitled-dbase-1273_14
  -OEChem-06042309053D

 20 20  0     0  0  0  0  0  0999 V2000
   -4.5726   12.4555  -29.8119 C   0  0  0  0  0  0  0  0  0  0  0  0
   -5.5616   11.7647  -29.1118 C   0  0  0  0  0  0  0  0  0  0  0  0
   -5.0410   11.1330  -31.7788 C   0  0  0  0  0  0  0  0  0  0  0  0
   -4.3123   12.1397  -31.1454 C   0  0  0  0  0  0  0  0  0  0  0  0
   -6.2903   10.7580  -29.7452 C   0  0  0  0  0  0  0  0  0  0  0  0
   -6.0301   10.4422  -31.0787 C   0  0  0  0  0  0  0  0  0  0  0  0
   -2.5833   12.2648  -32.8770 C   0  0  0  0  0  0  0  0  0  0  0  0
   -3.2806   12.8602  -31.8745 C   0  0  0  0  0  0  0  0  0  0  0  0
   -3.0081   14.3202  -31.5577 C   0  0  0  0  0  0  0  0  0  0  0  0
   -7.2484   10.1004  -29.0325 O   0  0  0  0  0  0  0  0  0  0  0  0
   -4.4767   15.2949  -31.8094 Cl  0  0  0  0  0  0  0  0  0  0  0  0
   -6.9994    9.0787  -31.9699 Br  0  0  0  0  0  0  0  0  0  0  0  0
   -4.0133   13.2383  -29.3047 H   0  0  0  0  0  0  0  0  0  0  0  0
   -5.7590   12.0171  -28.0733 H   0  0  0  0  0  0  0  0  0  0  0  0
   -4.8356   10.8894  -32.8196 H   0  0  0  0  0  0  0  0  0  0  0  0
   -1.8125   12.7981  -33.4241 H   0  0  0  0  0  0  0  0  0  0  0  0
   -2.7575   11.2332  -33.1671 H   0  0  0  0  0  0  0  0  0  0  0  0
   -2.7027   14.4757  -30.5175 H   0  0  0  0  0  0  0  0  0  0  0  0
   -2.2128   14.7296  -32.1870 H   0  0  0  0  0  0  0  0  0  0  0  0
   -7.6766    9.4301  -29.5873 H   0  0  0  0  0  0  0  0  0  0  0  0
  1  2  1  0  0  0  0
  1  4  2  0  0  0  0
  2  5  2  0  0  0  0
  3  4  1  0  0  0  0
  3  6  2  0  0  0  0
  4  8  1  0  0  0  0
  5  6  1  0  0  0  0
  5 10  1  0  0  0  0
  6 12  1  0  0  0  0
  7  8  2  0  0  0  0
  8  9  1  0  0  0  0
  9 11  1  0  0  0  0
  1 13  1  0  0  0  0
  2 14  1  0  0  0  0
  3 15  1  0  0  0  0
  7 16  1  0  0  0  0
  7 17  1  0  0  0  0
  9 18  1  0  0  0  0
  9 19  1  0  0  0  0
 10 20  1  0  0  0  0
M  END
> <id>
EN300-1906707

> <smiles>
OC=1C=CC(=CC1Br)C(=C)CCl

> <IUPAC Name>
2-bromo-4-(3-chloroprop-1-en-2-yl)phenol

> <CAS>
2228630-14-4

> <URL>
https://www.enaminestore.com/catalog/EN300-1906707

> <ROCS_ShapeQuery>
_x1604L0AP1_x0771L0AP1

> <ROCS_TanimotoCombo>
0.906 

> <ROCS_ShapeTanimoto>
0.493 

> <ROCS_ColorTanimoto>
0.413 

> <ROCS_RefTversky>
0.439 

> <ROCS_RefColorTversky>
0.429 

> <ROCS_RefTverskyCombo>
0.868 

> <ROCS_FitTversky>
1.337 

> <ROCS_FitColorTversky>
0.914 

> <ROCS_FitTverskyCombo>
2.251 

> <ROCS_ColorScore>
-4.877

> <ROCS_Overlap>
742.260

> <ROCS_Rank>
224                 

$$$$
untitled-dbase-53_5
  -OEChem-06042309053D

 22 22  0     0  0  0  0  0  0999 V2000
   -4.6170   12.4984  -29.8432 C   0  0  0  0  0  0  0  0  0  0  0  0
   -5.5874   11.7925  -29.1322 C   0  0  0  0  0  0  0  0  0  0  0  0
   -5.0745   11.1569  -31.7997 C   0  0  0  0  0  0  0  0  0  0  0  0
   -4.3605   12.1807  -31.1770 C   0  0  0  0  0  0  0  0  0  0  0  0
   -6.3014   10.7687  -29.7549 C   0  0  0  0  0  0  0  0  0  0  0  0
   -6.0449   10.4509  -31.0887 C   0  0  0  0  0  0  0  0  0  0  0  0
   -2.6925   12.0983  -33.0649 C   0  0  0  0  0  0  0  0  0  0  0  0
   -2.2164   13.4971  -31.0224 C   0  0  0  0  0  0  0  0  0  0  0  0
   -3.3226   12.9359  -31.9360 C   0  0  0  0  0  0  0  0  0  0  0  0
   -7.2419   10.0970  -29.0321 O   0  0  0  0  0  0  0  0  0  0  0  0
   -6.9947    9.0651  -31.9663 Br  0  0  0  0  0  0  0  0  0  0  0  0
   -4.0660   13.2943  -29.3488 H   0  0  0  0  0  0  0  0  0  0  0  0
   -5.7817   12.0458  -28.0933 H   0  0  0  0  0  0  0  0  0  0  0  0
   -4.8681   10.9163  -32.8405 H   0  0  0  0  0  0  0  0  0  0  0  0
   -2.2062   11.1974  -32.6752 H   0  0  0  0  0  0  0  0  0  0  0  0
   -1.9384   12.6710  -33.6158 H   0  0  0  0  0  0  0  0  0  0  0  0
   -3.4602   11.7807  -33.7794 H   0  0  0  0  0  0  0  0  0  0  0  0
   -1.7082   12.6833  -30.4932 H   0  0  0  0  0  0  0  0  0  0  0  0
   -2.6259   14.1812  -30.2712 H   0  0  0  0  0  0  0  0  0  0  0  0
   -1.4609   14.0463  -31.5949 H   0  0  0  0  0  0  0  0  0  0  0  0
   -3.7826   13.8133  -32.4294 H   0  0  0  0  0  0  0  0  0  0  0  0
   -7.6611    9.4158  -29.5803 H   0  0  0  0  0  0  0  0  0  0  0  0
  1  2  1  0  0  0  0
  1  4  2  0  0  0  0
  2  5  2  0  0  0  0
  3  4  1  0  0  0  0
  3  6  2  0  0  0  0
  4  9  1  0  0  0  0
  5  6  1  0  0  0  0
  5 10  1  0  0  0  0
  6 11  1  0  0  0  0
  7  9  1  0  0  0  0
  8  9  1  0  0  0  0
  1 12  1  0  0  0  0
  2 13  1  0  0  0  0
  3 14  1  0  0  0  0
  7 15  1  0  0  0  0
  7 16  1  0  0  0  0
  7 17  1  0  0  0  0
  8 18  1  0  0  0  0
  8 19  1  0  0  0  0
  8 20  1  0  0  0  0
  9 21  1  0  0  0  0
 10 22  1  0  0  0  0
M  END
> <id>
EN300-127045

> <smiles>
CC(C)C=1C=CC(O)=C(Br)C1

> <MDLNUMBER>
MFCD08700373

> <IUPAC Name>
2-bromo-4-(propan-2-yl)phenol

> <CAS>
19432-27-0

> <Purity>
95

> <URL>
https://www.enaminestore.com/catalog/EN300-127045

> <ROCS_ShapeQuery>
_x1604L0AP1_x0771L0AP1

> <ROCS_TanimotoCombo>
0.905 

> <ROCS_ShapeTanimoto>
0.493 

> <ROCS_ColorTanimoto>
0.413 

> <ROCS_RefTversky>
0.431 

> <ROCS_RefColorTversky>
0.429 

> <ROCS_RefTverskyCombo>
0.860 

> <ROCS_FitTversky>
1.407 

> <ROCS_FitColorTversky>
0.914 

> <ROCS_FitTverskyCombo>
2.321 

> <ROCS_ColorScore>
-4.877

> <ROCS_Overlap>
729.153

> <ROCS_Rank>
225                 

$$$$
untitled-dbase-595_138
  -OEChem-06042309053D

 23 23  0     0  0  0  0  0  0999 V2000
   -4.5870   12.4755  -29.8202 C   0  0  0  0  0  0  0  0  0  0  0  0
   -5.0516   11.1403  -31.7794 C   0  0  0  0  0  0  0  0  0  0  0  0
   -4.3278   12.1547  -31.1527 C   0  0  0  0  0  0  0  0  0  0  0  0
   -5.5699   11.7817  -29.1143 C   0  0  0  0  0  0  0  0  0  0  0  0
   -6.2937   10.7672  -29.7410 C   0  0  0  0  0  0  0  0  0  0  0  0
   -6.0345   10.4465  -31.0735 C   0  0  0  0  0  0  0  0  0  0  0  0
   -4.9056   12.2414  -25.6017 C   0  0  0  0  0  0  0  0  0  0  0  0
   -3.2775   12.8973  -31.9073 C   0  0  0  0  0  0  0  0  0  0  0  0
   -4.7137   12.6120  -27.0568 C   0  0  0  0  0  0  0  0  0  0  0  0
   -7.2517   10.1008  -29.0341 O   0  0  0  0  0  0  0  0  0  0  0  0
   -5.8119   12.1069  -27.8136 O   0  0  0  0  0  0  0  0  0  0  0  0
   -2.8168   14.3831  -31.0460 Cl  0  0  0  0  0  0  0  0  0  0  0  0
   -6.9975    9.0743  -31.9589 Br  0  0  0  0  0  0  0  0  0  0  0  0
   -4.0243   13.2661  -29.3296 H   0  0  0  0  0  0  0  0  0  0  0  0
   -4.8425   10.8977  -32.8190 H   0  0  0  0  0  0  0  0  0  0  0  0
   -5.8294   12.6739  -25.2074 H   0  0  0  0  0  0  0  0  0  0  0  0
   -4.9454   11.1537  -25.4824 H   0  0  0  0  0  0  0  0  0  0  0  0
   -4.0635   12.5970  -24.9986 H   0  0  0  0  0  0  0  0  0  0  0  0
   -3.6265   13.1811  -32.9091 H   0  0  0  0  0  0  0  0  0  0  0  0
   -2.3729   12.2896  -32.0419 H   0  0  0  0  0  0  0  0  0  0  0  0
   -3.7881   12.1763  -27.4449 H   0  0  0  0  0  0  0  0  0  0  0  0
   -4.6749   13.6991  -27.1743 H   0  0  0  0  0  0  0  0  0  0  0  0
   -7.3010   10.4483  -28.1305 H   0  0  0  0  0  0  0  0  0  0  0  0
  1  3  1  0  0  0  0
  1  4  2  0  0  0  0
  2  3  2  0  0  0  0
  2  6  1  0  0  0  0
  3  8  1  0  0  0  0
  4  5  1  0  0  0  0
  4 11  1  0  0  0  0
  5  6  2  0  0  0  0
  5 10  1  0  0  0  0
  6 13  1  0  0  0  0
  7  9  1  0  0  0  0
  8 12  1  0  0  0  0
  9 11  1  0  0  0  0
  1 14  1  0  0  0  0
  2 15  1  0  0  0  0
  7 16  1  0  0  0  0
  7 17  1  0  0  0  0
  7 18  1  0  0  0  0
  8 19  1  0  0  0  0
  8 20  1  0  0  0  0
  9 21  1  0  0  0  0
  9 22  1  0  0  0  0
 10 23  1  0  0  0  0
M  END
> <id>
EN300-1920245

> <smiles>
CCOC=1C=C(CCl)C=C(Br)C1O

> <IUPAC Name>
2-bromo-4-(chloromethyl)-6-ethoxyphenol

> <CAS>
2228336-12-5

> <URL>
https://www.enaminestore.com/catalog/EN300-1920245

> <ROCS_ShapeQuery>
_x1604L0AP1_x0771L0AP1

> <ROCS_TanimotoCombo>
0.905 

> <ROCS_ShapeTanimoto>
0.490 

> <ROCS_ColorTanimoto>
0.415 

> <ROCS_RefTversky>
0.445 

> <ROCS_RefColorTversky>
0.431 

> <ROCS_RefTverskyCombo>
0.876 

> <ROCS_FitTversky>
1.263 

> <ROCS_FitColorTversky>
0.918 

> <ROCS_FitTverskyCombo>
2.181 

> <ROCS_ColorScore>
-4.898

> <ROCS_Overlap>
753.810

> <ROCS_Rank>
226                 

$$$$
untitled-dbase-1018_1002
  -OEChem-06042309053D

 29 30  0     0  0  0  0  0  0999 V2000
   -4.5883   12.4737  -29.8032 C   0  0  0  0  0  0  0  0  0  0  0  0
   -5.0522   11.1478  -31.7688 C   0  0  0  0  0  0  0  0  0  0  0  0
   -4.3290   12.1595  -31.1372 C   0  0  0  0  0  0  0  0  0  0  0  0
   -5.5709   11.7759  -29.1006 C   0  0  0  0  0  0  0  0  0  0  0  0
   -6.2941   10.7642  -29.7322 C   0  0  0  0  0  0  0  0  0  0  0  0
   -6.0348   10.4501  -31.0663 C   0  0  0  0  0  0  0  0  0  0  0  0
   -3.0607   14.3041  -31.4696 C   0  0  0  0  0  0  0  0  0  0  0  0
   -3.0990   12.5830  -33.3622 C   0  0  0  0  0  0  0  0  0  0  0  0
   -2.0706   12.1267  -32.3787 C   0  0  0  0  0  0  0  0  0  0  0  0
   -3.2800   12.9063  -31.8876 C   0  0  0  0  0  0  0  0  0  0  0  0
   -7.4492   12.1254  -26.0504 C   0  0  0  0  0  0  0  0  0  0  0  0
   -7.1303   12.5337  -27.4728 C   0  0  0  0  0  0  0  0  0  0  0  0
   -2.2560   14.6325  -30.6042 O   0  0  0  0  0  0  0  0  0  0  0  0
   -7.2509   10.0934  -29.0280 O   0  0  0  0  0  0  0  0  0  0  0  0
   -5.8133   12.0935  -27.7983 O   0  0  0  0  0  0  0  0  0  0  0  0
   -6.9978    9.0831  -31.9596 Br  0  0  0  0  0  0  0  0  0  0  0  0
   -4.0267   13.2622  -29.3081 H   0  0  0  0  0  0  0  0  0  0  0  0
   -4.8443   10.9099  -32.8098 H   0  0  0  0  0  0  0  0  0  0  0  0
   -3.6749   15.0589  -31.9891 H   0  0  0  0  0  0  0  0  0  0  0  0
   -2.8275   13.3865  -34.0374 H   0  0  0  0  0  0  0  0  0  0  0  0
   -3.7330   11.8284  -33.8136 H   0  0  0  0  0  0  0  0  0  0  0  0
   -2.0122   11.0648  -32.1686 H   0  0  0  0  0  0  0  0  0  0  0  0
   -1.1070   12.6232  -32.3917 H   0  0  0  0  0  0  0  0  0  0  0  0
   -7.4068   11.0385  -25.9376 H   0  0  0  0  0  0  0  0  0  0  0  0
   -6.7418   12.5814  -25.3500 H   0  0  0  0  0  0  0  0  0  0  0  0
   -8.4481   12.4714  -25.7644 H   0  0  0  0  0  0  0  0  0  0  0  0
   -7.1745   13.6217  -27.5788 H   0  0  0  0  0  0  0  0  0  0  0  0
   -7.8375   12.0765  -28.1713 H   0  0  0  0  0  0  0  0  0  0  0  0
   -7.6693    9.4230  -29.5896 H   0  0  0  0  0  0  0  0  0  0  0  0
  1  3  1  0  0  0  0
  1  4  2  0  0  0  0
  2  3  2  0  0  0  0
  2  6  1  0  0  0  0
  3 10  1  0  0  0  0
  4  5  1  0  0  0  0
  4 15  1  0  0  0  0
  5  6  2  0  0  0  0
  5 14  1  0  0  0  0
  6 16  1  0  0  0  0
  7 10  1  0  0  0  0
  7 13  2  0  0  0  0
  8  9  1  0  0  0  0
  8 10  1  0  0  0  0
  9 10  1  0  0  0  0
 11 12  1  0  0  0  0
 12 15  1  0  0  0  0
  1 17  1  0  0  0  0
  2 18  1  0  0  0  0
  7 19  1  0  0  0  0
  8 20  1  0  0  0  0
  8 21  1  0  0  0  0
  9 22  1  0  0  0  0
  9 23  1  0  0  0  0
 11 24  1  0  0  0  0
 11 25  1  0  0  0  0
 11 26  1  0  0  0  0
 12 27  1  0  0  0  0
 12 28  1  0  0  0  0
 14 29  1  0  0  0  0
M  END
> <id>
EN300-1920224

> <smiles>
CCOC=1C=C(C=C(Br)C1O)C2(CC2)C=O

> <IUPAC Name>
1-(3-bromo-5-ethoxy-4-hydroxyphenyl)cyclopropane-1-carbaldehyde

> <CAS>
2228179-68-6

> <URL>
https://www.enaminestore.com/catalog/EN300-1920224

> <ROCS_ShapeQuery>
_x1604L0AP1_x0771L0AP1

> <ROCS_TanimotoCombo>
0.905 

> <ROCS_ShapeTanimoto>
0.523 

> <ROCS_ColorTanimoto>
0.383 

> <ROCS_RefTversky>
0.493 

> <ROCS_RefColorTversky>
0.429 

> <ROCS_RefTverskyCombo>
0.922 

> <ROCS_FitTversky>
1.132 

> <ROCS_FitColorTversky>
0.779 

> <ROCS_FitTverskyCombo>
1.911 

> <ROCS_ColorScore>
-4.898

> <ROCS_Overlap>
838.674

> <ROCS_Rank>
227                 

$$$$
untitled-dbase-1679_347
  -OEChem-06042309053D

 25 25  0     1  0  0  0  0  0999 V2000
   -4.3492   11.9923  -31.3736 C   0  0  0  0  0  0  0  0  0  0  0  0
   -5.1039   10.9548  -31.9209 C   0  0  0  0  0  0  0  0  0  0  0  0
   -4.5636   12.3897  -30.0538 C   0  0  0  0  0  0  0  0  0  0  0  0
   -6.0731   10.3147  -31.1485 C   0  0  0  0  0  0  0  0  0  0  0  0
   -6.2875   10.7121  -29.8287 C   0  0  0  0  0  0  0  0  0  0  0  0
   -5.5328   11.7496  -29.2814 C   0  0  0  0  0  0  0  0  0  0  0  0
   -6.8797    9.1945  -31.7615 C   0  0  0  0  0  0  0  0  0  0  0  0
   -7.0742    7.6386  -33.7353 C   0  0  0  0  0  0  0  0  0  0  0  0
   -6.1086    8.4165  -32.8394 C   0  0  2  0  0  0  0  0  0  0  0  0
   -5.1561    7.5093  -32.2336 N   0  0  0  0  0  0  0  0  0  0  0  0
   -7.2405   10.0773  -29.0862 O   0  0  0  0  0  0  0  0  0  0  0  0
   -6.3619    6.6169  -34.4238 O   0  0  0  0  0  0  0  0  0  0  0  0
   -5.7932   12.3183  -27.4917 Br  0  0  0  0  0  0  0  0  0  0  0  0
   -3.5942   12.4904  -31.9747 H   0  0  0  0  0  0  0  0  0  0  0  0
   -4.9287   10.6499  -32.9492 H   0  0  0  0  0  0  0  0  0  0  0  0
   -3.9653   13.1998  -29.6444 H   0  0  0  0  0  0  0  0  0  0  0  0
   -7.2197    8.5114  -30.9717 H   0  0  0  0  0  0  0  0  0  0  0  0
   -7.7904    9.6309  -32.1926 H   0  0  0  0  0  0  0  0  0  0  0  0
   -7.5211    8.2974  -34.4871 H   0  0  0  0  0  0  0  0  0  0  0  0
   -7.8752    7.1716  -33.1521 H   0  0  0  0  0  0  0  0  0  0  0  0
   -5.5151    9.0982  -33.4605 H   0  0  0  0  0  0  0  0  0  0  0  0
   -5.2157    7.5932  -31.2426 H   0  0  0  0  0  0  0  0  0  0  0  0
   -5.3762    6.5782  -32.5116 H   0  0  0  0  0  0  0  0  0  0  0  0
   -7.2764   10.4577  -28.1955 H   0  0  0  0  0  0  0  0  0  0  0  0
   -5.6806    7.0610  -34.9531 H   0  0  0  0  0  0  0  0  0  0  0  0
  1  2  1  0  0  0  0
  1  3  2  0  0  0  0
  2  4  2  0  0  0  0
  3  6  1  0  0  0  0
  4  5  1  0  0  0  0
  4  7  1  0  0  0  0
  5  6  2  0  0  0  0
  5 11  1  0  0  0  0
  6 13  1  0  0  0  0
  7  9  1  0  0  0  0
  8  9  1  0  0  0  0
  8 12  1  0  0  0  0
  9 10  1  0  0  0  0
  1 14  1  0  0  0  0
  2 15  1  0  0  0  0
  3 16  1  0  0  0  0
  7 17  1  0  0  0  0
  7 18  1  0  0  0  0
  8 19  1  0  0  0  0
  8 20  1  0  0  0  0
  9 21  1  0  0  0  0
 10 22  1  0  0  0  0
 10 23  1  0  0  0  0
 11 24  1  0  0  0  0
 12 25  1  0  0  0  0
M  END
> <id>
EN300-1923097

> <smiles>
NC(CO)CC=1C=CC=C(Br)C1O

> <IUPAC Name>
2-(2-amino-3-hydroxypropyl)-6-bromophenol

> <CAS>
2228277-04-9

> <URL>
https://www.enaminestore.com/catalog/EN300-1923097

> <ROCS_ShapeQuery>
_x1604L0AP1_x0771L0AP1

> <ROCS_TanimotoCombo>
0.905 

> <ROCS_ShapeTanimoto>
0.488 

> <ROCS_ColorTanimoto>
0.418 

> <ROCS_RefTversky>
0.444 

> <ROCS_RefColorTversky>
0.504 

> <ROCS_RefTverskyCombo>
0.948 

> <ROCS_FitTversky>
1.255 

> <ROCS_FitColorTversky>
0.709 

> <ROCS_FitTverskyCombo>
1.964 

> <ROCS_ColorScore>
-5.804

> <ROCS_Overlap>
751.727

> <ROCS_Rank>
228                 

$$$$
untitled-dbase-2293_0
  -OEChem-06042309053D

 17 18  0     0  0  0  0  0  0999 V2000
   -5.5793   11.7788  -29.1057 C   0  0  0  0  0  0  0  0  0  0  0  0
   -5.0597   11.1353  -31.8174 C   0  0  0  0  0  0  0  0  0  0  0  0
   -4.6253   12.4394  -29.8434 C   0  0  0  0  0  0  0  0  0  0  0  0
   -4.3735   12.1275  -31.1576 C   0  0  0  0  0  0  0  0  0  0  0  0
   -6.2946   10.7647  -29.7479 C   0  0  0  0  0  0  0  0  0  0  0  0
   -6.0364   10.4450  -31.0950 C   0  0  0  0  0  0  0  0  0  0  0  0
   -3.5889   13.5226  -29.8018 C   0  0  0  0  0  0  0  0  0  0  0  0
   -3.3024   13.1678  -31.2992 C   0  0  0  0  0  0  0  0  0  0  0  0
   -7.2471   10.0949  -29.0360 O   0  0  0  0  0  0  0  0  0  0  0  0
   -7.0062    9.0693  -31.9701 Br  0  0  0  0  0  0  0  0  0  0  0  0
   -5.7657   12.0364  -28.0696 H   0  0  0  0  0  0  0  0  0  0  0  0
   -4.8411   10.9100  -32.8551 H   0  0  0  0  0  0  0  0  0  0  0  0
   -3.9574   14.5423  -29.6456 H   0  0  0  0  0  0  0  0  0  0  0  0
   -2.7385   13.3567  -29.1312 H   0  0  0  0  0  0  0  0  0  0  0  0
   -2.2883   12.7979  -31.4851 H   0  0  0  0  0  0  0  0  0  0  0  0
   -3.5078   13.9843  -32.0000 H   0  0  0  0  0  0  0  0  0  0  0  0
   -7.6666    9.4217  -29.5930 H   0  0  0  0  0  0  0  0  0  0  0  0
  1  3  1  0  0  0  0
  1  5  2  0  0  0  0
  2  4  1  0  0  0  0
  2  6  2  0  0  0  0
  3  4  2  0  0  0  0
  3  7  1  0  0  0  0
  4  8  1  0  0  0  0
  5  6  1  0  0  0  0
  5  9  1  0  0  0  0
  6 10  1  0  0  0  0
  7  8  1  0  0  0  0
  1 11  1  0  0  0  0
  2 12  1  0  0  0  0
  7 13  1  0  0  0  0
  7 14  1  0  0  0  0
  8 15  1  0  0  0  0
  8 16  1  0  0  0  0
  9 17  1  0  0  0  0
M  END
> <id>
EN300-45428708

> <smiles>
OC=1C=C2CCC2=CC1Br

> <IUPAC Name>
4-bromobicyclo[4.2.0]octa-1(6),2,4-trien-3-ol

> <URL>
https://www.enaminestore.com/catalog/EN300-45428708

> <ROCS_ShapeQuery>
_x1604L0AP1_x0771L0AP1

> <ROCS_TanimotoCombo>
0.905 

> <ROCS_ShapeTanimoto>
0.491 

> <ROCS_ColorTanimoto>
0.414 

> <ROCS_RefTversky>
0.427 

> <ROCS_RefColorTversky>
0.431 

> <ROCS_RefTverskyCombo>
0.859 

> <ROCS_FitTversky>
1.439 

> <ROCS_FitColorTversky>
0.911 

> <ROCS_FitTverskyCombo>
2.350 

> <ROCS_ColorScore>
-4.901

> <ROCS_Overlap>
721.967

> <ROCS_Rank>
229                 

$$$$
untitled-dbase-730_20
  -OEChem-06042309053D

 17 17  0     0  0  0  0  0  0999 V2000
   -4.5839   12.4659  -29.8262 C   0  0  0  0  0  0  0  0  0  0  0  0
   -5.5674   11.7725  -29.1209 C   0  0  0  0  0  0  0  0  0  0  0  0
   -5.0512   11.1340  -31.7871 C   0  0  0  0  0  0  0  0  0  0  0  0
   -4.3258   12.1467  -31.1594 C   0  0  0  0  0  0  0  0  0  0  0  0
   -6.2928   10.7599  -29.7486 C   0  0  0  0  0  0  0  0  0  0  0  0
   -6.0347   10.4406  -31.0817 C   0  0  0  0  0  0  0  0  0  0  0  0
   -3.2996   12.8694  -31.8940 C   0  0  0  0  0  0  0  0  0  0  0  0
   -2.6182   13.8566  -31.2188 N   0  0  0  0  0  0  0  0  0  0  0  0
   -7.2476   10.1021  -29.0317 O   0  0  0  0  0  0  0  0  0  0  0  0
   -2.9393   12.5008  -33.4878 S   0  0  0  0  0  0  0  0  0  0  0  0
   -7.0013    9.0714  -31.9669 Br  0  0  0  0  0  0  0  0  0  0  0  0
   -4.0246   13.2532  -29.3274 H   0  0  0  0  0  0  0  0  0  0  0  0
   -5.7635   12.0272  -28.0828 H   0  0  0  0  0  0  0  0  0  0  0  0
   -4.8438   10.8900  -32.8269 H   0  0  0  0  0  0  0  0  0  0  0  0
   -2.8119   14.0908  -30.2503 H   0  0  0  0  0  0  0  0  0  0  0  0
   -1.8949   14.3994  -31.6790 H   0  0  0  0  0  0  0  0  0  0  0  0
   -7.6738    9.4275  -29.5827 H   0  0  0  0  0  0  0  0  0  0  0  0
  1  2  1  0  0  0  0
  1  4  2  0  0  0  0
  2  5  2  0  0  0  0
  3  4  1  0  0  0  0
  3  6  2  0  0  0  0
  4  7  1  0  0  0  0
  5  6  1  0  0  0  0
  5  9  1  0  0  0  0
  6 11  1  0  0  0  0
  7  8  1  0  0  0  0
  7 10  2  0  0  0  0
  1 12  1  0  0  0  0
  2 13  1  0  0  0  0
  3 14  1  0  0  0  0
  8 15  1  0  0  0  0
  8 16  1  0  0  0  0
  9 17  1  0  0  0  0
M  END
> <id>
EN300-1894834

> <smiles>
NC(=S)C=1C=CC(O)=C(Br)C1

> <MDLNUMBER>
MFCD09705416

> <IUPAC Name>
3-bromo-4-hydroxybenzene-1-carbothioamide

> <CAS>
25984-64-9

> <URL>
https://www.enaminestore.com/catalog/EN300-1894834

> <ROCS_ShapeQuery>
_x1604L0AP1_x0771L0AP1

> <ROCS_TanimotoCombo>
0.905 

> <ROCS_ShapeTanimoto>
0.492 

> <ROCS_ColorTanimoto>
0.413 

> <ROCS_RefTversky>
0.431 

> <ROCS_RefColorTversky>
0.429 

> <ROCS_RefTverskyCombo>
0.860 

> <ROCS_FitTversky>
1.404 

> <ROCS_FitColorTversky>
0.914 

> <ROCS_FitTverskyCombo>
2.319 

> <ROCS_ColorScore>
-4.878

> <ROCS_Overlap>
728.698

> <ROCS_Rank>
230                 

$$$$
untitled-dbase-2090_0
  -OEChem-06042309053D

 18 18  0     0  0  0  0  0  0999 V2000
   -4.5824   12.4655  -29.8247 C   0  0  0  0  0  0  0  0  0  0  0  0
   -5.5650   11.7711  -29.1191 C   0  0  0  0  0  0  0  0  0  0  0  0
   -5.0519   11.1363  -31.7868 C   0  0  0  0  0  0  0  0  0  0  0  0
   -4.3258   12.1481  -31.1586 C   0  0  0  0  0  0  0  0  0  0  0  0
   -6.2912   10.7594  -29.7474 C   0  0  0  0  0  0  0  0  0  0  0  0
   -6.0346   10.4420  -31.0812 C   0  0  0  0  0  0  0  0  0  0  0  0
   -3.3005   12.8719  -31.8934 C   0  0  0  0  0  0  0  0  0  0  0  0
   -3.0417   14.2974  -31.5005 C   0  0  0  0  0  0  0  0  0  0  0  0
   -2.6312   12.4051  -32.8175 O   0  0  0  0  0  0  0  0  0  0  0  0
   -7.2451   10.1006  -29.0302 O   0  0  0  0  0  0  0  0  0  0  0  0
   -7.0023    9.0739  -31.9672 Br  0  0  0  0  0  0  0  0  0  0  0  0
   -4.0225   13.2521  -29.3255 H   0  0  0  0  0  0  0  0  0  0  0  0
   -5.7599   12.0244  -28.0805 H   0  0  0  0  0  0  0  0  0  0  0  0
   -4.8458   10.8938  -32.8272 H   0  0  0  0  0  0  0  0  0  0  0  0
   -2.2721   14.4134  -30.7210 H   0  0  0  0  0  0  0  0  0  0  0  0
   -3.9454   14.8218  -31.1530 H   0  0  0  0  0  0  0  0  0  0  0  0
   -2.6665   14.9177  -32.3340 H   0  0  0  0  0  0  0  0  0  0  0  0
   -7.6719    9.4267  -29.5817 H   0  0  0  0  0  0  0  0  0  0  0  0
  1  2  1  0  0  0  0
  1  4  2  0  0  0  0
  2  5  2  0  0  0  0
  3  4  1  0  0  0  0
  3  6  2  0  0  0  0
  4  7  1  0  0  0  0
  5  6  1  0  0  0  0
  5 10  1  0  0  0  0
  6 11  1  0  0  0  0
  7  8  1  0  0  0  0
  7  9  2  0  0  0  0
  1 12  1  0  0  0  0
  2 13  1  0  0  0  0
  3 14  1  0  0  0  0
  8 15  1  0  0  0  0
  8 16  1  0  0  0  0
  8 17  1  0  0  0  0
 10 18  1  0  0  0  0
M  END
> <id>
EN300-261215

> <smiles>
CC(=O)C=1C=CC(O)=C(Br)C1

> <MDLNUMBER>
MFCD03208974

> <IUPAC Name>
1-(3-bromo-4-hydroxyphenyl)ethan-1-one

> <CAS>
1836-06-2

> <Purity>
95

> <URL>
https://www.enaminestore.com/catalog/EN300-261215

> <MP>
98-99

> <ROCS_ShapeQuery>
_x1604L0AP1_x0771L0AP1

> <ROCS_TanimotoCombo>
0.905 

> <ROCS_ShapeTanimoto>
0.492 

> <ROCS_ColorTanimoto>
0.413 

> <ROCS_RefTversky>
0.433 

> <ROCS_RefColorTversky>
0.429 

> <ROCS_RefTverskyCombo>
0.862 

> <ROCS_FitTversky>
1.384 

> <ROCS_FitColorTversky>
0.914 

> <ROCS_FitTverskyCombo>
2.299 

> <ROCS_ColorScore>
-4.878

> <ROCS_Overlap>
732.082

> <ROCS_Rank>
231                 

$$$$
untitled-dbase-554_181
  -OEChem-06042309053D

 27 27  0     0  0  0  0  0  0999 V2000
   -4.5613   12.4498  -29.8012 C   0  0  0  0  0  0  0  0  0  0  0  0
   -5.0316   11.1248  -31.7659 C   0  0  0  0  0  0  0  0  0  0  0  0
   -4.2999   12.1299  -31.1335 C   0  0  0  0  0  0  0  0  0  0  0  0
   -5.5545   11.7645  -29.1013 C   0  0  0  0  0  0  0  0  0  0  0  0
   -6.2862   10.7595  -29.7338 C   0  0  0  0  0  0  0  0  0  0  0  0
   -6.0249   10.4396  -31.0661 C   0  0  0  0  0  0  0  0  0  0  0  0
   -5.0579   11.3831  -26.8070 C   0  0  0  0  0  0  0  0  0  0  0  0
   -3.2386   12.8634  -31.8816 C   0  0  0  0  0  0  0  0  0  0  0  0
   -3.0221   14.3174  -31.4191 C   0  0  0  0  0  0  0  0  0  0  0  0
   -4.2880   15.1642  -31.5464 C   0  0  0  0  0  0  0  0  0  0  0  0
   -7.2543   10.1013  -29.0328 O   0  0  0  0  0  0  0  0  0  0  0  0
   -5.7985   12.0888  -27.8008 O   0  0  0  0  0  0  0  0  0  0  0  0
   -3.9809   16.8628  -30.9795 S   0  0  0  0  0  0  0  0  0  0  0  0
   -6.9985    9.0801  -31.9593 Br  0  0  0  0  0  0  0  0  0  0  0  0
   -3.9924   13.2331  -29.3061 H   0  0  0  0  0  0  0  0  0  0  0  0
   -4.8207   10.8828  -32.8053 H   0  0  0  0  0  0  0  0  0  0  0  0
   -5.3483   11.7376  -25.8150 H   0  0  0  0  0  0  0  0  0  0  0  0
   -3.9886   11.5449  -26.9649 H   0  0  0  0  0  0  0  0  0  0  0  0
   -5.2792   10.3164  -26.8895 H   0  0  0  0  0  0  0  0  0  0  0  0
   -3.4455   12.8608  -32.9654 H   0  0  0  0  0  0  0  0  0  0  0  0
   -2.2843   12.3205  -31.7741 H   0  0  0  0  0  0  0  0  0  0  0  0
   -2.2253   14.7569  -32.0333 H   0  0  0  0  0  0  0  0  0  0  0  0
   -2.6659   14.3249  -30.3811 H   0  0  0  0  0  0  0  0  0  0  0  0
   -5.0998   14.7513  -30.9406 H   0  0  0  0  0  0  0  0  0  0  0  0
   -4.6243   15.2028  -32.5874 H   0  0  0  0  0  0  0  0  0  0  0  0
   -7.3038   10.4469  -28.1285 H   0  0  0  0  0  0  0  0  0  0  0  0
   -3.6343   16.5327  -29.7281 H   0  0  0  0  0  0  0  0  0  0  0  0
  1  3  1  0  0  0  0
  1  4  2  0  0  0  0
  2  3  2  0  0  0  0
  2  6  1  0  0  0  0
  3  8  1  0  0  0  0
  4  5  1  0  0  0  0
  4 12  1  0  0  0  0
  5  6  2  0  0  0  0
  5 11  1  0  0  0  0
  6 14  1  0  0  0  0
  7 12  1  0  0  0  0
  8  9  1  0  0  0  0
  9 10  1  0  0  0  0
 10 13  1  0  0  0  0
  1 15  1  0  0  0  0
  2 16  1  0  0  0  0
  7 17  1  0  0  0  0
  7 18  1  0  0  0  0
  7 19  1  0  0  0  0
  8 20  1  0  0  0  0
  8 21  1  0  0  0  0
  9 22  1  0  0  0  0
  9 23  1  0  0  0  0
 10 24  1  0  0  0  0
 10 25  1  0  0  0  0
 11 26  1  0  0  0  0
 13 27  1  0  0  0  0
M  END
> <id>
EN300-1925670

> <smiles>
COC=1C=C(CCCS)C=C(Br)C1O

> <IUPAC Name>
2-bromo-6-methoxy-4-(3-sulfanylpropyl)phenol

> <CAS>
2228168-63-4

> <URL>
https://www.enaminestore.com/catalog/EN300-1925670

> <ROCS_ShapeQuery>
_x1604L0AP1_x0771L0AP1

> <ROCS_TanimotoCombo>
0.905 

> <ROCS_ShapeTanimoto>
0.490 

> <ROCS_ColorTanimoto>
0.415 

> <ROCS_RefTversky>
0.451 

> <ROCS_RefColorTversky>
0.431 

> <ROCS_RefTverskyCombo>
0.882 

> <ROCS_FitTversky>
1.213 

> <ROCS_FitColorTversky>
0.918 

> <ROCS_FitTverskyCombo>
2.131 

> <ROCS_ColorScore>
-4.898

> <ROCS_Overlap>
764.880

> <ROCS_Rank>
232                 

$$$$
untitled-dbase-2149_2808
  -OEChem-06042309053D

 26 26  0     0  0  0  0  0  0999 V2000
   -4.5933   12.4799  -29.8192 C   0  0  0  0  0  0  0  0  0  0  0  0
   -5.0531   11.1422  -31.7777 C   0  0  0  0  0  0  0  0  0  0  0  0
   -4.3322   12.1588  -31.1512 C   0  0  0  0  0  0  0  0  0  0  0  0
   -5.5751   11.7843  -29.1136 C   0  0  0  0  0  0  0  0  0  0  0  0
   -6.2960   10.7677  -29.7401 C   0  0  0  0  0  0  0  0  0  0  0  0
   -6.0350   10.4466  -31.0721 C   0  0  0  0  0  0  0  0  0  0  0  0
   -4.8694   12.3285  -25.6264 C   0  0  0  0  0  0  0  0  0  0  0  0
   -3.2831   12.9034  -31.9055 C   0  0  0  0  0  0  0  0  0  0  0  0
   -5.0654   11.4179  -26.8197 C   0  0  0  0  0  0  0  0  0  0  0  0
   -2.4234   13.6682  -31.0381 N   0  0  0  0  0  0  0  0  0  0  0  0
   -7.2531   10.0995  -29.0335 O   0  0  0  0  0  0  0  0  0  0  0  0
   -3.2371   14.7581  -30.5213 O   0  0  0  0  0  0  0  0  0  0  0  0
   -5.8190   12.1099  -27.8133 O   0  0  0  0  0  0  0  0  0  0  0  0
   -6.9939    9.0715  -31.9573 Br  0  0  0  0  0  0  0  0  0  0  0  0
   -4.0329   13.2723  -29.3286 H   0  0  0  0  0  0  0  0  0  0  0  0
   -4.8425   10.8993  -32.8170 H   0  0  0  0  0  0  0  0  0  0  0  0
   -4.3243   13.2327  -25.9109 H   0  0  0  0  0  0  0  0  0  0  0  0
   -5.8351   12.6176  -25.1987 H   0  0  0  0  0  0  0  0  0  0  0  0
   -4.3126   11.8142  -24.8360 H   0  0  0  0  0  0  0  0  0  0  0  0
   -2.6455   12.2167  -32.4798 H   0  0  0  0  0  0  0  0  0  0  0  0
   -3.7259   13.6033  -32.6274 H   0  0  0  0  0  0  0  0  0  0  0  0
   -5.6112   10.5155  -26.5284 H   0  0  0  0  0  0  0  0  0  0  0  0
   -4.0997   11.1306  -27.2462 H   0  0  0  0  0  0  0  0  0  0  0  0
   -1.7085   14.1738  -31.5692 H   0  0  0  0  0  0  0  0  0  0  0  0
   -7.3039   10.4475  -28.1302 H   0  0  0  0  0  0  0  0  0  0  0  0
   -3.4899   15.2105  -31.3447 H   0  0  0  0  0  0  0  0  0  0  0  0
  1  3  1  0  0  0  0
  1  4  2  0  0  0  0
  2  3  2  0  0  0  0
  2  6  1  0  0  0  0
  3  8  1  0  0  0  0
  4  5  1  0  0  0  0
  4 13  1  0  0  0  0
  5  6  2  0  0  0  0
  5 11  1  0  0  0  0
  6 14  1  0  0  0  0
  7  9  1  0  0  0  0
  8 10  1  0  0  0  0
  9 13  1  0  0  0  0
 10 12  1  0  0  0  0
  1 15  1  0  0  0  0
  2 16  1  0  0  0  0
  7 17  1  0  0  0  0
  7 18  1  0  0  0  0
  7 19  1  0  0  0  0
  8 20  1  0  0  0  0
  8 21  1  0  0  0  0
  9 22  1  0  0  0  0
  9 23  1  0  0  0  0
 10 24  1  0  0  0  0
 11 25  1  0  0  0  0
 12 26  1  0  0  0  0
M  END
> <id>
EN300-1919829

> <smiles>
CCOC=1C=C(CNO)C=C(Br)C1O

> <IUPAC Name>
2-bromo-6-ethoxy-4-[(hydroxyamino)methyl]phenol

> <CAS>
2228526-03-0

> <URL>
https://www.enaminestore.com/catalog/EN300-1919829

> <ROCS_ShapeQuery>
_x1604L0AP1_x0771L0AP1

> <ROCS_TanimotoCombo>
0.904 

> <ROCS_ShapeTanimoto>
0.522 

> <ROCS_ColorTanimoto>
0.383 

> <ROCS_RefTversky>
0.473 

> <ROCS_RefColorTversky>
0.429 

> <ROCS_RefTverskyCombo>
0.902 

> <ROCS_FitTversky>
1.247 

> <ROCS_FitColorTversky>
0.779 

> <ROCS_FitTverskyCombo>
2.027 

> <ROCS_ColorScore>
-4.898

> <ROCS_Overlap>
802.541

> <ROCS_Rank>
233                 

$$$$
untitled-dbase-2290_0
  -OEChem-06042309053D

 25 25  0     0  0  0  0  0  0999 V2000
   -4.3259   12.1802  -31.1666 C   0  0  0  0  0  0  0  0  0  0  0  0
   -5.0526   11.1619  -31.7835 C   0  0  0  0  0  0  0  0  0  0  0  0
   -4.5734   12.5042  -29.8326 C   0  0  0  0  0  0  0  0  0  0  0  0
   -6.0270   10.4676  -31.0664 C   0  0  0  0  0  0  0  0  0  0  0  0
   -6.2746   10.7916  -29.7324 C   0  0  0  0  0  0  0  0  0  0  0  0
   -5.5478   11.8099  -29.1155 C   0  0  0  0  0  0  0  0  0  0  0  0
   -6.3373    9.2115  -33.2278 C   0  0  0  0  0  0  0  0  0  0  0  0
   -8.3225    9.6925  -31.7567 C   0  0  0  0  0  0  0  0  0  0  0  0
   -6.6606    7.9631  -31.1021 C   0  0  0  0  0  0  0  0  0  0  0  0
   -6.8170    9.3497  -31.7666 C   0  0  0  0  0  0  0  0  0  0  0  0
   -7.2322   10.1043  -29.0446 O   0  0  0  0  0  0  0  0  0  0  0  0
   -5.8536   12.2793  -27.3045 Br  0  0  0  0  0  0  0  0  0  0  0  0
   -3.5669   12.7206  -31.7247 H   0  0  0  0  0  0  0  0  0  0  0  0
   -4.8517   10.9144  -32.8224 H   0  0  0  0  0  0  0  0  0  0  0  0
   -3.9967   13.3004  -29.3688 H   0  0  0  0  0  0  0  0  0  0  0  0
   -6.8859    8.4194  -33.7507 H   0  0  0  0  0  0  0  0  0  0  0  0
   -6.4832   10.1336  -33.8010 H   0  0  0  0  0  0  0  0  0  0  0  0
   -5.2703    8.9628  -33.2708 H   0  0  0  0  0  0  0  0  0  0  0  0
   -8.9266    8.9212  -32.2468 H   0  0  0  0  0  0  0  0  0  0  0  0
   -8.6989    9.7907  -30.7317 H   0  0  0  0  0  0  0  0  0  0  0  0
   -8.5148   10.6395  -32.2748 H   0  0  0  0  0  0  0  0  0  0  0  0
   -7.2412    7.2012  -31.6363 H   0  0  0  0  0  0  0  0  0  0  0  0
   -5.6160    7.6305  -31.1029 H   0  0  0  0  0  0  0  0  0  0  0  0
   -7.0162    7.9701  -30.0651 H   0  0  0  0  0  0  0  0  0  0  0  0
   -7.2923   10.4366  -28.1361 H   0  0  0  0  0  0  0  0  0  0  0  0
  1  2  1  0  0  0  0
  1  3  2  0  0  0  0
  2  4  2  0  0  0  0
  3  6  1  0  0  0  0
  4  5  1  0  0  0  0
  4 10  1  0  0  0  0
  5  6  2  0  0  0  0
  5 11  1  0  0  0  0
  6 12  1  0  0  0  0
  7 10  1  0  0  0  0
  8 10  1  0  0  0  0
  9 10  1  0  0  0  0
  1 13  1  0  0  0  0
  2 14  1  0  0  0  0
  3 15  1  0  0  0  0
  7 16  1  0  0  0  0
  7 17  1  0  0  0  0
  7 18  1  0  0  0  0
  8 19  1  0  0  0  0
  8 20  1  0  0  0  0
  8 21  1  0  0  0  0
  9 22  1  0  0  0  0
  9 23  1  0  0  0  0
  9 24  1  0  0  0  0
 11 25  1  0  0  0  0
M  END
> <id>
EN300-3205932

> <smiles>
CC(C)(C)C=1C=CC=C(Br)C1O

> <MDLNUMBER>
MFCD16996888

> <IUPAC Name>
2-bromo-6-tert-butylphenol

> <CAS>
23159-87-7

> <Purity>
95

> <URL>
https://www.enaminestore.com/catalog/EN300-3205932

> <ROCS_ShapeQuery>
_x1604L0AP1_x0771L0AP1

> <ROCS_TanimotoCombo>
0.904 

> <ROCS_ShapeTanimoto>
0.491 

> <ROCS_ColorTanimoto>
0.413 

> <ROCS_RefTversky>
0.439 

> <ROCS_RefColorTversky>
0.429 

> <ROCS_RefTverskyCombo>
0.868 

> <ROCS_FitTversky>
1.319 

> <ROCS_FitColorTversky>
0.915 

> <ROCS_FitTverskyCombo>
2.234 

> <ROCS_ColorScore>
-4.881

> <ROCS_Overlap>
743.034

> <ROCS_Rank>
234                 

$$$$
untitled-dbase-926_567
  -OEChem-06042309053D

 26 26  0     1  0  0  0  0  0999 V2000
   -7.0955   11.6845  -33.2725 C   0  0  0  0  0  0  0  0  0  0  0  0
   -6.8284   11.7015  -31.9036 C   0  0  0  0  0  0  0  0  0  0  0  0
   -6.8743   10.5226  -34.0120 C   0  0  0  0  0  0  0  0  0  0  0  0
   -6.3399   10.5566  -31.2741 C   0  0  0  0  0  0  0  0  0  0  0  0
   -6.1186    9.3947  -32.0135 C   0  0  0  0  0  0  0  0  0  0  0  0
   -6.3858    9.3777  -33.3825 C   0  0  0  0  0  0  0  0  0  0  0  0
   -4.5048   12.5482  -30.0383 C   0  0  0  0  0  0  0  0  0  0  0  0
   -2.6022   13.9239  -29.7663 C   0  0  0  0  0  0  0  0  0  0  0  0
   -5.7205   12.0139  -29.3198 C   0  0  0  0  0  0  0  0  0  0  0  0
   -6.0562   10.5974  -29.7902 C   0  0  1  0  0  0  0  0  0  0  0  0
   -4.2117   12.2557  -31.1903 O   0  0  0  0  0  0  0  0  0  0  0  0
   -5.6388    8.2831  -31.3836 O   0  0  0  0  0  0  0  0  0  0  0  0
   -7.2112   10.1190  -29.0998 O   0  0  0  0  0  0  0  0  0  0  0  0
   -3.7971   13.3676  -29.2090 O   0  0  0  0  0  0  0  0  0  0  0  0
   -6.0993    7.8184  -34.4219 Br  0  0  0  0  0  0  0  0  0  0  0  0
   -7.4763   12.5757  -33.7627 H   0  0  0  0  0  0  0  0  0  0  0  0
   -7.0059   12.6102  -31.3347 H   0  0  0  0  0  0  0  0  0  0  0  0
   -7.0887   10.5283  -35.0777 H   0  0  0  0  0  0  0  0  0  0  0  0
   -2.1150   14.5605  -29.0237 H   0  0  0  0  0  0  0  0  0  0  0  0
   -2.8515   14.5083  -30.6555 H   0  0  0  0  0  0  0  0  0  0  0  0
   -1.9276   13.1107  -30.0445 H   0  0  0  0  0  0  0  0  0  0  0  0
   -6.5469   12.7090  -29.5131 H   0  0  0  0  0  0  0  0  0  0  0  0
   -5.5215   12.0504  -28.2414 H   0  0  0  0  0  0  0  0  0  0  0  0
   -5.2385    9.9071  -29.5508 H   0  0  0  0  0  0  0  0  0  0  0  0
   -5.5359    7.5588  -32.0194 H   0  0  0  0  0  0  0  0  0  0  0  0
   -7.3583    9.2125  -29.4088 H   0  0  0  0  0  0  0  0  0  0  0  0
  1  2  1  0  0  0  0
  1  3  2  0  0  0  0
  2  4  2  0  0  0  0
  3  6  1  0  0  0  0
  4  5  1  0  0  0  0
  4 10  1  0  0  0  0
  5  6  2  0  0  0  0
  5 12  1  0  0  0  0
  6 15  1  0  0  0  0
  7  9  1  0  0  0  0
  7 11  2  0  0  0  0
  7 14  1  0  0  0  0
  8 14  1  0  0  0  0
  9 10  1  0  0  0  0
 10 13  1  1  0  0  0
  1 16  1  0  0  0  0
  2 17  1  0  0  0  0
  3 18  1  0  0  0  0
  8 19  1  0  0  0  0
  8 20  1  0  0  0  0
  8 21  1  0  0  0  0
  9 22  1  0  0  0  0
  9 23  1  0  0  0  0
 10 24  1  0  0  0  0
 12 25  1  0  0  0  0
 13 26  1  0  0  0  0
M  END
> <id>
EN300-1923418

> <smiles>
COC(=O)C[C@@H](O)C=1C=CC=C(Br)C1O

> <IUPAC Name>
methyl (3R)-3-(3-bromo-2-hydroxyphenyl)-3-hydroxypropanoate

> <CAS>
2227904-25-6

> <URL>
https://www.enaminestore.com/catalog/EN300-1923418

> <ROCS_ShapeQuery>
_x1604L0AP1_x0771L0AP1

> <ROCS_TanimotoCombo>
0.904 

> <ROCS_ShapeTanimoto>
0.642 

> <ROCS_ColorTanimoto>
0.262 

> <ROCS_RefTversky>
0.550 

> <ROCS_RefColorTversky>
0.339 

> <ROCS_RefTverskyCombo>
0.889 

> <ROCS_FitTversky>
1.351 

> <ROCS_FitColorTversky>
0.537 

> <ROCS_FitTverskyCombo>
1.888 

> <ROCS_ColorScore>
-3.886

> <ROCS_Overlap>
934.480

> <ROCS_Rank>
235                 

$$$$
untitled-dbase-72_200
  -OEChem-06042309053D

 36 36  0     0  0  0  0  0  0999 V2000
   -4.3774   11.9365  -31.4491 C   0  0  0  0  0  0  0  0  0  0  0  0
   -5.2446   10.9951  -32.0034 C   0  0  0  0  0  0  0  0  0  0  0  0
   -4.4682   12.2558  -30.0943 C   0  0  0  0  0  0  0  0  0  0  0  0
   -6.2026   10.3730  -31.2029 C   0  0  0  0  0  0  0  0  0  0  0  0
   -6.2935   10.6922  -29.8481 C   0  0  0  0  0  0  0  0  0  0  0  0
   -5.4262   11.6337  -29.2938 C   0  0  0  0  0  0  0  0  0  0  0  0
   -6.4580    7.9515  -33.7678 C   0  0  0  0  0  0  0  0  0  0  0  0
   -6.7077    7.8602  -36.6180 C   0  0  0  0  0  0  0  0  0  0  0  0
   -6.4260   10.3549  -36.5373 C   0  0  0  0  0  0  0  0  0  0  0  0
   -4.5750    8.8606  -35.7318 C   0  0  0  0  0  0  0  0  0  0  0  0
   -5.6084    7.4428  -31.4723 C   0  0  0  0  0  0  0  0  0  0  0  0
   -7.1268    9.3635  -31.8203 C   0  0  0  0  0  0  0  0  0  0  0  0
   -6.0884    9.0307  -35.8556 C   0  0  0  0  0  0  0  0  0  0  0  0
   -6.4003    8.2433  -32.4010 N   0  0  0  0  0  0  0  0  0  0  0  0
   -6.3467    6.8216  -34.2406 O   0  0  0  0  0  0  0  0  0  0  0  0
   -7.2371   10.0762  -29.0783 O   0  0  0  0  0  0  0  0  0  0  0  0
   -6.6524    9.0668  -34.5394 O   0  0  0  0  0  0  0  0  0  0  0  0
   -5.5169   12.0941  -27.4570 Br  0  0  0  0  0  0  0  0  0  0  0  0
   -3.6312   12.4207  -32.0722 H   0  0  0  0  0  0  0  0  0  0  0  0
   -5.1654   10.7505  -33.0593 H   0  0  0  0  0  0  0  0  0  0  0  0
   -3.7834   12.9916  -29.6801 H   0  0  0  0  0  0  0  0  0  0  0  0
   -6.4677    6.9078  -36.1318 H   0  0  0  0  0  0  0  0  0  0  0  0
   -7.7967    7.9524  -36.6834 H   0  0  0  0  0  0  0  0  0  0  0  0
   -6.3039    7.7985  -37.6350 H   0  0  0  0  0  0  0  0  0  0  0  0
   -5.9837   11.1975  -35.9937 H   0  0  0  0  0  0  0  0  0  0  0  0
   -7.5086   10.5258  -36.5436 H   0  0  0  0  0  0  0  0  0  0  0  0
   -6.0649   10.3810  -37.5705 H   0  0  0  0  0  0  0  0  0  0  0  0
   -4.1305    9.7000  -35.1850 H   0  0  0  0  0  0  0  0  0  0  0  0
   -4.3146    7.9329  -35.2120 H   0  0  0  0  0  0  0  0  0  0  0  0
   -4.1019    8.8503  -36.7204 H   0  0  0  0  0  0  0  0  0  0  0  0
   -4.5918    7.8575  -31.4046 H   0  0  0  0  0  0  0  0  0  0  0  0
   -6.0790    7.4621  -30.4782 H   0  0  0  0  0  0  0  0  0  0  0  0
   -5.5577    6.4051  -31.8339 H   0  0  0  0  0  0  0  0  0  0  0  0
   -7.8189    8.9645  -31.0708 H   0  0  0  0  0  0  0  0  0  0  0  0
   -7.7315    9.8171  -32.6125 H   0  0  0  0  0  0  0  0  0  0  0  0
   -7.1817   10.3957  -28.1649 H   0  0  0  0  0  0  0  0  0  0  0  0
  1  2  1  0  0  0  0
  1  3  2  0  0  0  0
  2  4  2  0  0  0  0
  3  6  1  0  0  0  0
  4  5  1  0  0  0  0
  4 12  1  0  0  0  0
  5  6  2  0  0  0  0
  5 16  1  0  0  0  0
  6 18  1  0  0  0  0
  7 14  1  0  0  0  0
  7 15  2  0  0  0  0
  7 17  1  0  0  0  0
  8 13  1  0  0  0  0
  9 13  1  0  0  0  0
 10 13  1  0  0  0  0
 11 14  1  0  0  0  0
 12 14  1  0  0  0  0
 13 17  1  0  0  0  0
  1 19  1  0  0  0  0
  2 20  1  0  0  0  0
  3 21  1  0  0  0  0
  8 22  1  0  0  0  0
  8 23  1  0  0  0  0
  8 24  1  0  0  0  0
  9 25  1  0  0  0  0
  9 26  1  0  0  0  0
  9 27  1  0  0  0  0
 10 28  1  0  0  0  0
 10 29  1  0  0  0  0
 10 30  1  0  0  0  0
 11 31  1  0  0  0  0
 11 32  1  0  0  0  0
 11 33  1  0  0  0  0
 12 34  1  0  0  0  0
 12 35  1  0  0  0  0
 16 36  1  0  0  0  0
M  END
> <id>
EN300-170351

> <smiles>
CN(CC=1C=CC=C(Br)C1O)C(=O)OC(C)(C)C

> <MDLNUMBER>
MFCD27980875

> <IUPAC Name>
tert-butyl N-[(3-bromo-2-hydroxyphenyl)methyl]-N-methylcarbamate

> <CAS>
1798003-45-8

> <Purity>
95

> <URL>
https://www.enaminestore.com/catalog/EN300-170351

> <ROCS_ShapeQuery>
_x1604L0AP1_x0771L0AP1

> <ROCS_TanimotoCombo>
0.904 

> <ROCS_ShapeTanimoto>
0.547 

> <ROCS_ColorTanimoto>
0.357 

> <ROCS_RefTversky>
0.523 

> <ROCS_RefColorTversky>
0.408 

> <ROCS_RefTverskyCombo>
0.932 

> <ROCS_FitTversky>
1.088 

> <ROCS_FitColorTversky>
0.741 

> <ROCS_FitTverskyCombo>
1.829 

> <ROCS_ColorScore>
-4.658

> <ROCS_Overlap>
893.132

> <ROCS_Rank>
236                 

$$$$
untitled-dbase-709_23
  -OEChem-06042309053D

 24 24  0     0  0  0  0  0  0999 V2000
   -5.1419   11.0144  -31.9015 C   0  0  0  0  0  0  0  0  0  0  0  0
   -4.5273   12.3769  -30.0033 C   0  0  0  0  0  0  0  0  0  0  0  0
   -6.1125   10.3764  -31.1292 C   0  0  0  0  0  0  0  0  0  0  0  0
   -6.2906   10.7386  -29.7941 C   0  0  0  0  0  0  0  0  0  0  0  0
   -4.3493   12.0147  -31.3385 C   0  0  0  0  0  0  0  0  0  0  0  0
   -5.4980   11.7388  -29.2310 C   0  0  0  0  0  0  0  0  0  0  0  0
   -6.9584    9.2978  -31.7578 C   0  0  0  0  0  0  0  0  0  0  0  0
   -6.2148    8.4551  -32.8026 C   0  0  0  0  0  0  0  0  0  0  0  0
   -7.0695    7.3823  -33.4748 C   0  0  0  0  0  0  0  0  0  0  0  0
   -6.3418    6.6335  -34.4619 N   0  0  0  0  0  0  0  0  0  0  0  0
   -7.2444   10.1048  -29.0515 O   0  0  0  0  0  0  0  0  0  0  0  0
   -3.1515   12.8016  -32.2918 Cl  0  0  0  0  0  0  0  0  0  0  0  0
   -5.7100   12.2587  -27.4201 Br  0  0  0  0  0  0  0  0  0  0  0  0
   -5.0065   10.7293  -32.9427 H   0  0  0  0  0  0  0  0  0  0  0  0
   -3.9068   13.1571  -29.5679 H   0  0  0  0  0  0  0  0  0  0  0  0
   -7.8620    9.7355  -32.1995 H   0  0  0  0  0  0  0  0  0  0  0  0
   -7.3163    8.6362  -30.9580 H   0  0  0  0  0  0  0  0  0  0  0  0
   -5.3628    7.9723  -32.3073 H   0  0  0  0  0  0  0  0  0  0  0  0
   -5.7976    9.1082  -33.5788 H   0  0  0  0  0  0  0  0  0  0  0  0
   -7.9141    7.8503  -33.9904 H   0  0  0  0  0  0  0  0  0  0  0  0
   -7.4740    6.6735  -32.7463 H   0  0  0  0  0  0  0  0  0  0  0  0
   -6.9403    5.9402  -34.8636 H   0  0  0  0  0  0  0  0  0  0  0  0
   -6.0202    7.2517  -35.1793 H   0  0  0  0  0  0  0  0  0  0  0  0
   -7.2530   10.4587  -28.1492 H   0  0  0  0  0  0  0  0  0  0  0  0
  1  3  2  0  0  0  0
  1  5  1  0  0  0  0
  2  5  2  0  0  0  0
  2  6  1  0  0  0  0
  3  4  1  0  0  0  0
  3  7  1  0  0  0  0
  4  6  2  0  0  0  0
  4 11  1  0  0  0  0
  5 12  1  0  0  0  0
  6 13  1  0  0  0  0
  7  8  1  0  0  0  0
  8  9  1  0  0  0  0
  9 10  1  0  0  0  0
  1 14  1  0  0  0  0
  2 15  1  0  0  0  0
  7 16  1  0  0  0  0
  7 17  1  0  0  0  0
  8 18  1  0  0  0  0
  8 19  1  0  0  0  0
  9 20  1  0  0  0  0
  9 21  1  0  0  0  0
 10 22  1  0  0  0  0
 10 23  1  0  0  0  0
 11 24  1  0  0  0  0
M  END
> <id>
EN300-1913892

> <smiles>
NCCCC=1C=C(Cl)C=C(Br)C1O

> <MDLNUMBER>
MFCD09913011

> <IUPAC Name>
2-(3-aminopropyl)-6-bromo-4-chlorophenol

> <CAS>
1000551-70-1

> <URL>
https://www.enaminestore.com/catalog/EN300-1913892

> <ROCS_ShapeQuery>
_x1604L0AP1_x0771L0AP1

> <ROCS_TanimotoCombo>
0.904 

> <ROCS_ShapeTanimoto>
0.527 

> <ROCS_ColorTanimoto>
0.377 

> <ROCS_RefTversky>
0.465 

> <ROCS_RefColorTversky>
0.424 

> <ROCS_RefTverskyCombo>
0.889 

> <ROCS_FitTversky>
1.339 

> <ROCS_FitColorTversky>
0.771 

> <ROCS_FitTverskyCombo>
2.109 

> <ROCS_ColorScore>
-4.844

> <ROCS_Overlap>
787.791

> <ROCS_Rank>
237                 

$$$$
untitled-dbase-1718_39
  -OEChem-06042309053D

 27 27  0     1  0  0  0  0  0999 V2000
   -5.1388   11.4157  -31.8250 C   0  0  0  0  0  0  0  0  0  0  0  0
   -4.4482   12.3613  -29.7118 C   0  0  0  0  0  0  0  0  0  0  0  0
   -6.1184   10.6688  -31.1707 C   0  0  0  0  0  0  0  0  0  0  0  0
   -6.2629   10.7682  -29.7870 C   0  0  0  0  0  0  0  0  0  0  0  0
   -4.3036   12.2619  -31.0955 C   0  0  0  0  0  0  0  0  0  0  0  0
   -5.4278   11.6144  -29.0574 C   0  0  0  0  0  0  0  0  0  0  0  0
   -8.3656    7.3781  -32.9402 C   0  0  0  0  0  0  0  0  0  0  0  0
   -7.0104    9.7602  -31.9786 C   0  0  0  0  0  0  0  0  0  0  0  0
   -6.2470    8.7377  -32.8337 C   0  0  0  0  0  0  0  0  0  0  0  0
   -7.1409    7.8519  -33.7175 C   0  0  1  0  0  0  0  0  0  0  0  0
   -6.4160    6.7110  -34.2251 N   0  0  0  0  0  0  0  0  0  0  0  0
   -7.2260   10.0308  -29.1613 O   0  0  0  0  0  0  0  0  0  0  0  0
   -3.0948   13.1832  -31.9034 Cl  0  0  0  0  0  0  0  0  0  0  0  0
   -5.5934   11.7763  -27.1756 Br  0  0  0  0  0  0  0  0  0  0  0  0
   -5.0296   11.3357  -32.9046 H   0  0  0  0  0  0  0  0  0  0  0  0
   -3.7946   13.0221  -29.1465 H   0  0  0  0  0  0  0  0  0  0  0  0
   -8.0759    6.8044  -32.0527 H   0  0  0  0  0  0  0  0  0  0  0  0
   -8.9767    8.2267  -32.6161 H   0  0  0  0  0  0  0  0  0  0  0  0
   -8.9920    6.7282  -33.5613 H   0  0  0  0  0  0  0  0  0  0  0  0
   -7.7227    9.2466  -31.3213 H   0  0  0  0  0  0  0  0  0  0  0  0
   -7.6242   10.3866  -32.6393 H   0  0  0  0  0  0  0  0  0  0  0  0
   -5.6374    8.0990  -32.1820 H   0  0  0  0  0  0  0  0  0  0  0  0
   -5.5455    9.2911  -33.4721 H   0  0  0  0  0  0  0  0  0  0  0  0
   -7.4848    8.4172  -34.5902 H   0  0  0  0  0  0  0  0  0  0  0  0
   -5.4771    6.7441  -33.8891 H   0  0  0  0  0  0  0  0  0  0  0  0
   -6.8594    5.8751  -33.9084 H   0  0  0  0  0  0  0  0  0  0  0  0
   -7.2083   10.2015  -28.2074 H   0  0  0  0  0  0  0  0  0  0  0  0
  1  3  2  0  0  0  0
  1  5  1  0  0  0  0
  2  5  2  0  0  0  0
  2  6  1  0  0  0  0
  3  4  1  0  0  0  0
  3  8  1  0  0  0  0
  4  6  2  0  0  0  0
  4 12  1  0  0  0  0
  5 13  1  0  0  0  0
  6 14  1  0  0  0  0
  7 10  1  0  0  0  0
  8  9  1  0  0  0  0
  9 10  1  0  0  0  0
 10 11  1  0  0  0  0
  1 15  1  0  0  0  0
  2 16  1  0  0  0  0
  7 17  1  0  0  0  0
  7 18  1  0  0  0  0
  7 19  1  0  0  0  0
  8 20  1  0  0  0  0
  8 21  1  0  0  0  0
  9 22  1  0  0  0  0
  9 23  1  0  0  0  0
 10 24  1  0  0  0  0
 11 25  1  0  0  0  0
 11 26  1  0  0  0  0
 12 27  1  0  0  0  0
M  END
> <id>
EN300-1922578

> <smiles>
CC(N)CCC=1C=C(Cl)C=C(Br)C1O

> <IUPAC Name>
2-(3-aminobutyl)-6-bromo-4-chlorophenol

> <CAS>
2229473-02-1

> <URL>
https://www.enaminestore.com/catalog/EN300-1922578

> <ROCS_ShapeQuery>
_x1604L0AP1_x0771L0AP1

> <ROCS_TanimotoCombo>
0.903 

> <ROCS_ShapeTanimoto>
0.540 

> <ROCS_ColorTanimoto>
0.363 

> <ROCS_RefTversky>
0.480 

> <ROCS_RefColorTversky>
0.413 

> <ROCS_RefTverskyCombo>
0.894 

> <ROCS_FitTversky>
1.299 

> <ROCS_FitColorTversky>
0.751 

> <ROCS_FitTverskyCombo>
2.049 

> <ROCS_ColorScore>
-4.718

> <ROCS_Overlap>
814.752

> <ROCS_Rank>
238                 

$$$$
untitled-dbase-2170_39
  -OEChem-06042309053D

 27 27  0     1  0  0  0  0  0999 V2000
   -5.1388   11.4157  -31.8250 C   0  0  0  0  0  0  0  0  0  0  0  0
   -4.4482   12.3613  -29.7118 C   0  0  0  0  0  0  0  0  0  0  0  0
   -6.1184   10.6688  -31.1707 C   0  0  0  0  0  0  0  0  0  0  0  0
   -6.2629   10.7682  -29.7870 C   0  0  0  0  0  0  0  0  0  0  0  0
   -4.3036   12.2619  -31.0955 C   0  0  0  0  0  0  0  0  0  0  0  0
   -5.4278   11.6144  -29.0574 C   0  0  0  0  0  0  0  0  0  0  0  0
   -8.3656    7.3781  -32.9402 C   0  0  0  0  0  0  0  0  0  0  0  0
   -7.0104    9.7602  -31.9786 C   0  0  0  0  0  0  0  0  0  0  0  0
   -6.2470    8.7377  -32.8337 C   0  0  0  0  0  0  0  0  0  0  0  0
   -7.1409    7.8519  -33.7175 C   0  0  1  0  0  0  0  0  0  0  0  0
   -6.4160    6.7110  -34.2251 N   0  0  0  0  0  0  0  0  0  0  0  0
   -7.2260   10.0308  -29.1613 O   0  0  0  0  0  0  0  0  0  0  0  0
   -3.0948   13.1832  -31.9034 Cl  0  0  0  0  0  0  0  0  0  0  0  0
   -5.5934   11.7763  -27.1756 Br  0  0  0  0  0  0  0  0  0  0  0  0
   -5.0296   11.3357  -32.9046 H   0  0  0  0  0  0  0  0  0  0  0  0
   -3.7946   13.0221  -29.1465 H   0  0  0  0  0  0  0  0  0  0  0  0
   -8.0759    6.8044  -32.0527 H   0  0  0  0  0  0  0  0  0  0  0  0
   -8.9767    8.2267  -32.6161 H   0  0  0  0  0  0  0  0  0  0  0  0
   -8.9920    6.7282  -33.5613 H   0  0  0  0  0  0  0  0  0  0  0  0
   -7.7227    9.2466  -31.3213 H   0  0  0  0  0  0  0  0  0  0  0  0
   -7.6242   10.3866  -32.6393 H   0  0  0  0  0  0  0  0  0  0  0  0
   -5.6374    8.0990  -32.1820 H   0  0  0  0  0  0  0  0  0  0  0  0
   -5.5455    9.2911  -33.4721 H   0  0  0  0  0  0  0  0  0  0  0  0
   -7.4848    8.4172  -34.5902 H   0  0  0  0  0  0  0  0  0  0  0  0
   -5.4771    6.7441  -33.8891 H   0  0  0  0  0  0  0  0  0  0  0  0
   -6.8594    5.8751  -33.9084 H   0  0  0  0  0  0  0  0  0  0  0  0
   -7.2083   10.2015  -28.2074 H   0  0  0  0  0  0  0  0  0  0  0  0
  1  3  2  0  0  0  0
  1  5  1  0  0  0  0
  2  5  2  0  0  0  0
  2  6  1  0  0  0  0
  3  4  1  0  0  0  0
  3  8  1  0  0  0  0
  4  6  2  0  0  0  0
  4 12  1  0  0  0  0
  5 13  1  0  0  0  0
  6 14  1  0  0  0  0
  7 10  1  6  0  0  0
  8  9  1  0  0  0  0
  9 10  1  0  0  0  0
 10 11  1  0  0  0  0
  1 15  1  0  0  0  0
  2 16  1  0  0  0  0
  7 17  1  0  0  0  0
  7 18  1  0  0  0  0
  7 19  1  0  0  0  0
  8 20  1  0  0  0  0
  8 21  1  0  0  0  0
  9 22  1  0  0  0  0
  9 23  1  0  0  0  0
 10 24  1  0  0  0  0
 11 25  1  0  0  0  0
 11 26  1  0  0  0  0
 12 27  1  0  0  0  0
M  END
> <id>
EN300-1922592

> <smiles>
C[C@H](N)CCC=1C=C(Cl)C=C(Br)C1O

> <IUPAC Name>
2-[(3S)-3-aminobutyl]-6-bromo-4-chlorophenol

> <CAS>
2227794-24-1

> <URL>
https://www.enaminestore.com/catalog/EN300-1922592

> <ROCS_ShapeQuery>
_x1604L0AP1_x0771L0AP1

> <ROCS_TanimotoCombo>
0.903 

> <ROCS_ShapeTanimoto>
0.540 

> <ROCS_ColorTanimoto>
0.363 

> <ROCS_RefTversky>
0.480 

> <ROCS_RefColorTversky>
0.413 

> <ROCS_RefTverskyCombo>
0.894 

> <ROCS_FitTversky>
1.299 

> <ROCS_FitColorTversky>
0.751 

> <ROCS_FitTverskyCombo>
2.049 

> <ROCS_ColorScore>
-4.718

> <ROCS_Overlap>
814.752

> <ROCS_Rank>
239                 

$$$$
untitled-dbase-1704_4
  -OEChem-06042309053D

 17 17  0     0  0  0  0  0  0999 V2000
   -3.1038   14.2294  -31.3894 C   0  0  0  0  0  0  0  0  0  0  0  0
   -4.5622   12.4428  -29.8158 C   0  0  0  0  0  0  0  0  0  0  0  0
   -5.5548   11.7582  -29.1146 C   0  0  0  0  0  0  0  0  0  0  0  0
   -5.0379   11.1198  -31.7807 C   0  0  0  0  0  0  0  0  0  0  0  0
   -4.3038   12.1236  -31.1489 C   0  0  0  0  0  0  0  0  0  0  0  0
   -6.2889   10.7544  -29.7463 C   0  0  0  0  0  0  0  0  0  0  0  0
   -6.0305   10.4352  -31.0794 C   0  0  0  0  0  0  0  0  0  0  0  0
   -3.2423   12.8561  -31.8976 C   0  0  0  0  0  0  0  0  0  0  0  0
   -2.9949   15.3133  -30.9897 N   0  0  0  0  0  0  0  0  0  0  0  0
   -7.2508   10.1032  -29.0328 O   0  0  0  0  0  0  0  0  0  0  0  0
   -7.0072    9.0760  -31.9690 Br  0  0  0  0  0  0  0  0  0  0  0  0
   -3.9957   13.2232  -29.3145 H   0  0  0  0  0  0  0  0  0  0  0  0
   -5.7505   12.0124  -28.0762 H   0  0  0  0  0  0  0  0  0  0  0  0
   -4.8298   10.8780  -32.8208 H   0  0  0  0  0  0  0  0  0  0  0  0
   -3.4759   12.8829  -32.9707 H   0  0  0  0  0  0  0  0  0  0  0  0
   -2.2796   12.3336  -31.8126 H   0  0  0  0  0  0  0  0  0  0  0  0
   -7.6824    9.4344  -29.5867 H   0  0  0  0  0  0  0  0  0  0  0  0
  1  8  1  0  0  0  0
  1  9  3  0  0  0  0
  2  3  1  0  0  0  0
  2  5  2  0  0  0  0
  3  6  2  0  0  0  0
  4  5  1  0  0  0  0
  4  7  2  0  0  0  0
  5  8  1  0  0  0  0
  6  7  1  0  0  0  0
  6 10  1  0  0  0  0
  7 11  1  0  0  0  0
  2 12  1  0  0  0  0
  3 13  1  0  0  0  0
  4 14  1  0  0  0  0
  8 15  1  0  0  0  0
  8 16  1  0  0  0  0
 10 17  1  0  0  0  0
M  END
> <id>
EN300-1894070

> <smiles>
OC=1C=CC(CC#N)=CC1Br

> <MDLNUMBER>
MFCD18391513

> <IUPAC Name>
2-(3-bromo-4-hydroxyphenyl)acetonitrile

> <CAS>
73348-21-7

> <URL>
https://www.enaminestore.com/catalog/EN300-1894070

> <ROCS_ShapeQuery>
_x1604L0AP1_x0771L0AP1

> <ROCS_TanimotoCombo>
0.903 

> <ROCS_ShapeTanimoto>
0.491 

> <ROCS_ColorTanimoto>
0.413 

> <ROCS_RefTversky>
0.431 

> <ROCS_RefColorTversky>
0.429 

> <ROCS_RefTverskyCombo>
0.860 

> <ROCS_FitTversky>
1.393 

> <ROCS_FitColorTversky>
0.914 

> <ROCS_FitTverskyCombo>
2.307 

> <ROCS_ColorScore>
-4.877

> <ROCS_Overlap>
728.995

> <ROCS_Rank>
240                 

$$$$
untitled-dbase-2315_5
  -OEChem-06042309053D

 21 21  0     0  0  0  0  0  0999 V2000
   -4.8106   12.5984  -29.4047 C   0  0  0  0  0  0  0  0  0  0  0  0
   -5.8215   11.8123  -28.8520 C   0  0  0  0  0  0  0  0  0  0  0  0
   -4.3804   12.3643  -30.7108 C   0  0  0  0  0  0  0  0  0  0  0  0
   -4.9611   11.3440  -31.4641 C   0  0  0  0  0  0  0  0  0  0  0  0
   -6.4023   10.7920  -29.6052 C   0  0  0  0  0  0  0  0  0  0  0  0
   -5.9721   10.5579  -30.9113 C   0  0  0  0  0  0  0  0  0  0  0  0
   -6.2541   12.0778  -27.4864 C   0  0  0  0  0  0  0  0  0  0  0  0
   -3.2971   13.2230  -31.2772 C   0  0  0  0  0  0  0  0  0  0  0  0
   -4.4805   11.1152  -32.8638 C   0  0  0  0  0  0  0  0  0  0  0  0
   -5.5040   12.5348  -26.6214 O   0  0  0  0  0  0  0  0  0  0  0  0
   -7.3909   10.0326  -29.0480 O   0  0  0  0  0  0  0  0  0  0  0  0
   -6.7698    9.1592  -31.9283 Br  0  0  0  0  0  0  0  0  0  0  0  0
   -4.3581   13.3967  -28.8203 H   0  0  0  0  0  0  0  0  0  0  0  0
   -7.3117   11.8506  -27.2343 H   0  0  0  0  0  0  0  0  0  0  0  0
   -2.3155   12.7814  -31.0702 H   0  0  0  0  0  0  0  0  0  0  0  0
   -3.4080   13.3361  -32.3625 H   0  0  0  0  0  0  0  0  0  0  0  0
   -3.3251   14.2314  -30.8463 H   0  0  0  0  0  0  0  0  0  0  0  0
   -3.6540   10.3972  -32.8647 H   0  0  0  0  0  0  0  0  0  0  0  0
   -5.2860   10.7268  -33.4967 H   0  0  0  0  0  0  0  0  0  0  0  0
   -4.1359   12.0507  -33.3181 H   0  0  0  0  0  0  0  0  0  0  0  0
   -7.5654   10.3279  -28.1418 H   0  0  0  0  0  0  0  0  0  0  0  0
  1  2  1  0  0  0  0
  1  3  2  0  0  0  0
  2  5  2  0  0  0  0
  2  7  1  0  0  0  0
  3  4  1  0  0  0  0
  3  8  1  0  0  0  0
  4  6  2  0  0  0  0
  4  9  1  0  0  0  0
  5  6  1  0  0  0  0
  5 11  1  0  0  0  0
  6 12  1  0  0  0  0
  7 10  2  0  0  0  0
  1 13  1  0  0  0  0
  7 14  1  0  0  0  0
  8 15  1  0  0  0  0
  8 16  1  0  0  0  0
  8 17  1  0  0  0  0
  9 18  1  0  0  0  0
  9 19  1  0  0  0  0
  9 20  1  0  0  0  0
 11 21  1  0  0  0  0
M  END
> <id>
EN300-3005928

> <smiles>
CC=1C=C(C=O)C(O)=C(Br)C1C

> <MDLNUMBER>
MFCD06740694

> <IUPAC Name>
3-bromo-2-hydroxy-4,5-dimethylbenzaldehyde

> <CAS>
886503-97-5

> <Purity>
95

> <URL>
https://www.enaminestore.com/catalog/EN300-3005928

> <ROCS_ShapeQuery>
_x1604L0AP1_x0771L0AP1

> <ROCS_TanimotoCombo>
0.903 

> <ROCS_ShapeTanimoto>
0.472 

> <ROCS_ColorTanimoto>
0.431 

> <ROCS_RefTversky>
0.429 

> <ROCS_RefColorTversky>
0.443 

> <ROCS_RefTverskyCombo>
0.871 

> <ROCS_FitTversky>
1.273 

> <ROCS_FitColorTversky>
0.943 

> <ROCS_FitTverskyCombo>
2.216 

> <ROCS_ColorScore>
-5.029

> <ROCS_Overlap>
726.268

> <ROCS_Rank>
241                 

$$$$
untitled-dbase-1165_1230
  -OEChem-06042309053D

 28 28  0     0  0  0  0  0  0999 V2000
   -5.1504   11.3177  -31.7974 C   0  0  0  0  0  0  0  0  0  0  0  0
   -4.4228   12.3368  -29.7313 C   0  0  0  0  0  0  0  0  0  0  0  0
   -4.2907   12.1746  -31.1103 C   0  0  0  0  0  0  0  0  0  0  0  0
   -6.1425   10.6230  -31.1053 C   0  0  0  0  0  0  0  0  0  0  0  0
   -6.2747   10.7852  -29.7262 C   0  0  0  0  0  0  0  0  0  0  0  0
   -5.4149   11.6421  -29.0392 C   0  0  0  0  0  0  0  0  0  0  0  0
   -2.8684   14.2593  -31.2305 C   0  0  0  0  0  0  0  0  0  0  0  0
   -1.4693   14.7609  -31.4789 C   0  0  0  0  0  0  0  0  0  0  0  0
   -6.7257   10.0394  -34.1582 C   0  0  0  0  0  0  0  0  0  0  0  0
   -3.2296   12.9164  -31.8505 C   0  0  0  0  0  0  0  0  0  0  0  0
   -6.4461    9.1618  -32.9569 C   0  0  0  0  0  0  0  0  0  0  0  0
   -3.6640   14.9149  -30.5589 O   0  0  0  0  0  0  0  0  0  0  0  0
   -7.2506   10.0962  -29.0669 O   0  0  0  0  0  0  0  0  0  0  0  0
   -6.9743    9.7892  -31.7902 O   0  0  0  0  0  0  0  0  0  0  0  0
   -5.5637   11.8882  -27.1653 Br  0  0  0  0  0  0  0  0  0  0  0  0
   -5.0492   11.1893  -32.8724 H   0  0  0  0  0  0  0  0  0  0  0  0
   -3.7473   13.0071  -29.2042 H   0  0  0  0  0  0  0  0  0  0  0  0
   -1.4499   15.3637  -32.3911 H   0  0  0  0  0  0  0  0  0  0  0  0
   -1.1484   15.3815  -30.6387 H   0  0  0  0  0  0  0  0  0  0  0  0
   -0.7920   13.9122  -31.6019 H   0  0  0  0  0  0  0  0  0  0  0  0
   -7.8012   10.1821  -34.2954 H   0  0  0  0  0  0  0  0  0  0  0  0
   -6.2514   11.0192  -34.0393 H   0  0  0  0  0  0  0  0  0  0  0  0
   -6.3099    9.5928  -35.0675 H   0  0  0  0  0  0  0  0  0  0  0  0
   -2.3090   12.3142  -31.9052 H   0  0  0  0  0  0  0  0  0  0  0  0
   -3.5449   13.1011  -32.8895 H   0  0  0  0  0  0  0  0  0  0  0  0
   -5.3688    9.0231  -32.8254 H   0  0  0  0  0  0  0  0  0  0  0  0
   -6.9213    8.1837  -33.0770 H   0  0  0  0  0  0  0  0  0  0  0  0
   -7.7529    9.5507  -29.6912 H   0  0  0  0  0  0  0  0  0  0  0  0
  1  3  1  0  0  0  0
  1  4  2  0  0  0  0
  2  3  2  0  0  0  0
  2  6  1  0  0  0  0
  3 10  1  0  0  0  0
  4  5  1  0  0  0  0
  4 14  1  0  0  0  0
  5  6  2  0  0  0  0
  5 13  1  0  0  0  0
  6 15  1  0  0  0  0
  7  8  1  0  0  0  0
  7 10  1  0  0  0  0
  7 12  2  0  0  0  0
  9 11  1  0  0  0  0
 11 14  1  0  0  0  0
  1 16  1  0  0  0  0
  2 17  1  0  0  0  0
  8 18  1  0  0  0  0
  8 19  1  0  0  0  0
  8 20  1  0  0  0  0
  9 21  1  0  0  0  0
  9 22  1  0  0  0  0
  9 23  1  0  0  0  0
 10 24  1  0  0  0  0
 10 25  1  0  0  0  0
 11 26  1  0  0  0  0
 11 27  1  0  0  0  0
 13 28  1  0  0  0  0
M  END
> <id>
EN300-1920211

> <smiles>
CCOC=1C=C(CC(=O)C)C=C(Br)C1O

> <IUPAC Name>
1-(3-bromo-5-ethoxy-4-hydroxyphenyl)propan-2-one

> <CAS>
2229287-61-8

> <URL>
https://www.enaminestore.com/catalog/EN300-1920211

> <ROCS_ShapeQuery>
_x1604L0AP1_x0771L0AP1

> <ROCS_TanimotoCombo>
0.903 

> <ROCS_ShapeTanimoto>
0.622 

> <ROCS_ColorTanimoto>
0.281 

> <ROCS_RefTversky>
0.538 

> <ROCS_RefColorTversky>
0.340 

> <ROCS_RefTverskyCombo>
0.879 

> <ROCS_FitTversky>
1.333 

> <ROCS_FitColorTversky>
0.618 

> <ROCS_FitTverskyCombo>
1.951 

> <ROCS_ColorScore>
-3.886

> <ROCS_Overlap>
914.854

> <ROCS_Rank>
242                 

$$$$
untitled-dbase-619_7
  -OEChem-06042309053D

 21 22  0     0  0  0  0  0  0999 V2000
   -4.7566   11.7003  -31.5104 C   0  0  0  0  0  0  0  0  0  0  0  0
   -4.7629   12.6516  -29.2896 C   0  0  0  0  0  0  0  0  0  0  0  0
   -5.6865    8.5433  -32.3340 C   0  0  0  0  0  0  0  0  0  0  0  0
   -5.7275   10.7788  -31.1185 C   0  0  0  0  0  0  0  0  0  0  0  0
   -6.2162   10.7936  -29.8121 C   0  0  0  0  0  0  0  0  0  0  0  0
   -4.2742   12.6367  -30.5959 C   0  0  0  0  0  0  0  0  0  0  0  0
   -5.7339   11.7300  -28.8976 C   0  0  0  0  0  0  0  0  0  0  0  0
   -6.2096    9.8228  -32.0792 C   0  0  0  0  0  0  0  0  0  0  0  0
   -6.4960    8.0516  -33.3236 C   0  0  0  0  0  0  0  0  0  0  0  0
   -7.2629   10.1032  -32.8517 N   0  0  0  0  0  0  0  0  0  0  0  0
   -6.5091    6.8807  -33.9907 N   0  0  0  0  0  0  0  0  0  0  0  0
   -7.4407    8.9734  -33.6411 O   0  0  0  0  0  0  0  0  0  0  0  0
   -7.1670    9.8893  -29.4322 O   0  0  0  0  0  0  0  0  0  0  0  0
   -3.0761   13.7739  -31.0794 Cl  0  0  0  0  0  0  0  0  0  0  0  0
   -6.3722   11.7837  -27.1129 Br  0  0  0  0  0  0  0  0  0  0  0  0
   -4.3734   11.6915  -32.5294 H   0  0  0  0  0  0  0  0  0  0  0  0
   -4.3837   13.3833  -28.5793 H   0  0  0  0  0  0  0  0  0  0  0  0
   -4.8458    8.0481  -31.8694 H   0  0  0  0  0  0  0  0  0  0  0  0
   -7.2340    6.6529  -34.6889 H   0  0  0  0  0  0  0  0  0  0  0  0
   -5.8528    6.1150  -33.7713 H   0  0  0  0  0  0  0  0  0  0  0  0
   -7.4021   10.0266  -28.5025 H   0  0  0  0  0  0  0  0  0  0  0  0
  1  4  2  0  0  0  0
  1  6  1  0  0  0  0
  2  6  2  0  0  0  0
  2  7  1  0  0  0  0
  3  8  1  0  0  0  0
  3  9  2  0  0  0  0
  4  5  1  0  0  0  0
  4  8  1  0  0  0  0
  5  7  2  0  0  0  0
  5 13  1  0  0  0  0
  6 14  1  0  0  0  0
  7 15  1  0  0  0  0
  8 10  2  0  0  0  0
  9 11  1  0  0  0  0
  9 12  1  0  0  0  0
 10 12  1  0  0  0  0
  1 16  1  0  0  0  0
  2 17  1  0  0  0  0
  3 18  1  0  0  0  0
 11 19  1  0  0  0  0
 11 20  1  0  0  0  0
 13 21  1  0  0  0  0
M  END
> <id>
EN300-1922946

> <smiles>
NC1=CC(=NO1)C=2C=C(Cl)C=C(Br)C2O

> <IUPAC Name>
2-(5-amino-1,2-oxazol-3-yl)-6-bromo-4-chlorophenol

> <CAS>
2228342-54-7

> <URL>
https://www.enaminestore.com/catalog/EN300-1922946

> <ROCS_ShapeQuery>
_x1604L0AP1_x0771L0AP1

> <ROCS_TanimotoCombo>
0.903 

> <ROCS_ShapeTanimoto>
0.591 

> <ROCS_ColorTanimoto>
0.313 

> <ROCS_RefTversky>
0.528 

> <ROCS_RefColorTversky>
0.407 

> <ROCS_RefTverskyCombo>
0.936 

> <ROCS_FitTversky>
1.249 

> <ROCS_FitColorTversky>
0.573 

> <ROCS_FitTverskyCombo>
1.822 

> <ROCS_ColorScore>
-4.691

> <ROCS_Overlap>
898.877

> <ROCS_Rank>
243                 

$$$$
untitled-dbase-1821_232
  -OEChem-06042309053D

 24 24  0     1  0  0  0  0  0999 V2000
   -4.3568   11.9635  -31.4070 C   0  0  0  0  0  0  0  0  0  0  0  0
   -5.1509   10.9549  -31.9527 C   0  0  0  0  0  0  0  0  0  0  0  0
   -4.5282   12.3427  -30.0756 C   0  0  0  0  0  0  0  0  0  0  0  0
   -6.1165   10.3256  -31.1670 C   0  0  0  0  0  0  0  0  0  0  0  0
   -6.2879   10.7048  -29.8357 C   0  0  0  0  0  0  0  0  0  0  0  0
   -5.4938   11.7134  -29.2900 C   0  0  0  0  0  0  0  0  0  0  0  0
   -6.9663    9.2367  -31.7785 C   0  0  0  0  0  0  0  0  0  0  0  0
   -7.0814    7.3323  -33.4262 C   0  0  0  0  0  0  0  0  0  0  0  0
   -6.2258    8.4743  -32.8823 C   0  0  2  0  0  0  0  0  0  0  0  0
   -7.2379   10.0808  -29.0803 O   0  0  0  0  0  0  0  0  0  0  0  0
   -6.3589    6.6199  -34.4253 O   0  0  0  0  0  0  0  0  0  0  0  0
   -5.0321    7.9174  -32.3284 O   0  0  0  0  0  0  0  0  0  0  0  0
   -5.6952   12.2566  -27.4849 Br  0  0  0  0  0  0  0  0  0  0  0  0
   -3.6046   12.4532  -32.0185 H   0  0  0  0  0  0  0  0  0  0  0  0
   -5.0090   10.6641  -32.9901 H   0  0  0  0  0  0  0  0  0  0  0  0
   -3.8996   13.1303  -29.6677 H   0  0  0  0  0  0  0  0  0  0  0  0
   -7.2866    8.5452  -30.9884 H   0  0  0  0  0  0  0  0  0  0  0  0
   -7.8792    9.6967  -32.1781 H   0  0  0  0  0  0  0  0  0  0  0  0
   -7.3336    6.6181  -32.6359 H   0  0  0  0  0  0  0  0  0  0  0  0
   -8.0075    7.7019  -33.8775 H   0  0  0  0  0  0  0  0  0  0  0  0
   -5.9260    9.1445  -33.6965 H   0  0  0  0  0  0  0  0  0  0  0  0
   -7.2420   10.4462  -28.1826 H   0  0  0  0  0  0  0  0  0  0  0  0
   -6.9422    5.9100  -34.7364 H   0  0  0  0  0  0  0  0  0  0  0  0
   -4.5915    7.4450  -33.0502 H   0  0  0  0  0  0  0  0  0  0  0  0
  1  2  1  0  0  0  0
  1  3  2  0  0  0  0
  2  4  2  0  0  0  0
  3  6  1  0  0  0  0
  4  5  1  0  0  0  0
  4  7  1  0  0  0  0
  5  6  2  0  0  0  0
  5 10  1  0  0  0  0
  6 13  1  0  0  0  0
  7  9  1  0  0  0  0
  8  9  1  0  0  0  0
  8 11  1  0  0  0  0
  9 12  1  0  0  0  0
  1 14  1  0  0  0  0
  2 15  1  0  0  0  0
  3 16  1  0  0  0  0
  7 17  1  0  0  0  0
  7 18  1  0  0  0  0
  8 19  1  0  0  0  0
  8 20  1  0  0  0  0
  9 21  1  0  0  0  0
 10 22  1  0  0  0  0
 11 23  1  0  0  0  0
 12 24  1  0  0  0  0
M  END
> <id>
EN300-37476120

> <smiles>
OCC(O)CC=1C=CC=C(Br)C1O

> <IUPAC Name>
3-(3-bromo-2-hydroxyphenyl)propane-1,2-diol

> <URL>
https://www.enaminestore.com/catalog/EN300-37476120

> <ROCS_ShapeQuery>
_x1604L0AP1_x0771L0AP1

> <ROCS_TanimotoCombo>
0.903 

> <ROCS_ShapeTanimoto>
0.486 

> <ROCS_ColorTanimoto>
0.417 

> <ROCS_RefTversky>
0.443 

> <ROCS_RefColorTversky>
0.503 

> <ROCS_RefTverskyCombo>
0.946 

> <ROCS_FitTversky>
1.252 

> <ROCS_FitColorTversky>
0.708 

> <ROCS_FitTverskyCombo>
1.960 

> <ROCS_ColorScore>
-5.794

> <ROCS_Overlap>
750.807

> <ROCS_Rank>
244                 

$$$$
untitled-dbase-487_116
  -OEChem-06042309053D

 21 21  0     1  0  0  0  0  0999 V2000
   -6.2243    7.7735  -33.7783 C   0  0  0  0  0  0  0  0  0  0  0  0
   -4.8857   11.1806  -31.7293 C   0  0  0  0  0  0  0  0  0  0  0  0
   -4.6992   12.6121  -29.7921 C   0  0  0  0  0  0  0  0  0  0  0  0
   -5.8656   10.4297  -31.0801 C   0  0  0  0  0  0  0  0  0  0  0  0
   -6.2624   10.7700  -29.7869 C   0  0  0  0  0  0  0  0  0  0  0  0
   -4.3024   12.2718  -31.0853 C   0  0  0  0  0  0  0  0  0  0  0  0
   -5.6791   11.8613  -29.1428 C   0  0  0  0  0  0  0  0  0  0  0  0
   -5.9432    9.1088  -33.2260 C   0  0  0  0  0  0  0  0  0  0  0  0
   -6.4771    9.2653  -31.7878 C   0  0  2  0  0  0  0  0  0  0  0  0
   -6.4447    6.7210  -34.2142 N   0  0  0  0  0  0  0  0  0  0  0  0
   -7.2222   10.0255  -29.1649 O   0  0  0  0  0  0  0  0  0  0  0  0
   -7.9001    9.4419  -31.8244 O   0  0  0  0  0  0  0  0  0  0  0  0
   -3.0931   13.1979  -31.8868 Cl  0  0  0  0  0  0  0  0  0  0  0  0
   -6.1916   12.3549  -27.3854 Br  0  0  0  0  0  0  0  0  0  0  0  0
   -4.5794   10.9121  -32.7382 H   0  0  0  0  0  0  0  0  0  0  0  0
   -4.2415   13.4636  -29.2932 H   0  0  0  0  0  0  0  0  0  0  0  0
   -4.8580    9.2677  -33.2382 H   0  0  0  0  0  0  0  0  0  0  0  0
   -6.3935    9.8632  -33.8826 H   0  0  0  0  0  0  0  0  0  0  0  0
   -6.2990    8.3341  -31.2224 H   0  0  0  0  0  0  0  0  0  0  0  0
   -7.5187    9.3105  -29.7483 H   0  0  0  0  0  0  0  0  0  0  0  0
   -8.2531    8.6702  -32.2885 H   0  0  0  0  0  0  0  0  0  0  0  0
  1  8  1  0  0  0  0
  1 10  3  0  0  0  0
  2  4  2  0  0  0  0
  2  6  1  0  0  0  0
  3  6  2  0  0  0  0
  3  7  1  0  0  0  0
  4  5  1  0  0  0  0
  4  9  1  0  0  0  0
  5  7  2  0  0  0  0
  5 11  1  0  0  0  0
  6 13  1  0  0  0  0
  7 14  1  0  0  0  0
  8  9  1  0  0  0  0
  9 12  1  0  0  0  0
  2 15  1  0  0  0  0
  3 16  1  0  0  0  0
  8 17  1  0  0  0  0
  8 18  1  0  0  0  0
  9 19  1  0  0  0  0
 11 20  1  0  0  0  0
 12 21  1  0  0  0  0
M  END
> <id>
EN300-1922888

> <smiles>
OC(CC#N)C=1C=C(Cl)C=C(Br)C1O

> <IUPAC Name>
3-(3-bromo-5-chloro-2-hydroxyphenyl)-3-hydroxypropanenitrile

> <CAS>
2229214-93-9

> <URL>
https://www.enaminestore.com/catalog/EN300-1922888

> <ROCS_ShapeQuery>
_x1604L0AP1_x0771L0AP1

> <ROCS_TanimotoCombo>
0.903 

> <ROCS_ShapeTanimoto>
0.567 

> <ROCS_ColorTanimoto>
0.336 

> <ROCS_RefTversky>
0.498 

> <ROCS_RefColorTversky>
0.410 

> <ROCS_RefTverskyCombo>
0.908 

> <ROCS_FitTversky>
1.322 

> <ROCS_FitColorTversky>
0.650 

> <ROCS_FitTverskyCombo>
1.972 

> <ROCS_ColorScore>
-4.701

> <ROCS_Overlap>
845.052

> <ROCS_Rank>
245                 

$$$$
untitled-dbase-1064_6
  -OEChem-06042309053D

 18 18  0     0  0  0  0  0  0999 V2000
   -2.9936   15.3623  -30.9853 C   0  0  0  0  0  0  0  0  0  0  0  0
   -3.1054   14.2402  -31.3979 C   0  0  0  0  0  0  0  0  0  0  0  0
   -4.5662   12.4475  -29.8183 C   0  0  0  0  0  0  0  0  0  0  0  0
   -5.5573   11.7616  -29.1163 C   0  0  0  0  0  0  0  0  0  0  0  0
   -5.0389   11.1212  -31.7816 C   0  0  0  0  0  0  0  0  0  0  0  0
   -4.3070   12.1273  -31.1510 C   0  0  0  0  0  0  0  0  0  0  0  0
   -6.2892   10.7555  -29.7469 C   0  0  0  0  0  0  0  0  0  0  0  0
   -6.0300   10.4353  -31.0796 C   0  0  0  0  0  0  0  0  0  0  0  0
   -3.2470   12.8611  -31.9004 C   0  0  0  0  0  0  0  0  0  0  0  0
   -7.2498   10.1031  -29.0327 O   0  0  0  0  0  0  0  0  0  0  0  0
   -7.0037    9.0730  -31.9676 Br  0  0  0  0  0  0  0  0  0  0  0  0
   -2.8950   16.3573  -30.6190 H   0  0  0  0  0  0  0  0  0  0  0  0
   -4.0014   13.2297  -29.3179 H   0  0  0  0  0  0  0  0  0  0  0  0
   -5.7537   12.0166  -28.0782 H   0  0  0  0  0  0  0  0  0  0  0  0
   -4.8302   10.8786  -32.8214 H   0  0  0  0  0  0  0  0  0  0  0  0
   -3.4756   12.8889  -32.9778 H   0  0  0  0  0  0  0  0  0  0  0  0
   -2.2779   12.3432  -31.8180 H   0  0  0  0  0  0  0  0  0  0  0  0
   -7.6799    9.4327  -29.5858 H   0  0  0  0  0  0  0  0  0  0  0  0
  1  2  3  0  0  0  0
  2  9  1  0  0  0  0
  3  4  1  0  0  0  0
  3  6  2  0  0  0  0
  4  7  2  0  0  0  0
  5  6  1  0  0  0  0
  5  8  2  0  0  0  0
  6  9  1  0  0  0  0
  7  8  1  0  0  0  0
  7 10  1  0  0  0  0
  8 11  1  0  0  0  0
  1 12  1  0  0  0  0
  3 13  1  0  0  0  0
  4 14  1  0  0  0  0
  5 15  1  0  0  0  0
  9 16  1  0  0  0  0
  9 17  1  0  0  0  0
 10 18  1  0  0  0  0
M  END
> <id>
EN300-1906335

> <smiles>
OC=1C=CC(CC#C)=CC1Br

> <MDLNUMBER>
MFCD33501284

> <IUPAC Name>
2-bromo-4-(prop-2-yn-1-yl)phenol

> <CAS>
2228973-05-3

> <URL>
https://www.enaminestore.com/catalog/EN300-1906335

> <ROCS_ShapeQuery>
_x1604L0AP1_x0771L0AP1

> <ROCS_TanimotoCombo>
0.903 

> <ROCS_ShapeTanimoto>
0.490 

> <ROCS_ColorTanimoto>
0.413 

> <ROCS_RefTversky>
0.431 

> <ROCS_RefColorTversky>
0.429 

> <ROCS_RefTverskyCombo>
0.860 

> <ROCS_FitTversky>
1.393 

> <ROCS_FitColorTversky>
0.914 

> <ROCS_FitTverskyCombo>
2.308 

> <ROCS_ColorScore>
-4.878

> <ROCS_Overlap>
727.776

> <ROCS_Rank>
246                 

$$$$
untitled-dbase-219_0
  -OEChem-06042309053D

 21 21  0     0  0  0  0  0  0999 V2000
   -4.3264   12.1169  -31.2513 C   0  0  0  0  0  0  0  0  0  0  0  0
   -5.0756   11.0963  -31.8366 C   0  0  0  0  0  0  0  0  0  0  0  0
   -4.5481   12.4694  -29.9200 C   0  0  0  0  0  0  0  0  0  0  0  0
   -5.5192   11.8013  -29.1741 C   0  0  0  0  0  0  0  0  0  0  0  0
   -6.2685   10.7807  -29.7594 C   0  0  0  0  0  0  0  0  0  0  0  0
   -6.0466   10.4282  -31.0907 C   0  0  0  0  0  0  0  0  0  0  0  0
   -5.7558   12.1658  -27.7804 C   0  0  0  0  0  0  0  0  0  0  0  0
   -3.7473   13.5403  -29.3402 C   0  0  0  0  0  0  0  0  0  0  0  0
   -3.1820   15.8468  -29.5407 C   0  0  0  0  0  0  0  0  0  0  0  0
   -6.6000   11.6091  -27.0781 O   0  0  0  0  0  0  0  0  0  0  0  0
   -3.0046   13.4036  -28.3612 O   0  0  0  0  0  0  0  0  0  0  0  0
   -7.2167   10.1327  -29.0211 O   0  0  0  0  0  0  0  0  0  0  0  0
   -3.9199   14.7158  -30.0163 O   0  0  0  0  0  0  0  0  0  0  0  0
   -7.0433    9.0470  -31.9234 Br  0  0  0  0  0  0  0  0  0  0  0  0
   -3.5725   12.6301  -31.8430 H   0  0  0  0  0  0  0  0  0  0  0  0
   -4.8888   10.8353  -32.8752 H   0  0  0  0  0  0  0  0  0  0  0  0
   -5.1356   12.9832  -27.3589 H   0  0  0  0  0  0  0  0  0  0  0  0
   -3.4069   16.7170  -30.1622 H   0  0  0  0  0  0  0  0  0  0  0  0
   -2.1122   15.6265  -29.5770 H   0  0  0  0  0  0  0  0  0  0  0  0
   -3.4746   16.0537  -28.5086 H   0  0  0  0  0  0  0  0  0  0  0  0
   -7.2437   10.4958  -28.1231 H   0  0  0  0  0  0  0  0  0  0  0  0
  1  2  1  0  0  0  0
  1  3  2  0  0  0  0
  2  6  2  0  0  0  0
  3  4  1  0  0  0  0
  3  8  1  0  0  0  0
  4  5  2  0  0  0  0
  4  7  1  0  0  0  0
  5  6  1  0  0  0  0
  5 12  1  0  0  0  0
  6 14  1  0  0  0  0
  7 10  2  0  0  0  0
  8 11  2  0  0  0  0
  8 13  1  0  0  0  0
  9 13  1  0  0  0  0
  1 15  1  0  0  0  0
  2 16  1  0  0  0  0
  7 17  1  0  0  0  0
  9 18  1  0  0  0  0
  9 19  1  0  0  0  0
  9 20  1  0  0  0  0
 12 21  1  0  0  0  0
M  END
> <id>
EN300-300276

> <smiles>
COC(=O)C=1C=CC(Br)=C(O)C1C=O

> <MDLNUMBER>
MFCD31629038

> <IUPAC Name>
methyl 4-bromo-2-formyl-3-hydroxybenzoate

> <CAS>
2092432-54-5

> <Purity>
95

> <URL>
https://www.enaminestore.com/catalog/EN300-300276

> <ROCS_ShapeQuery>
_x1604L0AP1_x0771L0AP1

> <ROCS_TanimotoCombo>
0.903 

> <ROCS_ShapeTanimoto>
0.513 

> <ROCS_ColorTanimoto>
0.389 

> <ROCS_RefTversky>
0.472 

> <ROCS_RefColorTversky>
0.435 

> <ROCS_RefTverskyCombo>
0.907 

> <ROCS_FitTversky>
1.205 

> <ROCS_FitColorTversky>
0.789 

> <ROCS_FitTverskyCombo>
1.994 

> <ROCS_ColorScore>
-4.960

> <ROCS_Overlap>
801.706

> <ROCS_Rank>
247                 

$$$$
untitled-dbase-2140_181
  -OEChem-06042309053D

 24 24  0     0  0  0  0  0  0999 V2000
   -4.4557   12.3868  -29.7452 C   0  0  0  0  0  0  0  0  0  0  0  0
   -6.1279   10.6206  -31.1116 C   0  0  0  0  0  0  0  0  0  0  0  0
   -6.2737   10.7957  -29.7355 C   0  0  0  0  0  0  0  0  0  0  0  0
   -5.1458   11.3286  -31.8045 C   0  0  0  0  0  0  0  0  0  0  0  0
   -4.3097   12.2117  -31.1213 C   0  0  0  0  0  0  0  0  0  0  0  0
   -5.4376   11.6788  -29.0523 C   0  0  0  0  0  0  0  0  0  0  0  0
   -6.9994    9.6909  -31.8510 C   0  0  0  0  0  0  0  0  0  0  0  0
   -6.3193    7.8549  -34.1730 C   0  0  0  0  0  0  0  0  0  0  0  0
   -7.3078   10.0080  -33.3130 C   0  0  0  0  0  0  0  0  0  0  0  0
   -6.3067    9.3714  -34.2775 C   0  0  0  0  0  0  0  0  0  0  0  0
   -7.4760    8.6817  -31.3282 O   0  0  0  0  0  0  0  0  0  0  0  0
   -7.2370   10.0959  -29.0677 O   0  0  0  0  0  0  0  0  0  0  0  0
   -5.0090   11.1590  -33.1287 F   0  0  0  0  0  0  0  0  0  0  0  0
   -3.0959   13.0882  -31.9702 Cl  0  0  0  0  0  0  0  0  0  0  0  0
   -5.6042   11.9438  -27.1823 Br  0  0  0  0  0  0  0  0  0  0  0  0
   -3.8024   13.0770  -29.2155 H   0  0  0  0  0  0  0  0  0  0  0  0
   -7.3171    7.4556  -34.3810 H   0  0  0  0  0  0  0  0  0  0  0  0
   -6.0316    7.5420  -33.1646 H   0  0  0  0  0  0  0  0  0  0  0  0
   -5.6150    7.4072  -34.8814 H   0  0  0  0  0  0  0  0  0  0  0  0
   -7.2880   11.0961  -33.4433 H   0  0  0  0  0  0  0  0  0  0  0  0
   -8.3126    9.6361  -33.5440 H   0  0  0  0  0  0  0  0  0  0  0  0
   -5.2961    9.7397  -34.0643 H   0  0  0  0  0  0  0  0  0  0  0  0
   -6.5412    9.6643  -35.3078 H   0  0  0  0  0  0  0  0  0  0  0  0
   -7.7252    9.5305  -29.6852 H   0  0  0  0  0  0  0  0  0  0  0  0
  1  5  1  0  0  0  0
  1  6  2  0  0  0  0
  2  3  2  0  0  0  0
  2  4  1  0  0  0  0
  2  7  1  0  0  0  0
  3  6  1  0  0  0  0
  3 12  1  0  0  0  0
  4  5  2  0  0  0  0
  4 13  1  0  0  0  0
  5 14  1  0  0  0  0
  6 15  1  0  0  0  0
  7  9  1  0  0  0  0
  7 11  2  0  0  0  0
  8 10  1  0  0  0  0
  9 10  1  0  0  0  0
  1 16  1  0  0  0  0
  8 17  1  0  0  0  0
  8 18  1  0  0  0  0
  8 19  1  0  0  0  0
  9 20  1  0  0  0  0
  9 21  1  0  0  0  0
 10 22  1  0  0  0  0
 10 23  1  0  0  0  0
 12 24  1  0  0  0  0
M  END
> <id>
EN300-1276753

> <smiles>
CCCC(=O)C=1C(O)=C(Br)C=C(Cl)C1F

> <IUPAC Name>
1-(3-bromo-5-chloro-6-fluoro-2-hydroxyphenyl)butan-1-one

> <CAS>
1702124-30-8

> <URL>
https://www.enaminestore.com/catalog/EN300-1276753

> <ROCS_ShapeQuery>
_x1604L0AP1_x0771L0AP1

> <ROCS_TanimotoCombo>
0.903 

> <ROCS_ShapeTanimoto>
0.621 

> <ROCS_ColorTanimoto>
0.281 

> <ROCS_RefTversky>
0.538 

> <ROCS_RefColorTversky>
0.341 

> <ROCS_RefTverskyCombo>
0.879 

> <ROCS_FitTversky>
1.329 

> <ROCS_FitColorTversky>
0.618 

> <ROCS_FitTverskyCombo>
1.947 

> <ROCS_ColorScore>
-3.888

> <ROCS_Overlap>
914.758

> <ROCS_Rank>
248                 

$$$$
untitled-dbase-904_161
  -OEChem-06042309053D

 26 26  0     1  0  0  0  0  0999 V2000
   -4.2196   11.9772  -31.2139 C   0  0  0  0  0  0  0  0  0  0  0  0
   -4.2760   12.0772  -29.8238 C   0  0  0  0  0  0  0  0  0  0  0  0
   -5.1451   11.1859  -31.8944 C   0  0  0  0  0  0  0  0  0  0  0  0
   -5.2578   11.3858  -29.1141 C   0  0  0  0  0  0  0  0  0  0  0  0
   -6.1832   10.5944  -29.7945 C   0  0  0  0  0  0  0  0  0  0  0  0
   -6.1269   10.4945  -31.1847 C   0  0  0  0  0  0  0  0  0  0  0  0
   -7.6221   12.4562  -27.5861 C   0  0  0  0  0  0  0  0  0  0  0  0
   -9.0088   12.3292  -29.4992 C   0  0  0  0  0  0  0  0  0  0  0  0
   -5.2998   11.5072  -27.6095 C   0  0  0  0  0  0  0  0  0  0  0  0
   -6.1850   12.6682  -27.1508 C   0  0  2  0  0  0  0  0  0  0  0  0
   -8.5650   12.3009  -26.8210 O   0  0  0  0  0  0  0  0  0  0  0  0
   -7.1368    9.9227  -29.0860 O   0  0  0  0  0  0  0  0  0  0  0  0
   -6.1685   12.7238  -25.7301 O   0  0  0  0  0  0  0  0  0  0  0  0
   -7.6975   12.4913  -28.9492 O   0  0  0  0  0  0  0  0  0  0  0  0
   -7.3669    9.4305  -32.1461 Br  0  0  0  0  0  0  0  0  0  0  0  0
   -3.4555   12.5159  -31.7666 H   0  0  0  0  0  0  0  0  0  0  0  0
   -3.5525   12.6978  -29.3019 H   0  0  0  0  0  0  0  0  0  0  0  0
   -5.0858   11.1207  -32.9779 H   0  0  0  0  0  0  0  0  0  0  0  0
   -8.9553   12.3730  -30.5897 H   0  0  0  0  0  0  0  0  0  0  0  0
   -9.6626   13.1205  -29.1237 H   0  0  0  0  0  0  0  0  0  0  0  0
   -9.4043   11.3574  -29.1947 H   0  0  0  0  0  0  0  0  0  0  0  0
   -4.2779   11.6383  -27.2293 H   0  0  0  0  0  0  0  0  0  0  0  0
   -5.6532   10.5539  -27.1967 H   0  0  0  0  0  0  0  0  0  0  0  0
   -5.8383   13.6352  -27.5321 H   0  0  0  0  0  0  0  0  0  0  0  0
   -7.7048    9.4183  -29.6879 H   0  0  0  0  0  0  0  0  0  0  0  0
   -6.5172   11.8752  -25.4131 H   0  0  0  0  0  0  0  0  0  0  0  0
  1  2  1  0  0  0  0
  1  3  2  0  0  0  0
  2  4  2  0  0  0  0
  3  6  1  0  0  0  0
  4  5  1  0  0  0  0
  4  9  1  0  0  0  0
  5  6  2  0  0  0  0
  5 12  1  0  0  0  0
  6 15  1  0  0  0  0
  7 10  1  0  0  0  0
  7 11  2  0  0  0  0
  7 14  1  0  0  0  0
  8 14  1  0  0  0  0
  9 10  1  0  0  0  0
 10 13  1  0  0  0  0
  1 16  1  0  0  0  0
  2 17  1  0  0  0  0
  3 18  1  0  0  0  0
  8 19  1  0  0  0  0
  8 20  1  0  0  0  0
  8 21  1  0  0  0  0
  9 22  1  0  0  0  0
  9 23  1  0  0  0  0
 10 24  1  0  0  0  0
 12 25  1  0  0  0  0
 13 26  1  0  0  0  0
M  END
> <id>
EN300-1923427

> <smiles>
COC(=O)C(O)CC=1C=CC=C(Br)C1O

> <IUPAC Name>
methyl 3-(3-bromo-2-hydroxyphenyl)-2-hydroxypropanoate

> <CAS>
2229526-46-7

> <URL>
https://www.enaminestore.com/catalog/EN300-1923427

> <ROCS_ShapeQuery>
_x1604L0AP1_x0771L0AP1

> <ROCS_TanimotoCombo>
0.903 

> <ROCS_ShapeTanimoto>
0.392 

> <ROCS_ColorTanimoto>
0.511 

> <ROCS_RefTversky>
0.396 

> <ROCS_RefColorTversky>
0.551 

> <ROCS_RefTverskyCombo>
0.947 

> <ROCS_FitTversky>
0.973 

> <ROCS_FitColorTversky>
0.874 

> <ROCS_FitTverskyCombo>
1.847 

> <ROCS_ColorScore>
-6.322

> <ROCS_Overlap>
673.105

> <ROCS_Rank>
249                 

$$$$
untitled-dbase-444_49
  -OEChem-06042309053D

 22 22  0     1  0  0  0  0  0999 V2000
   -4.5740   12.4697  -29.8688 C   0  0  0  0  0  0  0  0  0  0  0  0
   -5.0627   11.1195  -31.8118 C   0  0  0  0  0  0  0  0  0  0  0  0
   -5.5519   11.7851  -29.1471 C   0  0  0  0  0  0  0  0  0  0  0  0
   -6.2851   10.7677  -29.7578 C   0  0  0  0  0  0  0  0  0  0  0  0
   -4.3295   12.1369  -31.2012 C   0  0  0  0  0  0  0  0  0  0  0  0
   -6.0406   10.4349  -31.0901 C   0  0  0  0  0  0  0  0  0  0  0  0
   -4.9704   11.3296  -26.7381 C   0  0  0  0  0  0  0  0  0  0  0  0
   -5.7976   12.1573  -27.7218 C   0  0  2  0  0  0  0  0  0  0  0  0
   -7.2959   11.8599  -25.9773 N   0  0  0  0  0  0  0  0  0  0  0  0
   -7.2385   10.1073  -29.0384 O   0  0  0  0  0  0  0  0  0  0  0  0
   -7.1831   11.9594  -27.4209 O   0  0  0  0  0  0  0  0  0  0  0  0
   -3.1229   12.9821  -32.0913 Cl  0  0  0  0  0  0  0  0  0  0  0  0
   -7.0164    9.0583  -31.9548 Br  0  0  0  0  0  0  0  0  0  0  0  0
   -4.0040   13.2623  -29.3887 H   0  0  0  0  0  0  0  0  0  0  0  0
   -4.8693   10.8634  -32.8512 H   0  0  0  0  0  0  0  0  0  0  0  0
   -5.1431   10.2581  -26.8808 H   0  0  0  0  0  0  0  0  0  0  0  0
   -5.2125   11.5836  -25.7000 H   0  0  0  0  0  0  0  0  0  0  0  0
   -3.9009   11.5305  -26.8643 H   0  0  0  0  0  0  0  0  0  0  0  0
   -5.5850   13.2227  -27.5334 H   0  0  0  0  0  0  0  0  0  0  0  0
   -7.7789   10.9666  -25.8941 H   0  0  0  0  0  0  0  0  0  0  0  0
   -7.9903   12.5837  -25.7989 H   0  0  0  0  0  0  0  0  0  0  0  0
   -7.6627    9.4321  -29.5894 H   0  0  0  0  0  0  0  0  0  0  0  0
  1  3  2  0  0  0  0
  1  5  1  0  0  0  0
  2  5  2  0  0  0  0
  2  6  1  0  0  0  0
  3  4  1  0  0  0  0
  3  8  1  0  0  0  0
  4  6  2  0  0  0  0
  4 10  1  0  0  0  0
  5 12  1  0  0  0  0
  6 13  1  0  0  0  0
  7  8  1  0  0  0  0
  8 11  1  0  0  0  0
  9 11  1  0  0  0  0
  1 14  1  0  0  0  0
  2 15  1  0  0  0  0
  7 16  1  0  0  0  0
  7 17  1  0  0  0  0
  7 18  1  0  0  0  0
  8 19  1  0  0  0  0
  9 20  1  0  0  0  0
  9 21  1  0  0  0  0
 10 22  1  0  0  0  0
M  END
> <id>
EN300-1922570

> <smiles>
CC(ON)C=1C=C(Cl)C=C(Br)C1O

> <IUPAC Name>
2-[1-(aminooxy)ethyl]-6-bromo-4-chlorophenol

> <CAS>
2228783-80-8

> <URL>
https://www.enaminestore.com/catalog/EN300-1922570

> <ROCS_ShapeQuery>
_x1604L0AP1_x0771L0AP1

> <ROCS_TanimotoCombo>
0.902 

> <ROCS_ShapeTanimoto>
0.451 

> <ROCS_ColorTanimoto>
0.451 

> <ROCS_RefTversky>
0.421 

> <ROCS_RefColorTversky>
0.431 

> <ROCS_RefTverskyCombo>
0.852 

> <ROCS_FitTversky>
1.190 

> <ROCS_FitColorTversky>
1.113 

> <ROCS_FitTverskyCombo>
2.303 

> <ROCS_ColorScore>
-4.881

> <ROCS_Overlap>
713.117

> <ROCS_Rank>
250                 

$$$$
untitled-dbase-1182_51
  -OEChem-06042309053D

 23 23  0     0  0  0  0  0  0999 V2000
   -4.6058   12.4925  -29.8417 C   0  0  0  0  0  0  0  0  0  0  0  0
   -5.5798   11.7906  -29.1315 C   0  0  0  0  0  0  0  0  0  0  0  0
   -5.0674   11.1530  -31.7987 C   0  0  0  0  0  0  0  0  0  0  0  0
   -4.3497   12.1737  -31.1753 C   0  0  0  0  0  0  0  0  0  0  0  0
   -6.2976   10.7699  -29.7549 C   0  0  0  0  0  0  0  0  0  0  0  0
   -6.0414   10.4511  -31.0885 C   0  0  0  0  0  0  0  0  0  0  0  0
   -3.3080   12.9247  -31.9335 C   0  0  0  0  0  0  0  0  0  0  0  0
   -2.6103   12.1072  -33.0380 C   0  0  0  0  0  0  0  0  0  0  0  0
   -1.9152   10.8612  -32.4900 C   0  0  0  0  0  0  0  0  0  0  0  0
   -7.2415   10.1020  -29.0328 O   0  0  0  0  0  0  0  0  0  0  0  0
   -1.1193    9.9305  -33.8320 S   0  0  0  0  0  0  0  0  0  0  0  0
   -6.9962    9.0692  -31.9668 Br  0  0  0  0  0  0  0  0  0  0  0  0
   -4.0519   13.2860  -29.3469 H   0  0  0  0  0  0  0  0  0  0  0  0
   -5.7739   12.0446  -28.0928 H   0  0  0  0  0  0  0  0  0  0  0  0
   -4.8613   10.9116  -32.8393 H   0  0  0  0  0  0  0  0  0  0  0  0
   -2.5411   13.3326  -31.2532 H   0  0  0  0  0  0  0  0  0  0  0  0
   -3.7727   13.8099  -32.3998 H   0  0  0  0  0  0  0  0  0  0  0  0
   -1.8695   12.7538  -33.5263 H   0  0  0  0  0  0  0  0  0  0  0  0
   -3.3422   11.8243  -33.8053 H   0  0  0  0  0  0  0  0  0  0  0  0
   -2.6312   10.1949  -32.0001 H   0  0  0  0  0  0  0  0  0  0  0  0
   -1.1488   11.1363  -31.7583 H   0  0  0  0  0  0  0  0  0  0  0  0
   -7.6631    9.4226  -29.5814 H   0  0  0  0  0  0  0  0  0  0  0  0
   -2.2404    9.7027  -34.5292 H   0  0  0  0  0  0  0  0  0  0  0  0
  1  2  1  0  0  0  0
  1  4  2  0  0  0  0
  2  5  2  0  0  0  0
  3  4  1  0  0  0  0
  3  6  2  0  0  0  0
  4  7  1  0  0  0  0
  5  6  1  0  0  0  0
  5 10  1  0  0  0  0
  6 12  1  0  0  0  0
  7  8  1  0  0  0  0
  8  9  1  0  0  0  0
  9 11  1  0  0  0  0
  1 13  1  0  0  0  0
  2 14  1  0  0  0  0
  3 15  1  0  0  0  0
  7 16  1  0  0  0  0
  7 17  1  0  0  0  0
  8 18  1  0  0  0  0
  8 19  1  0  0  0  0
  9 20  1  0  0  0  0
  9 21  1  0  0  0  0
 10 22  1  0  0  0  0
 11 23  1  0  0  0  0
M  END
> <id>
EN300-1905158

> <smiles>
OC=1C=CC(CCCS)=CC1Br

> <IUPAC Name>
2-bromo-4-(3-sulfanylpropyl)phenol

> <CAS>
2228544-80-5

> <URL>
https://www.enaminestore.com/catalog/EN300-1905158

> <ROCS_ShapeQuery>
_x1604L0AP1_x0771L0AP1

> <ROCS_TanimotoCombo>
0.902 

> <ROCS_ShapeTanimoto>
0.451 

> <ROCS_ColorTanimoto>
0.451 

> <ROCS_RefTversky>
0.411 

> <ROCS_RefColorTversky>
0.431 

> <ROCS_RefTverskyCombo>
0.842 

> <ROCS_FitTversky>
1.277 

> <ROCS_FitColorTversky>
1.112 

> <ROCS_FitTverskyCombo>
2.390 

> <ROCS_ColorScore>
-4.878

> <ROCS_Overlap>
695.431

> <ROCS_Rank>
251                 

$$$$
untitled-dbase-1790_0
  -OEChem-06042309053D

 17 17  0     0  0  0  0  0  0999 V2000
   -4.3512   12.1549  -31.2048 C   0  0  0  0  0  0  0  0  0  0  0  0
   -5.0769   11.1336  -31.8178 C   0  0  0  0  0  0  0  0  0  0  0  0
   -5.5693   11.7876  -29.1509 C   0  0  0  0  0  0  0  0  0  0  0  0
   -4.5973   12.4819  -29.8712 C   0  0  0  0  0  0  0  0  0  0  0  0
   -6.2950   10.7662  -29.7640 C   0  0  0  0  0  0  0  0  0  0  0  0
   -6.0488   10.4393  -31.0975 C   0  0  0  0  0  0  0  0  0  0  0  0
   -2.9107   14.1469  -30.0680 C   0  0  0  0  0  0  0  0  0  0  0  0
   -7.2378   10.1070  -29.0325 O   0  0  0  0  0  0  0  0  0  0  0  0
   -3.8890   13.4785  -29.2732 O   0  0  0  0  0  0  0  0  0  0  0  0
   -7.0150    9.0577  -31.9635 Br  0  0  0  0  0  0  0  0  0  0  0  0
   -3.5953   12.6922  -31.7710 H   0  0  0  0  0  0  0  0  0  0  0  0
   -4.8714   10.8926  -32.8577 H   0  0  0  0  0  0  0  0  0  0  0  0
   -5.7603   12.0433  -28.1116 H   0  0  0  0  0  0  0  0  0  0  0  0
   -2.4194   14.9183  -29.4700 H   0  0  0  0  0  0  0  0  0  0  0  0
   -3.3936   14.5982  -30.9385 H   0  0  0  0  0  0  0  0  0  0  0  0
   -2.1671   13.4197  -30.4025 H   0  0  0  0  0  0  0  0  0  0  0  0
   -7.6655    9.4261  -29.5746 H   0  0  0  0  0  0  0  0  0  0  0  0
  1  2  1  0  0  0  0
  1  4  2  0  0  0  0
  2  6  2  0  0  0  0
  3  4  1  0  0  0  0
  3  5  2  0  0  0  0
  4  9  1  0  0  0  0
  5  6  1  0  0  0  0
  5  8  1  0  0  0  0
  6 10  1  0  0  0  0
  7  9  1  0  0  0  0
  1 11  1  0  0  0  0
  2 12  1  0  0  0  0
  3 13  1  0  0  0  0
  7 14  1  0  0  0  0
  7 15  1  0  0  0  0
  7 16  1  0  0  0  0
  8 17  1  0  0  0  0
M  END
> <id>
EN300-177992

> <smiles>
COC=1C=CC(Br)=C(O)C1

> <MDLNUMBER>
MFCD03428523

> <IUPAC Name>
2-bromo-5-methoxyphenol

> <CAS>
63604-94-4

> <Purity>
95

> <URL>
https://www.enaminestore.com/catalog/EN300-177992

> <MP>
152-153

> <ROCS_ShapeQuery>
_x1604L0AP1_x0771L0AP1

> <ROCS_TanimotoCombo>
0.902 

> <ROCS_ShapeTanimoto>
0.489 

> <ROCS_ColorTanimoto>
0.413 

> <ROCS_RefTversky>
0.423 

> <ROCS_RefColorTversky>
0.429 

> <ROCS_RefTverskyCombo>
0.852 

> <ROCS_FitTversky>
1.467 

> <ROCS_FitColorTversky>
0.914 

> <ROCS_FitTverskyCombo>
2.381 

> <ROCS_ColorScore>
-4.878

> <ROCS_Overlap>
714.454

> <ROCS_Rank>
252                 

$$$$
untitled-dbase-1157_5
  -OEChem-06042309053D

 18 18  0     0  0  0  0  0  0999 V2000
   -4.6925   12.5602  -29.7729 C   0  0  0  0  0  0  0  0  0  0  0  0
   -4.4235   12.2901  -31.1146 C   0  0  0  0  0  0  0  0  0  0  0  0
   -5.6407   11.8025  -29.0854 C   0  0  0  0  0  0  0  0  0  0  0  0
   -5.1026   11.2623  -31.7689 C   0  0  0  0  0  0  0  0  0  0  0  0
   -6.3199   10.7748  -29.7397 C   0  0  0  0  0  0  0  0  0  0  0  0
   -6.0509   10.5047  -31.0815 C   0  0  0  0  0  0  0  0  0  0  0  0
   -4.7817   11.0260  -33.1715 C   0  0  0  0  0  0  0  0  0  0  0  0
   -5.8545   11.1425  -34.2415 C   0  0  0  0  0  0  0  0  0  0  0  0
   -3.6264   10.7229  -33.5250 O   0  0  0  0  0  0  0  0  0  0  0  0
   -7.2399   10.0560  -29.0354 O   0  0  0  0  0  0  0  0  0  0  0  0
   -7.0596   11.4757  -33.7135 F   0  0  0  0  0  0  0  0  0  0  0  0
   -5.5450   12.0868  -35.1659 F   0  0  0  0  0  0  0  0  0  0  0  0
   -6.0417    9.9829  -34.9247 F   0  0  0  0  0  0  0  0  0  0  0  0
   -6.9869    9.0981  -31.9595 Br  0  0  0  0  0  0  0  0  0  0  0  0
   -4.1641   13.3609  -29.2637 H   0  0  0  0  0  0  0  0  0  0  0  0
   -3.6819   12.8885  -31.6383 H   0  0  0  0  0  0  0  0  0  0  0  0
   -5.8459   12.0200  -28.0405 H   0  0  0  0  0  0  0  0  0  0  0  0
   -7.6375    9.3767  -29.6017 H   0  0  0  0  0  0  0  0  0  0  0  0
  1  2  2  0  0  0  0
  1  3  1  0  0  0  0
  2  4  1  0  0  0  0
  3  5  2  0  0  0  0
  4  6  2  0  0  0  0
  4  7  1  0  0  0  0
  5  6  1  0  0  0  0
  5 10  1  0  0  0  0
  6 14  1  0  0  0  0
  7  8  1  0  0  0  0
  7  9  2  0  0  0  0
  8 11  1  0  0  0  0
  8 12  1  0  0  0  0
  8 13  1  0  0  0  0
  1 15  1  0  0  0  0
  2 16  1  0  0  0  0
  3 17  1  0  0  0  0
 10 18  1  0  0  0  0
M  END
> <id>
EN300-1950760

> <smiles>
OC=1C=CC=C(C(=O)C(F)(F)F)C1Br

> <IUPAC Name>
1-(2-bromo-3-hydroxyphenyl)-2,2,2-trifluoroethan-1-one

> <CAS>
2229594-80-1

> <URL>
https://www.enaminestore.com/catalog/EN300-1950760

> <ROCS_ShapeQuery>
_x1604L0AP1_x0771L0AP1

> <ROCS_TanimotoCombo>
0.902 

> <ROCS_ShapeTanimoto>
0.491 

> <ROCS_ColorTanimoto>
0.411 

> <ROCS_RefTversky>
0.459 

> <ROCS_RefColorTversky>
0.428 

> <ROCS_RefTverskyCombo>
0.887 

> <ROCS_FitTversky>
1.163 

> <ROCS_FitColorTversky>
0.912 

> <ROCS_FitTverskyCombo>
2.075 

> <ROCS_ColorScore>
-4.863

> <ROCS_Overlap>
779.635

> <ROCS_Rank>
253                 

$$$$
untitled-dbase-1639_98
  -OEChem-06042309053D

 24 25  0     0  0  0  0  0  0999 V2000
   -4.6051   12.4882  -29.8701 C   0  0  0  0  0  0  0  0  0  0  0  0
   -4.3589   12.1653  -31.2045 C   0  0  0  0  0  0  0  0  0  0  0  0
   -5.5730   11.7878  -29.1501 C   0  0  0  0  0  0  0  0  0  0  0  0
   -5.0807   11.1420  -31.8190 C   0  0  0  0  0  0  0  0  0  0  0  0
   -6.2947   10.7645  -29.7646 C   0  0  0  0  0  0  0  0  0  0  0  0
   -6.0486   10.4416  -31.0990 C   0  0  0  0  0  0  0  0  0  0  0  0
   -5.8561   10.6423  -35.6241 C   0  0  0  0  0  0  0  0  0  0  0  0
   -6.5835    9.6733  -34.7340 C   0  0  0  0  0  0  0  0  0  0  0  0
   -5.9767   10.9203  -34.1502 C   0  0  0  0  0  0  0  0  0  0  0  0
   -4.7748   10.8303  -33.2724 C   0  0  0  0  0  0  0  0  0  0  0  0
   -7.2331   10.1026  -29.0296 O   0  0  0  0  0  0  0  0  0  0  0  0
   -6.8967   11.9604  -33.7791 O   0  0  0  0  0  0  0  0  0  0  0  0
   -7.0392    9.0434  -31.9265 Br  0  0  0  0  0  0  0  0  0  0  0  0
   -4.0434   13.2854  -29.3918 H   0  0  0  0  0  0  0  0  0  0  0  0
   -3.6025   12.7177  -31.7562 H   0  0  0  0  0  0  0  0  0  0  0  0
   -5.7594   12.0457  -28.1110 H   0  0  0  0  0  0  0  0  0  0  0  0
   -4.8935   10.3378  -36.0169 H   0  0  0  0  0  0  0  0  0  0  0  0
   -6.4477   11.2386  -36.3083 H   0  0  0  0  0  0  0  0  0  0  0  0
   -7.6621    9.6204  -34.8224 H   0  0  0  0  0  0  0  0  0  0  0  0
   -6.1064    8.7219  -34.5320 H   0  0  0  0  0  0  0  0  0  0  0  0
   -3.9768   11.5174  -33.6147 H   0  0  0  0  0  0  0  0  0  0  0  0
   -4.3166    9.8236  -33.3230 H   0  0  0  0  0  0  0  0  0  0  0  0
   -7.6602    9.4201  -29.5700 H   0  0  0  0  0  0  0  0  0  0  0  0
   -6.8588   12.0149  -32.8150 H   0  0  0  0  0  0  0  0  0  0  0  0
  1  2  2  0  0  0  0
  1  3  1  0  0  0  0
  2  4  1  0  0  0  0
  3  5  2  0  0  0  0
  4  6  2  0  0  0  0
  4 10  1  0  0  0  0
  5  6  1  0  0  0  0
  5 11  1  0  0  0  0
  6 13  1  0  0  0  0
  7  8  1  0  0  0  0
  7  9  1  0  0  0  0
  8  9  1  0  0  0  0
  9 10  1  0  0  0  0
  9 12  1  0  0  0  0
  1 14  1  0  0  0  0
  2 15  1  0  0  0  0
  3 16  1  0  0  0  0
  7 17  1  0  0  0  0
  7 18  1  0  0  0  0
  8 19  1  0  0  0  0
  8 20  1  0  0  0  0
 10 21  1  0  0  0  0
 10 22  1  0  0  0  0
 11 23  1  0  0  0  0
 12 24  1  0  0  0  0
M  END
> <id>
EN300-1904808

> <smiles>
OC=1C=CC=C(CC2(O)CC2)C1Br

> <IUPAC Name>
2-bromo-3-[(1-hydroxycyclopropyl)methyl]phenol

> <CAS>
2228226-54-6

> <URL>
https://www.enaminestore.com/catalog/EN300-1904808

> <ROCS_ShapeQuery>
_x1604L0AP1_x0771L0AP1

> <ROCS_TanimotoCombo>
0.901 

> <ROCS_ShapeTanimoto>
0.521 

> <ROCS_ColorTanimoto>
0.381 

> <ROCS_RefTversky>
0.466 

> <ROCS_RefColorTversky>
0.428 

> <ROCS_RefTverskyCombo>
0.894 

> <ROCS_FitTversky>
1.290 

> <ROCS_FitColorTversky>
0.777 

> <ROCS_FitTverskyCombo>
2.066 

> <ROCS_ColorScore>
-4.881

> <ROCS_Overlap>
790.259

> <ROCS_Rank>
254                 

$$$$
untitled-dbase-2200_17
  -OEChem-06042309053D

 23 23  0     0  0  0  0  0  0999 V2000
   -4.5911   12.4783  -29.8156 C   0  0  0  0  0  0  0  0  0  0  0  0
   -5.0574   11.1483  -31.7779 C   0  0  0  0  0  0  0  0  0  0  0  0
   -5.5709   11.7802  -29.1096 C   0  0  0  0  0  0  0  0  0  0  0  0
   -6.2939   10.7661  -29.7378 C   0  0  0  0  0  0  0  0  0  0  0  0
   -4.3344   12.1624  -31.1497 C   0  0  0  0  0  0  0  0  0  0  0  0
   -6.0371   10.4502  -31.0720 C   0  0  0  0  0  0  0  0  0  0  0  0
   -7.7401   13.5035  -27.6087 C   0  0  0  0  0  0  0  0  0  0  0  0
   -6.2296   13.4354  -27.5342 C   0  0  0  0  0  0  0  0  0  0  0  0
   -2.1747   13.6276  -31.0920 O   0  0  0  0  0  0  0  0  0  0  0  0
   -2.6624   12.2572  -33.1732 O   0  0  0  0  0  0  0  0  0  0  0  0
   -7.2481   10.0949  -29.0303 O   0  0  0  0  0  0  0  0  0  0  0  0
   -5.8108   12.0998  -27.8071 O   0  0  0  0  0  0  0  0  0  0  0  0
   -3.1079   13.0366  -32.0329 S   0  0  0  0  0  0  0  0  0  0  0  0
   -4.1691   14.5925  -32.8350 Cl  0  0  0  0  0  0  0  0  0  0  0  0
   -6.9987    9.0788  -31.9599 Br  0  0  0  0  0  0  0  0  0  0  0  0
   -4.0299   13.2680  -29.3221 H   0  0  0  0  0  0  0  0  0  0  0  0
   -4.8516   10.9076  -32.8185 H   0  0  0  0  0  0  0  0  0  0  0  0
   -8.0946   13.2232  -28.6045 H   0  0  0  0  0  0  0  0  0  0  0  0
   -8.1936   12.8340  -26.8705 H   0  0  0  0  0  0  0  0  0  0  0  0
   -8.0924   14.5148  -27.3800 H   0  0  0  0  0  0  0  0  0  0  0  0
   -5.8816   13.7169  -26.5358 H   0  0  0  0  0  0  0  0  0  0  0  0
   -5.7781   14.1043  -28.2729 H   0  0  0  0  0  0  0  0  0  0  0  0
   -7.2955   10.4392  -28.1254 H   0  0  0  0  0  0  0  0  0  0  0  0
  1  3  2  0  0  0  0
  1  5  1  0  0  0  0
  2  5  2  0  0  0  0
  2  6  1  0  0  0  0
  3  4  1  0  0  0  0
  3 12  1  0  0  0  0
  4  6  2  0  0  0  0
  4 11  1  0  0  0  0
  5 13  1  0  0  0  0
  6 15  1  0  0  0  0
  7  8  1  0  0  0  0
  8 12  1  0  0  0  0
  9 13  2  0  0  0  0
 10 13  2  0  0  0  0
 13 14  1  0  0  0  0
  1 16  1  0  0  0  0
  2 17  1  0  0  0  0
  7 18  1  0  0  0  0
  7 19  1  0  0  0  0
  7 20  1  0  0  0  0
  8 21  1  0  0  0  0
  8 22  1  0  0  0  0
 11 23  1  0  0  0  0
M  END
> <id>
EN300-6493329

> <smiles>
CCOC=1C=C(C=C(Br)C1O)S(=O)(=O)Cl

> <IUPAC Name>
3-bromo-5-ethoxy-4-hydroxybenzene-1-sulfonyl chloride

> <CAS>
2247107-99-7

> <URL>
https://www.enaminestore.com/catalog/EN300-6493329

> <ROCS_ShapeQuery>
_x1604L0AP1_x0771L0AP1

> <ROCS_TanimotoCombo>
0.901 

> <ROCS_ShapeTanimoto>
0.486 

> <ROCS_ColorTanimoto>
0.415 

> <ROCS_RefTversky>
0.456 

> <ROCS_RefColorTversky>
0.431 

> <ROCS_RefTverskyCombo>
0.887 

> <ROCS_FitTversky>
1.160 

> <ROCS_FitColorTversky>
0.918 

> <ROCS_FitTverskyCombo>
2.078 

> <ROCS_ColorScore>
-4.898

> <ROCS_Overlap>
774.106

> <ROCS_Rank>
255                 

$$$$
untitled-dbase-1958_225
  -OEChem-06042309053D

 22 22  0     0  0  0  0  0  0999 V2000
   -4.5771   12.4639  -29.8094 C   0  0  0  0  0  0  0  0  0  0  0  0
   -5.0456   11.1369  -31.7731 C   0  0  0  0  0  0  0  0  0  0  0  0
   -4.3184   12.1466  -31.1427 C   0  0  0  0  0  0  0  0  0  0  0  0
   -5.5629   11.7715  -29.1062 C   0  0  0  0  0  0  0  0  0  0  0  0
   -6.2902   10.7619  -29.7365 C   0  0  0  0  0  0  0  0  0  0  0  0
   -6.0316   10.4445  -31.0700 C   0  0  0  0  0  0  0  0  0  0  0  0
   -3.2922   12.8707  -31.8764 C   0  0  0  0  0  0  0  0  0  0  0  0
   -5.0149   13.1374  -27.2381 C   0  0  0  0  0  0  0  0  0  0  0  0
   -3.4194   14.3879  -32.0520 C   0  0  0  0  0  0  0  0  0  0  0  0
   -2.3144   12.2645  -32.3596 O   0  0  0  0  0  0  0  0  0  0  0  0
   -7.2511   10.0967  -29.0323 O   0  0  0  0  0  0  0  0  0  0  0  0
   -5.8039   12.0931  -27.8044 O   0  0  0  0  0  0  0  0  0  0  0  0
   -3.4226   15.2303  -30.4889 Cl  0  0  0  0  0  0  0  0  0  0  0  0
   -7.0014    9.0808  -31.9610 Br  0  0  0  0  0  0  0  0  0  0  0  0
   -4.0128   13.2511  -29.3144 H   0  0  0  0  0  0  0  0  0  0  0  0
   -4.8389   10.8959  -32.8137 H   0  0  0  0  0  0  0  0  0  0  0  0
   -5.3080   13.2929  -26.1970 H   0  0  0  0  0  0  0  0  0  0  0  0
   -5.1612   14.0570  -27.8103 H   0  0  0  0  0  0  0  0  0  0  0  0
   -3.9618   12.8492  -27.2786 H   0  0  0  0  0  0  0  0  0  0  0  0
   -2.5676   14.7642  -32.6238 H   0  0  0  0  0  0  0  0  0  0  0  0
   -4.3628   14.6218  -32.5513 H   0  0  0  0  0  0  0  0  0  0  0  0
   -7.2995   10.4414  -28.1276 H   0  0  0  0  0  0  0  0  0  0  0  0
  1  3  1  0  0  0  0
  1  4  2  0  0  0  0
  2  3  2  0  0  0  0
  2  6  1  0  0  0  0
  3  7  1  0  0  0  0
  4  5  1  0  0  0  0
  4 12  1  0  0  0  0
  5  6  2  0  0  0  0
  5 11  1  0  0  0  0
  6 14  1  0  0  0  0
  7  9  1  0  0  0  0
  7 10  2  0  0  0  0
  8 12  1  0  0  0  0
  9 13  1  0  0  0  0
  1 15  1  0  0  0  0
  2 16  1  0  0  0  0
  8 17  1  0  0  0  0
  8 18  1  0  0  0  0
  8 19  1  0  0  0  0
  9 20  1  0  0  0  0
  9 21  1  0  0  0  0
 11 22  1  0  0  0  0
M  END
> <id>
EN300-1925694

> <smiles>
COC=1C=C(C=C(Br)C1O)C(=O)CCl

> <IUPAC Name>
1-(3-bromo-4-hydroxy-5-methoxyphenyl)-2-chloroethan-1-one

> <CAS>
2229428-63-9

> <URL>
https://www.enaminestore.com/catalog/EN300-1925694

> <ROCS_ShapeQuery>
_x1604L0AP1_x0771L0AP1

> <ROCS_TanimotoCombo>
0.901 

> <ROCS_ShapeTanimoto>
0.519 

> <ROCS_ColorTanimoto>
0.383 

> <ROCS_RefTversky>
0.472 

> <ROCS_RefColorTversky>
0.429 

> <ROCS_RefTverskyCombo>
0.901 

> <ROCS_FitTversky>
1.239 

> <ROCS_FitColorTversky>
0.779 

> <ROCS_FitTverskyCombo>
2.018 

> <ROCS_ColorScore>
-4.898

> <ROCS_Overlap>
800.368

> <ROCS_Rank>
256                 

$$$$
untitled-dbase-233_18
  -OEChem-06042309053D

 21 21  0     0  0  0  0  0  0999 V2000
   -4.6596   12.5363  -29.8580 C   0  0  0  0  0  0  0  0  0  0  0  0
   -5.6076   11.8088  -29.1386 C   0  0  0  0  0  0  0  0  0  0  0  0
   -5.1198   11.1990  -31.8168 C   0  0  0  0  0  0  0  0  0  0  0  0
   -4.4157   12.2314  -31.1972 C   0  0  0  0  0  0  0  0  0  0  0  0
   -6.3117   10.7764  -29.7583 C   0  0  0  0  0  0  0  0  0  0  0  0
   -6.0678   10.4714  -31.0974 C   0  0  0  0  0  0  0  0  0  0  0  0
   -2.2604   13.5469  -31.1126 C   0  0  0  0  0  0  0  0  0  0  0  0
   -2.1229   15.0458  -31.0387 C   0  0  0  0  0  0  0  0  0  0  0  0
   -3.4018   13.0098  -31.9653 C   0  0  0  0  0  0  0  0  0  0  0  0
   -1.4811   12.8111  -30.5083 O   0  0  0  0  0  0  0  0  0  0  0  0
   -7.2302   10.0835  -29.0271 O   0  0  0  0  0  0  0  0  0  0  0  0
   -7.0046    9.0743  -31.9709 Br  0  0  0  0  0  0  0  0  0  0  0  0
   -4.1162   13.3388  -29.3661 H   0  0  0  0  0  0  0  0  0  0  0  0
   -5.7922   12.0521  -28.0956 H   0  0  0  0  0  0  0  0  0  0  0  0
   -4.9233   10.9686  -32.8618 H   0  0  0  0  0  0  0  0  0  0  0  0
   -2.7102   15.4292  -30.1997 H   0  0  0  0  0  0  0  0  0  0  0  0
   -1.0738   15.3099  -30.8852 H   0  0  0  0  0  0  0  0  0  0  0  0
   -2.4939   15.4940  -31.9636 H   0  0  0  0  0  0  0  0  0  0  0  0
   -2.9619   12.3863  -32.7595 H   0  0  0  0  0  0  0  0  0  0  0  0
   -3.8768   13.8672  -32.4675 H   0  0  0  0  0  0  0  0  0  0  0  0
   -7.6447    9.3983  -29.5741 H   0  0  0  0  0  0  0  0  0  0  0  0
  1  2  1  0  0  0  0
  1  4  2  0  0  0  0
  2  5  2  0  0  0  0
  3  4  1  0  0  0  0
  3  6  2  0  0  0  0
  4  9  1  0  0  0  0
  5  6  1  0  0  0  0
  5 11  1  0  0  0  0
  6 12  1  0  0  0  0
  7  8  1  0  0  0  0
  7  9  1  0  0  0  0
  7 10  2  0  0  0  0
  1 13  1  0  0  0  0
  2 14  1  0  0  0  0
  3 15  1  0  0  0  0
  8 16  1  0  0  0  0
  8 17  1  0  0  0  0
  8 18  1  0  0  0  0
  9 19  1  0  0  0  0
  9 20  1  0  0  0  0
 11 21  1  0  0  0  0
M  END
> <id>
EN300-1581816

> <smiles>
CC(=O)CC=1C=CC(O)=C(Br)C1

> <MDLNUMBER>
MFCD04117998

> <IUPAC Name>
1-(3-bromo-4-hydroxyphenyl)propan-2-one

> <CAS>
655237-87-9

> <Purity>
95

> <URL>
https://www.enaminestore.com/catalog/EN300-1581816

> <ROCS_ShapeQuery>
_x1604L0AP1_x0771L0AP1

> <ROCS_TanimotoCombo>
0.901 

> <ROCS_ShapeTanimoto>
0.490 

> <ROCS_ColorTanimoto>
0.412 

> <ROCS_RefTversky>
0.438 

> <ROCS_RefColorTversky>
0.429 

> <ROCS_RefTverskyCombo>
0.867 

> <ROCS_FitTversky>
1.317 

> <ROCS_FitColorTversky>
0.913 

> <ROCS_FitTverskyCombo>
2.229 

> <ROCS_ColorScore>
-4.871

> <ROCS_Overlap>
741.500

> <ROCS_Rank>
257                 

$$$$
untitled-dbase-1580_10
  -OEChem-06042309053D

 25 26  0     1  0  0  0  0  0999 V2000
   -4.9753   11.7040  -31.4634 C   0  0  0  0  0  0  0  0  0  0  0  0
   -4.2984   12.3139  -29.2258 C   0  0  0  0  0  0  0  0  0  0  0  0
   -6.0174   10.9389  -30.9397 C   0  0  0  0  0  0  0  0  0  0  0  0
   -6.2000   10.8613  -29.5590 C   0  0  0  0  0  0  0  0  0  0  0  0
   -4.1158   12.3915  -30.6064 C   0  0  0  0  0  0  0  0  0  0  0  0
   -5.3405   11.5488  -28.7020 C   0  0  0  0  0  0  0  0  0  0  0  0
   -6.0944   10.0039  -34.1644 C   0  0  0  0  0  0  0  0  0  0  0  0
   -6.2951    9.2181  -32.8720 C   0  0  0  0  0  0  0  0  0  0  0  0
   -6.8162   11.3245  -33.9523 C   0  0  0  0  0  0  0  0  0  0  0  0
   -6.9418   10.1983  -31.8912 C   0  0  2  0  0  0  0  0  0  0  0  0
   -7.6732   11.0995  -32.7931 N   0  0  0  0  0  0  0  0  0  0  0  0
   -7.2241   10.1085  -29.0620 O   0  0  0  0  0  0  0  0  0  0  0  0
   -2.8299   13.3353  -31.2532 Cl  0  0  0  0  0  0  0  0  0  0  0  0
   -5.5564   11.4678  -26.8201 Br  0  0  0  0  0  0  0  0  0  0  0  0
   -4.8365   11.7624  -32.5409 H   0  0  0  0  0  0  0  0  0  0  0  0
   -3.6257   12.8511  -28.5609 H   0  0  0  0  0  0  0  0  0  0  0  0
   -5.0181   10.1803  -34.3297 H   0  0  0  0  0  0  0  0  0  0  0  0
   -6.4729    9.4582  -35.0421 H   0  0  0  0  0  0  0  0  0  0  0  0
   -6.9790    8.3779  -33.0608 H   0  0  0  0  0  0  0  0  0  0  0  0
   -5.3423    8.7952  -32.5250 H   0  0  0  0  0  0  0  0  0  0  0  0
   -6.1131   12.1570  -33.7854 H   0  0  0  0  0  0  0  0  0  0  0  0
   -7.4296   11.5853  -34.8325 H   0  0  0  0  0  0  0  0  0  0  0  0
   -7.6899    9.6596  -31.2729 H   0  0  0  0  0  0  0  0  0  0  0  0
   -7.8110   11.9999  -32.3265 H   0  0  0  0  0  0  0  0  0  0  0  0
   -7.2270   10.1487  -28.0936 H   0  0  0  0  0  0  0  0  0  0  0  0
  1  3  2  0  0  0  0
  1  5  1  0  0  0  0
  2  5  2  0  0  0  0
  2  6  1  0  0  0  0
  3  4  1  0  0  0  0
  3 10  1  0  0  0  0
  4  6  2  0  0  0  0
  4 12  1  0  0  0  0
  5 13  1  0  0  0  0
  6 14  1  0  0  0  0
  7  8  1  0  0  0  0
  7  9  1  0  0  0  0
  8 10  1  0  0  0  0
  9 11  1  0  0  0  0
 10 11  1  0  0  0  0
  1 15  1  0  0  0  0
  2 16  1  0  0  0  0
  7 17  1  0  0  0  0
  7 18  1  0  0  0  0
  8 19  1  0  0  0  0
  8 20  1  0  0  0  0
  9 21  1  0  0  0  0
  9 22  1  0  0  0  0
 10 23  1  0  0  0  0
 11 24  1  0  0  0  0
 12 25  1  0  0  0  0
M  END
> <id>
EN300-1911780

> <smiles>
OC=1C(Br)=CC(Cl)=CC1C2CCCN2

> <MDLNUMBER>
MFCD24521287

> <IUPAC Name>
2-bromo-4-chloro-6-(pyrrolidin-2-yl)phenol

> <CAS>
1337266-87-1

> <URL>
https://www.enaminestore.com/catalog/EN300-1911780

> <ROCS_ShapeQuery>
_x1604L0AP1_x0771L0AP1

> <ROCS_TanimotoCombo>
0.901 

> <ROCS_ShapeTanimoto>
0.584 

> <ROCS_ColorTanimoto>
0.317 

> <ROCS_RefTversky>
0.511 

> <ROCS_RefColorTversky>
0.393 

> <ROCS_RefTverskyCombo>
0.904 

> <ROCS_FitTversky>
1.326 

> <ROCS_FitColorTversky>
0.623 

> <ROCS_FitTverskyCombo>
1.948 

> <ROCS_ColorScore>
-4.506

> <ROCS_Overlap>
866.610

> <ROCS_Rank>
258                 

$$$$
untitled-dbase-1786_1
  -OEChem-06042309053D

 22 23  0     0  0  0  0  0  0999 V2000
   -4.9952   11.2041  -31.7497 C   0  0  0  0  0  0  0  0  0  0  0  0
   -4.5653   12.5137  -29.7655 C   0  0  0  0  0  0  0  0  0  0  0  0
   -5.9858   10.4968  -31.0683 C   0  0  0  0  0  0  0  0  0  0  0  0
   -6.2661   10.7981  -29.7355 C   0  0  0  0  0  0  0  0  0  0  0  0
   -4.2850   12.2125  -31.0983 C   0  0  0  0  0  0  0  0  0  0  0  0
   -5.5559   11.8066  -29.0841 C   0  0  0  0  0  0  0  0  0  0  0  0
   -6.7127    9.4473  -31.7694 C   0  0  0  0  0  0  0  0  0  0  0  0
   -7.3708    8.5859  -34.0950 C   0  0  0  0  0  0  0  0  0  0  0  0
   -6.9847   10.0257  -34.2532 C   0  0  0  0  0  0  0  0  0  0  0  0
   -6.3449    9.1894  -33.2007 C   0  0  0  0  0  0  0  0  0  0  0  0
   -7.6083    8.7608  -31.2762 O   0  0  0  0  0  0  0  0  0  0  0  0
   -7.2368   10.0976  -29.0792 O   0  0  0  0  0  0  0  0  0  0  0  0
   -3.0627   13.0846  -31.9397 Cl  0  0  0  0  0  0  0  0  0  0  0  0
   -5.9075   12.2458  -27.2735 Br  0  0  0  0  0  0  0  0  0  0  0  0
   -4.7781   10.9672  -32.7891 H   0  0  0  0  0  0  0  0  0  0  0  0
   -4.0089   13.3009  -29.2610 H   0  0  0  0  0  0  0  0  0  0  0  0
   -8.3594    8.3690  -33.7090 H   0  0  0  0  0  0  0  0  0  0  0  0
   -7.0172    7.8836  -34.8400 H   0  0  0  0  0  0  0  0  0  0  0  0
   -6.3715   10.2928  -35.1053 H   0  0  0  0  0  0  0  0  0  0  0  0
   -7.7155   10.7755  -33.9755 H   0  0  0  0  0  0  0  0  0  0  0  0
   -5.3199    8.9020  -33.3233 H   0  0  0  0  0  0  0  0  0  0  0  0
   -7.6282    9.4377  -29.6712 H   0  0  0  0  0  0  0  0  0  0  0  0
  1  3  2  0  0  0  0
  1  5  1  0  0  0  0
  2  5  2  0  0  0  0
  2  6  1  0  0  0  0
  3  4  1  0  0  0  0
  3  7  1  0  0  0  0
  4  6  2  0  0  0  0
  4 12  1  0  0  0  0
  5 13  1  0  0  0  0
  6 14  1  0  0  0  0
  7 10  1  0  0  0  0
  7 11  2  0  0  0  0
  8  9  1  0  0  0  0
  8 10  1  0  0  0  0
  9 10  1  0  0  0  0
  1 15  1  0  0  0  0
  2 16  1  0  0  0  0
  8 17  1  0  0  0  0
  8 18  1  0  0  0  0
  9 19  1  0  0  0  0
  9 20  1  0  0  0  0
 10 21  1  0  0  0  0
 12 22  1  0  0  0  0
M  END
> <id>
EN300-1276681

> <smiles>
OC=1C(Br)=CC(Cl)=CC1C(=O)C2CC2

> <MDLNUMBER>
MFCD16742929

> <IUPAC Name>
2-bromo-4-chloro-6-cyclopropanecarbonylphenol

> <CAS>
1247211-56-8

> <URL>
https://www.enaminestore.com/catalog/EN300-1276681

> <ROCS_ShapeQuery>
_x1604L0AP1_x0771L0AP1

> <ROCS_TanimotoCombo>
0.901 

> <ROCS_ShapeTanimoto>
0.598 

> <ROCS_ColorTanimoto>
0.303 

> <ROCS_RefTversky>
0.519 

> <ROCS_RefColorTversky>
0.342 

> <ROCS_RefTverskyCombo>
0.861 

> <ROCS_FitTversky>
1.340 

> <ROCS_FitColorTversky>
0.728 

> <ROCS_FitTverskyCombo>
2.068 

> <ROCS_ColorScore>
-3.885

> <ROCS_Overlap>
881.289

> <ROCS_Rank>
259                 

$$$$
untitled-dbase-171_72
  -OEChem-06042309053D

 21 21  0     0  0  0  0  0  0999 V2000
   -4.5748   12.4643  -29.8176 C   0  0  0  0  0  0  0  0  0  0  0  0
   -5.0475   11.1353  -31.7790 C   0  0  0  0  0  0  0  0  0  0  0  0
   -4.3185   12.1452  -31.1511 C   0  0  0  0  0  0  0  0  0  0  0  0
   -5.5601   11.7735  -29.1121 C   0  0  0  0  0  0  0  0  0  0  0  0
   -6.2890   10.7636  -29.7401 C   0  0  0  0  0  0  0  0  0  0  0  0
   -6.0328   10.4445  -31.0736 C   0  0  0  0  0  0  0  0  0  0  0  0
   -5.0086   13.1415  -27.2466 C   0  0  0  0  0  0  0  0  0  0  0  0
   -3.2657   12.8847  -31.9052 C   0  0  0  0  0  0  0  0  0  0  0  0
   -7.2493   10.0999  -29.0336 O   0  0  0  0  0  0  0  0  0  0  0  0
   -5.7993   12.0970  -27.8105 O   0  0  0  0  0  0  0  0  0  0  0  0
   -3.0914   14.6080  -31.3503 S   0  0  0  0  0  0  0  0  0  0  0  0
   -7.0027    9.0785  -31.9608 Br  0  0  0  0  0  0  0  0  0  0  0  0
   -4.0081   13.2515  -29.3259 H   0  0  0  0  0  0  0  0  0  0  0  0
   -4.8406   10.8940  -32.8194 H   0  0  0  0  0  0  0  0  0  0  0  0
   -5.3004   13.2987  -26.2053 H   0  0  0  0  0  0  0  0  0  0  0  0
   -5.1548   14.0604  -27.8198 H   0  0  0  0  0  0  0  0  0  0  0  0
   -3.9558   12.8522  -27.2878 H   0  0  0  0  0  0  0  0  0  0  0  0
   -2.2892   12.3885  -31.8036 H   0  0  0  0  0  0  0  0  0  0  0  0
   -3.4907   12.8915  -32.9820 H   0  0  0  0  0  0  0  0  0  0  0  0
   -7.2961   10.4458  -28.1292 H   0  0  0  0  0  0  0  0  0  0  0  0
   -4.3483   14.9731  -31.6352 H   0  0  0  0  0  0  0  0  0  0  0  0
  1  3  1  0  0  0  0
  1  4  2  0  0  0  0
  2  3  2  0  0  0  0
  2  6  1  0  0  0  0
  3  8  1  0  0  0  0
  4  5  1  0  0  0  0
  4 10  1  0  0  0  0
  5  6  2  0  0  0  0
  5  9  1  0  0  0  0
  6 12  1  0  0  0  0
  7 10  1  0  0  0  0
  8 11  1  0  0  0  0
  1 13  1  0  0  0  0
  2 14  1  0  0  0  0
  7 15  1  0  0  0  0
  7 16  1  0  0  0  0
  7 17  1  0  0  0  0
  8 18  1  0  0  0  0
  8 19  1  0  0  0  0
  9 20  1  0  0  0  0
 11 21  1  0  0  0  0
M  END
> <id>
EN300-1289252

> <smiles>
COC=1C=C(CS)C=C(Br)C1O

> <IUPAC Name>
2-bromo-6-methoxy-4-(sulfanylmethyl)phenol

> <CAS>
2172356-10-2

> <URL>
https://www.enaminestore.com/catalog/EN300-1289252

> <ROCS_ShapeQuery>
_x1604L0AP1_x0771L0AP1

> <ROCS_TanimotoCombo>
0.901 

> <ROCS_ShapeTanimoto>
0.486 

> <ROCS_ColorTanimoto>
0.415 

> <ROCS_RefTversky>
0.435 

> <ROCS_RefColorTversky>
0.431 

> <ROCS_RefTverskyCombo>
0.866 

> <ROCS_FitTversky>
1.318 

> <ROCS_FitColorTversky>
0.918 

> <ROCS_FitTverskyCombo>
2.236 

> <ROCS_ColorScore>
-4.898

> <ROCS_Overlap>
736.214

> <ROCS_Rank>
260                 

$$$$
untitled-dbase-1735_135
  -OEChem-06042309053D

 23 23  0     0  0  0  0  0  0999 V2000
   -4.3517   12.1789  -31.1767 C   0  0  0  0  0  0  0  0  0  0  0  0
   -4.6083   12.4987  -29.8435 C   0  0  0  0  0  0  0  0  0  0  0  0
   -5.0666   11.1551  -31.7984 C   0  0  0  0  0  0  0  0  0  0  0  0
   -5.5797   11.7947  -29.1319 C   0  0  0  0  0  0  0  0  0  0  0  0
   -6.2946   10.7709  -29.7535 C   0  0  0  0  0  0  0  0  0  0  0  0
   -6.0380   10.4511  -31.0868 C   0  0  0  0  0  0  0  0  0  0  0  0
   -5.0431   13.1780  -27.2733 C   0  0  0  0  0  0  0  0  0  0  0  0
   -4.7545   10.8527  -33.2288 C   0  0  0  0  0  0  0  0  0  0  0  0
   -6.6030   12.2232  -33.5138 N   0  0  0  0  0  0  0  0  0  0  0  0
   -7.2401   10.0969  -29.0364 O   0  0  0  0  0  0  0  0  0  0  0  0
   -5.8189   12.1189  -27.8304 O   0  0  0  0  0  0  0  0  0  0  0  0
   -5.9251   11.0371  -34.0132 O   0  0  0  0  0  0  0  0  0  0  0  0
   -7.0246    9.0586  -31.9299 Br  0  0  0  0  0  0  0  0  0  0  0  0
   -3.5929   12.7342  -31.7218 H   0  0  0  0  0  0  0  0  0  0  0  0
   -4.0486   13.2982  -29.3657 H   0  0  0  0  0  0  0  0  0  0  0  0
   -5.3332   13.3342  -26.2314 H   0  0  0  0  0  0  0  0  0  0  0  0
   -5.2066   14.0925  -27.8492 H   0  0  0  0  0  0  0  0  0  0  0  0
   -3.9859   12.9058  -27.3179 H   0  0  0  0  0  0  0  0  0  0  0  0
   -3.9653   11.5122  -33.6112 H   0  0  0  0  0  0  0  0  0  0  0  0
   -4.4078    9.8181  -33.3454 H   0  0  0  0  0  0  0  0  0  0  0  0
   -7.5288   11.8418  -33.3247 H   0  0  0  0  0  0  0  0  0  0  0  0
   -6.6823   12.7668  -34.3718 H   0  0  0  0  0  0  0  0  0  0  0  0
   -7.2859   10.4476  -28.1340 H   0  0  0  0  0  0  0  0  0  0  0  0
  1  2  1  0  0  0  0
  1  3  2  0  0  0  0
  2  4  2  0  0  0  0
  3  6  1  0  0  0  0
  3  8  1  0  0  0  0
  4  5  1  0  0  0  0
  4 11  1  0  0  0  0
  5  6  2  0  0  0  0
  5 10  1  0  0  0  0
  6 13  1  0  0  0  0
  7 11  1  0  0  0  0
  8 12  1  0  0  0  0
  9 12  1  0  0  0  0
  1 14  1  0  0  0  0
  2 15  1  0  0  0  0
  7 16  1  0  0  0  0
  7 17  1  0  0  0  0
  7 18  1  0  0  0  0
  8 19  1  0  0  0  0
  8 20  1  0  0  0  0
  9 21  1  0  0  0  0
  9 22  1  0  0  0  0
 10 23  1  0  0  0  0
M  END
> <id>
EN300-1935606

> <smiles>
COC=1C=CC(CON)=C(Br)C1O

> <IUPAC Name>
3-[(aminooxy)methyl]-2-bromo-6-methoxyphenol

> <CAS>
2229215-66-9

> <URL>
https://www.enaminestore.com/catalog/EN300-1935606

> <ROCS_ShapeQuery>
_x1604L0AP1_x0771L0AP1

> <ROCS_TanimotoCombo>
0.901 

> <ROCS_ShapeTanimoto>
0.486 

> <ROCS_ColorTanimoto>
0.415 

> <ROCS_RefTversky>
0.444 

> <ROCS_RefColorTversky>
0.431 

> <ROCS_RefTverskyCombo>
0.875 

> <ROCS_FitTversky>
1.237 

> <ROCS_FitColorTversky>
0.919 

> <ROCS_FitTverskyCombo>
2.156 

> <ROCS_ColorScore>
-4.902

> <ROCS_Overlap>
752.887

> <ROCS_Rank>
261                 

$$$$
untitled-dbase-342_72
  -OEChem-06042309053D

 26 26  0     0  0  0  0  0  0999 V2000
   -4.3356   12.1687  -31.1613 C   0  0  0  0  0  0  0  0  0  0  0  0
   -4.6014   12.4928  -29.8309 C   0  0  0  0  0  0  0  0  0  0  0  0
   -5.0483   11.1448  -31.7855 C   0  0  0  0  0  0  0  0  0  0  0  0
   -5.5798   11.7930  -29.1247 C   0  0  0  0  0  0  0  0  0  0  0  0
   -6.2924   10.7692  -29.7489 C   0  0  0  0  0  0  0  0  0  0  0  0
   -6.0266   10.4451  -31.0793 C   0  0  0  0  0  0  0  0  0  0  0  0
   -5.0538   13.1802  -27.2660 C   0  0  0  0  0  0  0  0  0  0  0  0
   -4.7261   10.8378  -33.2127 C   0  0  0  0  0  0  0  0  0  0  0  0
   -5.3300   11.8437  -34.1926 C   0  0  0  0  0  0  0  0  0  0  0  0
   -7.2836   10.7286  -34.7552 N   0  0  0  0  0  0  0  0  0  0  0  0
   -7.2449   10.0994  -29.0370 O   0  0  0  0  0  0  0  0  0  0  0  0
   -5.8279   12.1214  -27.8259 O   0  0  0  0  0  0  0  0  0  0  0  0
   -6.7432   11.8728  -34.0385 O   0  0  0  0  0  0  0  0  0  0  0  0
   -7.0102    9.0527  -31.9260 Br  0  0  0  0  0  0  0  0  0  0  0  0
   -3.5714   12.7207  -31.7022 H   0  0  0  0  0  0  0  0  0  0  0  0
   -4.0433   13.2922  -29.3511 H   0  0  0  0  0  0  0  0  0  0  0  0
   -5.3513   13.3399  -26.2267 H   0  0  0  0  0  0  0  0  0  0  0  0
   -5.2108   14.0934  -27.8455 H   0  0  0  0  0  0  0  0  0  0  0  0
   -3.9970   12.9053  -27.3019 H   0  0  0  0  0  0  0  0  0  0  0  0
   -3.6354   10.8053  -33.3517 H   0  0  0  0  0  0  0  0  0  0  0  0
   -5.0991    9.8343  -33.4638 H   0  0  0  0  0  0  0  0  0  0  0  0
   -4.9491   12.8480  -33.9806 H   0  0  0  0  0  0  0  0  0  0  0  0
   -5.0932   11.5894  -35.2310 H   0  0  0  0  0  0  0  0  0  0  0  0
   -7.9532   11.1927  -35.3671 H   0  0  0  0  0  0  0  0  0  0  0  0
   -7.8252   10.2851  -34.0150 H   0  0  0  0  0  0  0  0  0  0  0  0
   -7.2966   10.4527  -28.1359 H   0  0  0  0  0  0  0  0  0  0  0  0
  1  2  1  0  0  0  0
  1  3  2  0  0  0  0
  2  4  2  0  0  0  0
  3  6  1  0  0  0  0
  3  8  1  0  0  0  0
  4  5  1  0  0  0  0
  4 12  1  0  0  0  0
  5  6  2  0  0  0  0
  5 11  1  0  0  0  0
  6 14  1  0  0  0  0
  7 12  1  0  0  0  0
  8  9  1  0  0  0  0
  9 13  1  0  0  0  0
 10 13  1  0  0  0  0
  1 15  1  0  0  0  0
  2 16  1  0  0  0  0
  7 17  1  0  0  0  0
  7 18  1  0  0  0  0
  7 19  1  0  0  0  0
  8 20  1  0  0  0  0
  8 21  1  0  0  0  0
  9 22  1  0  0  0  0
  9 23  1  0  0  0  0
 10 24  1  0  0  0  0
 10 25  1  0  0  0  0
 11 26  1  0  0  0  0
M  END
> <id>
EN300-1935608

> <smiles>
COC=1C=CC(CCON)=C(Br)C1O

> <IUPAC Name>
3-[2-(aminooxy)ethyl]-2-bromo-6-methoxyphenol

> <CAS>
2229572-51-2

> <URL>
https://www.enaminestore.com/catalog/EN300-1935608

> <ROCS_ShapeQuery>
_x1604L0AP1_x0771L0AP1

> <ROCS_TanimotoCombo>
0.901 

> <ROCS_ShapeTanimoto>
0.485 

> <ROCS_ColorTanimoto>
0.416 

> <ROCS_RefTversky>
0.451 

> <ROCS_RefColorTversky>
0.431 

> <ROCS_RefTverskyCombo>
0.882 

> <ROCS_FitTversky>
1.186 

> <ROCS_FitColorTversky>
0.919 

> <ROCS_FitTverskyCombo>
2.105 

> <ROCS_ColorScore>
-4.903

> <ROCS_Overlap>
765.464

> <ROCS_Rank>
262                 

$$$$
untitled-dbase-1749_21
  -OEChem-06042309053D

 24 24  0     0  0  0  0  0  0999 V2000
   -4.2936   12.2263  -31.1273 C   0  0  0  0  0  0  0  0  0  0  0  0
   -5.1406   11.3806  -31.8434 C   0  0  0  0  0  0  0  0  0  0  0  0
   -4.4277   12.3392  -29.7435 C   0  0  0  0  0  0  0  0  0  0  0  0
   -6.1219   10.6478  -31.1758 C   0  0  0  0  0  0  0  0  0  0  0  0
   -6.2561   10.7607  -29.7919 C   0  0  0  0  0  0  0  0  0  0  0  0
   -5.4090   11.6064  -29.0758 C   0  0  0  0  0  0  0  0  0  0  0  0
   -6.2738    8.6426  -32.7325 C   0  0  0  0  0  0  0  0  0  0  0  0
   -7.1858    7.7306  -33.5544 C   0  0  0  0  0  0  0  0  0  0  0  0
   -7.0284    9.7396  -31.9704 C   0  0  0  0  0  0  0  0  0  0  0  0
   -6.3945    6.7124  -34.2374 N   0  0  0  0  0  0  0  0  0  0  0  0
   -7.2220   10.0385  -29.1532 O   0  0  0  0  0  0  0  0  0  0  0  0
   -7.9291    9.1095  -31.1542 F   0  0  0  0  0  0  0  0  0  0  0  0
   -7.7984   10.4185  -32.8727 F   0  0  0  0  0  0  0  0  0  0  0  0
   -5.5586   11.7867  -27.1946 Br  0  0  0  0  0  0  0  0  0  0  0  0
   -3.5292   12.7966  -31.6470 H   0  0  0  0  0  0  0  0  0  0  0  0
   -5.0276   11.2968  -32.9211 H   0  0  0  0  0  0  0  0  0  0  0  0
   -3.7581   13.0030  -29.2023 H   0  0  0  0  0  0  0  0  0  0  0  0
   -5.7324    8.0346  -31.9953 H   0  0  0  0  0  0  0  0  0  0  0  0
   -5.5075    9.0935  -33.3761 H   0  0  0  0  0  0  0  0  0  0  0  0
   -7.7403    8.3067  -34.3021 H   0  0  0  0  0  0  0  0  0  0  0  0
   -7.9138    7.2368  -32.9023 H   0  0  0  0  0  0  0  0  0  0  0  0
   -7.0140    6.1213  -34.7402 H   0  0  0  0  0  0  0  0  0  0  0  0
   -5.7671    7.1692  -34.8566 H   0  0  0  0  0  0  0  0  0  0  0  0
   -7.1961   10.2175  -28.2010 H   0  0  0  0  0  0  0  0  0  0  0  0
  1  2  1  0  0  0  0
  1  3  2  0  0  0  0
  2  4  2  0  0  0  0
  3  6  1  0  0  0  0
  4  5  1  0  0  0  0
  4  9  1  0  0  0  0
  5  6  2  0  0  0  0
  5 11  1  0  0  0  0
  6 14  1  0  0  0  0
  7  8  1  0  0  0  0
  7  9  1  0  0  0  0
  8 10  1  0  0  0  0
  9 12  1  0  0  0  0
  9 13  1  0  0  0  0
  1 15  1  0  0  0  0
  2 16  1  0  0  0  0
  3 17  1  0  0  0  0
  7 18  1  0  0  0  0
  7 19  1  0  0  0  0
  8 20  1  0  0  0  0
  8 21  1  0  0  0  0
 10 22  1  0  0  0  0
 10 23  1  0  0  0  0
 11 24  1  0  0  0  0
M  END
> <id>
EN300-1963217

> <smiles>
NCCC(F)(F)C=1C=CC=C(Br)C1O

> <IUPAC Name>
2-(3-amino-1,1-difluoropropyl)-6-bromophenol

> <CAS>
2228735-20-2

> <URL>
https://www.enaminestore.com/catalog/EN300-1963217

> <ROCS_ShapeQuery>
_x1604L0AP1_x0771L0AP1

> <ROCS_TanimotoCombo>
0.901 

> <ROCS_ShapeTanimoto>
0.536 

> <ROCS_ColorTanimoto>
0.365 

> <ROCS_RefTversky>
0.483 

> <ROCS_RefColorTversky>
0.415 

> <ROCS_RefTverskyCombo>
0.898 

> <ROCS_FitTversky>
1.254 

> <ROCS_FitColorTversky>
0.753 

> <ROCS_FitTverskyCombo>
2.007 

> <ROCS_ColorScore>
-4.733

> <ROCS_Overlap>
820.571

> <ROCS_Rank>
263                 

$$$$
untitled-dbase-231_0
  -OEChem-06042309053D

 22 23  0     1  0  0  0  0  0999 V2000
   -5.0690   11.1502  -31.7919 C   0  0  0  0  0  0  0  0  0  0  0  0
   -5.5312   11.8015  -29.1672 C   0  0  0  0  0  0  0  0  0  0  0  0
   -4.5588   12.4979  -29.8754 C   0  0  0  0  0  0  0  0  0  0  0  0
   -6.2847   10.7818  -29.7197 C   0  0  0  0  0  0  0  0  0  0  0  0
   -4.3224   12.1771  -31.2041 C   0  0  0  0  0  0  0  0  0  0  0  0
   -6.0425   10.4569  -31.0539 C   0  0  0  0  0  0  0  0  0  0  0  0
   -5.5885   12.3377  -27.8176 C   0  0  0  0  0  0  0  0  0  0  0  0
   -4.6014   13.4720  -27.6827 C   0  0  0  0  0  0  0  0  0  0  0  0
   -3.8810   13.5547  -29.0495 C   0  0  1  0  0  0  0  0  0  0  0  0
   -2.3829   13.3155  -28.8544 C   0  0  0  0  0  0  0  0  0  0  0  0
   -6.3311   11.9332  -26.9414 O   0  0  0  0  0  0  0  0  0  0  0  0
   -7.2235   10.1311  -28.9857 O   0  0  0  0  0  0  0  0  0  0  0  0
   -3.2027   13.0411  -32.1860 Cl  0  0  0  0  0  0  0  0  0  0  0  0
   -7.0198    9.0774  -31.9145 Br  0  0  0  0  0  0  0  0  0  0  0  0
   -4.9004   10.8930  -32.8363 H   0  0  0  0  0  0  0  0  0  0  0  0
   -5.1521   14.3974  -27.4841 H   0  0  0  0  0  0  0  0  0  0  0  0
   -3.9195   13.2680  -26.8513 H   0  0  0  0  0  0  0  0  0  0  0  0
   -4.0464   14.5451  -29.4898 H   0  0  0  0  0  0  0  0  0  0  0  0
   -2.2223   12.3321  -28.4174 H   0  0  0  0  0  0  0  0  0  0  0  0
   -1.9739   14.0739  -28.1901 H   0  0  0  0  0  0  0  0  0  0  0  0
   -1.8748   13.3683  -29.8150 H   0  0  0  0  0  0  0  0  0  0  0  0
   -7.2574   10.4893  -28.0831 H   0  0  0  0  0  0  0  0  0  0  0  0
  1  5  2  0  0  0  0
  1  6  1  0  0  0  0
  2  3  2  0  0  0  0
  2  4  1  0  0  0  0
  2  7  1  0  0  0  0
  3  5  1  0  0  0  0
  3  9  1  0  0  0  0
  4  6  2  0  0  0  0
  4 12  1  0  0  0  0
  5 13  1  0  0  0  0
  6 14  1  0  0  0  0
  7  8  1  0  0  0  0
  7 11  2  0  0  0  0
  8  9  1  0  0  0  0
  9 10  1  0  0  0  0
  1 15  1  0  0  0  0
  8 16  1  0  0  0  0
  8 17  1  0  0  0  0
  9 18  1  0  0  0  0
 10 19  1  0  0  0  0
 10 20  1  0  0  0  0
 10 21  1  0  0  0  0
 12 22  1  0  0  0  0
M  END
> <id>
EN300-86551

> <smiles>
CC1CC(=O)C=2C1=C(Cl)C=C(Br)C2O

> <MDLNUMBER>
MFCD08444562

> <IUPAC Name>
6-bromo-4-chloro-7-hydroxy-3-methyl-2,3-dihydro-1H-inden-1-one

> <CAS>
923214-14-6

> <URL>
https://www.enaminestore.com/catalog/EN300-86551

> <ROCS_ShapeQuery>
_x1604L0AP1_x0771L0AP1

> <ROCS_TanimotoCombo>
0.901 

> <ROCS_ShapeTanimoto>
0.497 

> <ROCS_ColorTanimoto>
0.404 

> <ROCS_RefTversky>
0.462 

> <ROCS_RefColorTversky>
0.446 

> <ROCS_RefTverskyCombo>
0.909 

> <ROCS_FitTversky>
1.177 

> <ROCS_FitColorTversky>
0.808 

> <ROCS_FitTverskyCombo>
1.986 

> <ROCS_ColorScore>
-5.094

> <ROCS_Overlap>
785.225

> <ROCS_Rank>
264                 

$$$$
untitled-dbase-2112_91
  -OEChem-06042309053D

 25 25  0     0  0  0  0  0  0999 V2000
   -4.6046   12.4880  -29.8213 C   0  0  0  0  0  0  0  0  0  0  0  0
   -5.0676   11.1552  -31.7824 C   0  0  0  0  0  0  0  0  0  0  0  0
   -4.3485   12.1730  -31.1557 C   0  0  0  0  0  0  0  0  0  0  0  0
   -5.5797   11.7852  -29.1134 C   0  0  0  0  0  0  0  0  0  0  0  0
   -6.2987   10.7675  -29.7401 C   0  0  0  0  0  0  0  0  0  0  0  0
   -6.0427   10.4524  -31.0746 C   0  0  0  0  0  0  0  0  0  0  0  0
   -2.6086   14.0038  -31.0953 C   0  0  0  0  0  0  0  0  0  0  0  0
   -3.2643   15.3605  -31.0717 C   0  0  0  0  0  0  0  0  0  0  0  0
   -5.0386   13.1580  -27.2484 C   0  0  0  0  0  0  0  0  0  0  0  0
   -3.3066   12.9252  -31.9124 C   0  0  0  0  0  0  0  0  0  0  0  0
   -1.5635   13.7972  -30.4798 O   0  0  0  0  0  0  0  0  0  0  0  0
   -7.2492   10.0922  -29.0313 O   0  0  0  0  0  0  0  0  0  0  0  0
   -5.8188   12.1050  -27.8108 O   0  0  0  0  0  0  0  0  0  0  0  0
   -6.9994    9.0759  -31.9601 Br  0  0  0  0  0  0  0  0  0  0  0  0
   -4.0456   13.2813  -29.3306 H   0  0  0  0  0  0  0  0  0  0  0  0
   -4.8610   10.9171  -32.8235 H   0  0  0  0  0  0  0  0  0  0  0  0
   -3.9679   15.4158  -30.2365 H   0  0  0  0  0  0  0  0  0  0  0  0
   -2.5023   16.1331  -30.9432 H   0  0  0  0  0  0  0  0  0  0  0  0
   -3.8103   15.5200  -32.0047 H   0  0  0  0  0  0  0  0  0  0  0  0
   -5.3292   13.3111  -26.2061 H   0  0  0  0  0  0  0  0  0  0  0  0
   -5.1971   14.0757  -27.8205 H   0  0  0  0  0  0  0  0  0  0  0  0
   -3.9827   12.8810  -27.2930 H   0  0  0  0  0  0  0  0  0  0  0  0
   -2.5336   12.2361  -32.2873 H   0  0  0  0  0  0  0  0  0  0  0  0
   -3.7499   13.4093  -32.7968 H   0  0  0  0  0  0  0  0  0  0  0  0
   -7.2973   10.4367  -28.1266 H   0  0  0  0  0  0  0  0  0  0  0  0
  1  3  1  0  0  0  0
  1  4  2  0  0  0  0
  2  3  2  0  0  0  0
  2  6  1  0  0  0  0
  3 10  1  0  0  0  0
  4  5  1  0  0  0  0
  4 13  1  0  0  0  0
  5  6  2  0  0  0  0
  5 12  1  0  0  0  0
  6 14  1  0  0  0  0
  7  8  1  0  0  0  0
  7 10  1  0  0  0  0
  7 11  2  0  0  0  0
  9 13  1  0  0  0  0
  1 15  1  0  0  0  0
  2 16  1  0  0  0  0
  8 17  1  0  0  0  0
  8 18  1  0  0  0  0
  8 19  1  0  0  0  0
  9 20  1  0  0  0  0
  9 21  1  0  0  0  0
  9 22  1  0  0  0  0
 10 23  1  0  0  0  0
 10 24  1  0  0  0  0
 12 25  1  0  0  0  0
M  END
> <id>
EN300-1894704

> <smiles>
COC=1C=C(CC(=O)C)C=C(Br)C1O

> <MDLNUMBER>
MFCD00210396

> <IUPAC Name>
1-(3-bromo-4-hydroxy-5-methoxyphenyl)propan-2-one

> <CAS>
205826-79-5

> <URL>
https://www.enaminestore.com/catalog/EN300-1894704

> <ROCS_ShapeQuery>
_x1604L0AP1_x0771L0AP1

> <ROCS_TanimotoCombo>
0.901 

> <ROCS_ShapeTanimoto>
0.518 

> <ROCS_ColorTanimoto>
0.383 

> <ROCS_RefTversky>
0.472 

> <ROCS_RefColorTversky>
0.429 

> <ROCS_RefTverskyCombo>
0.901 

> <ROCS_FitTversky>
1.233 

> <ROCS_FitColorTversky>
0.779 

> <ROCS_FitTverskyCombo>
2.013 

> <ROCS_ColorScore>
-4.898

> <ROCS_Overlap>
800.686

> <ROCS_Rank>
265                 

$$$$
untitled-dbase-1788_10
  -OEChem-06042309053D

 21 21  0     1  0  0  0  0  0999 V2000
   -5.0696   11.1360  -31.8063 C   0  0  0  0  0  0  0  0  0  0  0  0
   -5.5692   11.7814  -29.1386 C   0  0  0  0  0  0  0  0  0  0  0  0
   -4.3443   12.1541  -31.1875 C   0  0  0  0  0  0  0  0  0  0  0  0
   -6.2946   10.7634  -29.7575 C   0  0  0  0  0  0  0  0  0  0  0  0
   -4.5940   12.4768  -29.8536 C   0  0  0  0  0  0  0  0  0  0  0  0
   -6.0449   10.4407  -31.0914 C   0  0  0  0  0  0  0  0  0  0  0  0
   -1.9228   12.2179  -31.9119 C   0  0  0  0  0  0  0  0  0  0  0  0
   -3.3077   12.8748  -31.9876 C   0  0  2  0  0  0  0  0  0  0  0  0
   -3.2097   14.2745  -31.6147 N   0  0  0  0  0  0  0  0  0  0  0  0
   -7.2404   10.1023  -29.0317 O   0  0  0  0  0  0  0  0  0  0  0  0
   -3.7168   13.7302  -29.0550 Cl  0  0  0  0  0  0  0  0  0  0  0  0
   -7.0110    9.0627  -31.9638 Br  0  0  0  0  0  0  0  0  0  0  0  0
   -4.8692   10.8897  -32.8468 H   0  0  0  0  0  0  0  0  0  0  0  0
   -5.7704   12.0262  -28.0981 H   0  0  0  0  0  0  0  0  0  0  0  0
   -1.5731   12.1684  -30.8749 H   0  0  0  0  0  0  0  0  0  0  0  0
   -1.9466   11.1976  -32.3110 H   0  0  0  0  0  0  0  0  0  0  0  0
   -1.1785   12.7736  -32.4933 H   0  0  0  0  0  0  0  0  0  0  0  0
   -3.5958   12.8915  -33.0525 H   0  0  0  0  0  0  0  0  0  0  0  0
   -2.5194   14.7091  -32.1848 H   0  0  0  0  0  0  0  0  0  0  0  0
   -4.0955   14.7051  -31.7578 H   0  0  0  0  0  0  0  0  0  0  0  0
   -7.6672    9.4241  -29.5779 H   0  0  0  0  0  0  0  0  0  0  0  0
  1  3  2  0  0  0  0
  1  6  1  0  0  0  0
  2  4  1  0  0  0  0
  2  5  2  0  0  0  0
  3  5  1  0  0  0  0
  3  8  1  0  0  0  0
  4  6  2  0  0  0  0
  4 10  1  0  0  0  0
  5 11  1  0  0  0  0
  6 12  1  0  0  0  0
  7  8  1  0  0  0  0
  8  9  1  0  0  0  0
  1 13  1  0  0  0  0
  2 14  1  0  0  0  0
  7 15  1  0  0  0  0
  7 16  1  0  0  0  0
  7 17  1  0  0  0  0
  8 18  1  0  0  0  0
  9 19  1  0  0  0  0
  9 20  1  0  0  0  0
 10 21  1  0  0  0  0
M  END
> <id>
EN300-1277466

> <smiles>
CC(N)C=1C=C(Br)C(O)=CC1Cl

> <IUPAC Name>
4-(1-aminoethyl)-2-bromo-5-chlorophenol

> <CAS>
2168993-39-1

> <URL>
https://www.enaminestore.com/catalog/EN300-1277466

> <ROCS_ShapeQuery>
_x1604L0AP1_x0771L0AP1

> <ROCS_TanimotoCombo>
0.901 

> <ROCS_ShapeTanimoto>
0.520 

> <ROCS_ColorTanimoto>
0.381 

> <ROCS_RefTversky>
0.455 

> <ROCS_RefColorTversky>
0.427 

> <ROCS_RefTverskyCombo>
0.882 

> <ROCS_FitTversky>
1.383 

> <ROCS_FitColorTversky>
0.776 

> <ROCS_FitTverskyCombo>
2.159 

> <ROCS_ColorScore>
-4.879

> <ROCS_Overlap>
769.204

> <ROCS_Rank>
266                 

$$$$
untitled-dbase-1763_1
  -OEChem-06042309053D

 25 26  0     0  0  0  0  0  0999 V2000
   -4.9890   11.1906  -31.7475 C   0  0  0  0  0  0  0  0  0  0  0  0
   -4.5792   12.5264  -29.7765 C   0  0  0  0  0  0  0  0  0  0  0  0
   -5.9772   10.4833  -31.0628 C   0  0  0  0  0  0  0  0  0  0  0  0
   -4.2900   12.2121  -31.1044 C   0  0  0  0  0  0  0  0  0  0  0  0
   -6.2664   10.7976  -29.7349 C   0  0  0  0  0  0  0  0  0  0  0  0
   -5.5674   11.8191  -29.0918 C   0  0  0  0  0  0  0  0  0  0  0  0
   -6.6932    9.4216  -31.7567 C   0  0  0  0  0  0  0  0  0  0  0  0
   -7.3346    8.5325  -34.0766 C   0  0  0  0  0  0  0  0  0  0  0  0
   -6.9584    9.9736  -34.2473 C   0  0  0  0  0  0  0  0  0  0  0  0
   -6.3172    9.1524  -33.1838 C   0  0  0  0  0  0  0  0  0  0  0  0
   -3.2332   12.9678  -31.8367 C   0  0  0  0  0  0  0  0  0  0  0  0
   -7.5859    8.7333  -31.2607 O   0  0  0  0  0  0  0  0  0  0  0  0
   -7.2361   10.0983  -29.0758 O   0  0  0  0  0  0  0  0  0  0  0  0
   -5.9324   12.2770  -27.2884 Br  0  0  0  0  0  0  0  0  0  0  0  0
   -4.7614   10.9483  -32.7834 H   0  0  0  0  0  0  0  0  0  0  0  0
   -4.0290   13.3243  -29.2829 H   0  0  0  0  0  0  0  0  0  0  0  0
   -8.3233    8.3122  -33.6928 H   0  0  0  0  0  0  0  0  0  0  0  0
   -6.9725    7.8256  -34.8131 H   0  0  0  0  0  0  0  0  0  0  0  0
   -6.3433   10.2369  -35.0992 H   0  0  0  0  0  0  0  0  0  0  0  0
   -7.6959   10.7206  -33.9801 H   0  0  0  0  0  0  0  0  0  0  0  0
   -5.2896    8.8714  -33.2990 H   0  0  0  0  0  0  0  0  0  0  0  0
   -3.6668   13.8414  -32.3388 H   0  0  0  0  0  0  0  0  0  0  0  0
   -2.4457   13.3139  -31.1547 H   0  0  0  0  0  0  0  0  0  0  0  0
   -2.7449   12.3388  -32.5925 H   0  0  0  0  0  0  0  0  0  0  0  0
   -7.6202    9.4294  -29.6624 H   0  0  0  0  0  0  0  0  0  0  0  0
  1  3  2  0  0  0  0
  1  4  1  0  0  0  0
  2  4  2  0  0  0  0
  2  6  1  0  0  0  0
  3  5  1  0  0  0  0
  3  7  1  0  0  0  0
  4 11  1  0  0  0  0
  5  6  2  0  0  0  0
  5 13  1  0  0  0  0
  6 14  1  0  0  0  0
  7 10  1  0  0  0  0
  7 12  2  0  0  0  0
  8  9  1  0  0  0  0
  8 10  1  0  0  0  0
  9 10  1  0  0  0  0
  1 15  1  0  0  0  0
  2 16  1  0  0  0  0
  8 17  1  0  0  0  0
  8 18  1  0  0  0  0
  9 19  1  0  0  0  0
  9 20  1  0  0  0  0
 10 21  1  0  0  0  0
 11 22  1  0  0  0  0
 11 23  1  0  0  0  0
 11 24  1  0  0  0  0
 13 25  1  0  0  0  0
M  END
> <id>
EN300-1276666

> <smiles>
CC=1C=C(Br)C(O)=C(C1)C(=O)C2CC2

> <MDLNUMBER>
MFCD16742915

> <IUPAC Name>
2-bromo-6-cyclopropanecarbonyl-4-methylphenol

> <CAS>
1247430-17-6

> <URL>
https://www.enaminestore.com/catalog/EN300-1276666

> <ROCS_ShapeQuery>
_x1604L0AP1_x0771L0AP1

> <ROCS_TanimotoCombo>
0.900 

> <ROCS_ShapeTanimoto>
0.597 

> <ROCS_ColorTanimoto>
0.303 

> <ROCS_RefTversky>
0.520 

> <ROCS_RefColorTversky>
0.342 

> <ROCS_RefTverskyCombo>
0.862 

> <ROCS_FitTversky>
1.330 

> <ROCS_FitColorTversky>
0.728 

> <ROCS_FitTverskyCombo>
2.059 

> <ROCS_ColorScore>
-3.886

> <ROCS_Overlap>
882.957

> <ROCS_Rank>
267                 

$$$$
untitled-dbase-214_18
  -OEChem-06042309053D

 17 17  0     0  0  0  0  0  0999 V2000
   -5.0734   11.1383  -31.8029 C   0  0  0  0  0  0  0  0  0  0  0  0
   -4.5868   12.4880  -29.8591 C   0  0  0  0  0  0  0  0  0  0  0  0
   -4.3439   12.1585  -31.1925 C   0  0  0  0  0  0  0  0  0  0  0  0
   -6.2889   10.7771  -29.7464 C   0  0  0  0  0  0  0  0  0  0  0  0
   -6.0460   10.4477  -31.0798 C   0  0  0  0  0  0  0  0  0  0  0  0
   -5.5593   11.7973  -29.1360 C   0  0  0  0  0  0  0  0  0  0  0  0
   -3.3042   12.8972  -31.9658 C   0  0  0  0  0  0  0  0  0  0  0  0
   -7.2399   10.1003  -29.0380 O   0  0  0  0  0  0  0  0  0  0  0  0
   -2.2190   13.8934  -30.8991 S   0  0  0  0  0  0  0  0  0  0  0  0
   -7.0147    9.0676  -31.9475 Br  0  0  0  0  0  0  0  0  0  0  0  0
   -5.8589   12.2767  -27.3260 Br  0  0  0  0  0  0  0  0  0  0  0  0
   -4.8772   10.8897  -32.8432 H   0  0  0  0  0  0  0  0  0  0  0  0
   -4.0126   13.2849  -29.3916 H   0  0  0  0  0  0  0  0  0  0  0  0
   -2.6775   12.2016  -32.5432 H   0  0  0  0  0  0  0  0  0  0  0  0
   -3.7706   13.5671  -32.7030 H   0  0  0  0  0  0  0  0  0  0  0  0
   -7.2880   10.4446  -28.1336 H   0  0  0  0  0  0  0  0  0  0  0  0
   -1.7566   12.8662  -30.1741 H   0  0  0  0  0  0  0  0  0  0  0  0
  1  3  2  0  0  0  0
  1  5  1  0  0  0  0
  2  3  1  0  0  0  0
  2  6  2  0  0  0  0
  3  7  1  0  0  0  0
  4  5  2  0  0  0  0
  4  6  1  0  0  0  0
  4  8  1  0  0  0  0
  5 10  1  0  0  0  0
  6 11  1  0  0  0  0
  7  9  1  0  0  0  0
  1 12  1  0  0  0  0
  2 13  1  0  0  0  0
  7 14  1  0  0  0  0
  7 15  1  0  0  0  0
  8 16  1  0  0  0  0
  9 17  1  0  0  0  0
M  END
> <id>
EN300-1288713

> <smiles>
OC=1C(Br)=CC(CS)=CC1Br

> <MDLNUMBER>
MFCD33497329

> <IUPAC Name>
2,6-dibromo-4-(sulfanylmethyl)phenol

> <CAS>
2172291-20-0

> <URL>
https://www.enaminestore.com/catalog/EN300-1288713

> <ROCS_ShapeQuery>
_x1604L0AP1_x0771L0AP1

> <ROCS_TanimotoCombo>
0.900 

> <ROCS_ShapeTanimoto>
0.487 

> <ROCS_ColorTanimoto>
0.413 

> <ROCS_RefTversky>
0.425 

> <ROCS_RefColorTversky>
0.430 

> <ROCS_RefTverskyCombo>
0.855 

> <ROCS_FitTversky>
1.427 

> <ROCS_FitColorTversky>
0.915 

> <ROCS_FitTverskyCombo>
2.342 

> <ROCS_ColorScore>
-4.882

> <ROCS_Overlap>
718.367

> <ROCS_Rank>
268                 

$$$$
untitled-dbase-1456_0
  -OEChem-06042309053D

 15 15  0     0  0  0  0  0  0999 V2000
   -4.3534   12.1531  -31.2130 C   0  0  0  0  0  0  0  0  0  0  0  0
   -5.0800   11.1307  -31.8231 C   0  0  0  0  0  0  0  0  0  0  0  0
   -5.5678   11.7888  -29.1563 C   0  0  0  0  0  0  0  0  0  0  0  0
   -4.5973   12.4822  -29.8795 C   0  0  0  0  0  0  0  0  0  0  0  0
   -6.2944   10.7664  -29.7665 C   0  0  0  0  0  0  0  0  0  0  0  0
   -6.0505   10.4374  -31.0999 C   0  0  0  0  0  0  0  0  0  0  0  0
   -3.8388   13.5475  -29.2433 C   0  0  0  0  0  0  0  0  0  0  0  0
   -2.9671   14.1963  -29.8285 O   0  0  0  0  0  0  0  0  0  0  0  0
   -7.2357   10.1078  -29.0325 O   0  0  0  0  0  0  0  0  0  0  0  0
   -7.0186    9.0549  -31.9623 Br  0  0  0  0  0  0  0  0  0  0  0  0
   -3.5992   12.6867  -31.7856 H   0  0  0  0  0  0  0  0  0  0  0  0
   -4.8766   10.8880  -32.8630 H   0  0  0  0  0  0  0  0  0  0  0  0
   -5.7602   12.0426  -28.1164 H   0  0  0  0  0  0  0  0  0  0  0  0
   -4.0683   13.7737  -28.1792 H   0  0  0  0  0  0  0  0  0  0  0  0
   -7.6641    9.4261  -29.5730 H   0  0  0  0  0  0  0  0  0  0  0  0
  1  2  1  0  0  0  0
  1  4  2  0  0  0  0
  2  6  2  0  0  0  0
  3  4  1  0  0  0  0
  3  5  2  0  0  0  0
  4  7  1  0  0  0  0
  5  6  1  0  0  0  0
  5  9  1  0  0  0  0
  6 10  1  0  0  0  0
  7  8  2  0  0  0  0
  1 11  1  0  0  0  0
  2 12  1  0  0  0  0
  3 13  1  0  0  0  0
  7 14  1  0  0  0  0
  9 15  1  0  0  0  0
M  END
> <id>
EN300-189203

> <smiles>
OC=1C=C(C=O)C=CC1Br

> <MDLNUMBER>
MFCD11100992

> <IUPAC Name>
4-bromo-3-hydroxybenzaldehyde

> <CAS>
20035-32-9

> <Purity>
95

> <URL>
https://www.enaminestore.com/catalog/EN300-189203

> <MP>
132-134

> <ROCS_ShapeQuery>
_x1604L0AP1_x0771L0AP1

> <ROCS_TanimotoCombo>
0.900 

> <ROCS_ShapeTanimoto>
0.488 

> <ROCS_ColorTanimoto>
0.413 

> <ROCS_RefTversky>
0.422 

> <ROCS_RefColorTversky>
0.429 

> <ROCS_RefTverskyCombo>
0.852 

> <ROCS_FitTversky>
1.463 

> <ROCS_FitColorTversky>
0.914 

> <ROCS_FitTverskyCombo>
2.378 

> <ROCS_ColorScore>
-4.878

> <ROCS_Overlap>
713.237

> <ROCS_Rank>
269                 

$$$$
untitled-dbase-2162_187
  -OEChem-06042309053D

 24 24  0     1  0  0  0  0  0999 V2000
   -4.5878   12.4668  -29.8269 C   0  0  0  0  0  0  0  0  0  0  0  0
   -5.5713   11.7733  -29.1216 C   0  0  0  0  0  0  0  0  0  0  0  0
   -5.0540   11.1340  -31.7873 C   0  0  0  0  0  0  0  0  0  0  0  0
   -4.3292   12.1471  -31.1598 C   0  0  0  0  0  0  0  0  0  0  0  0
   -6.2961   10.7602  -29.7491 C   0  0  0  0  0  0  0  0  0  0  0  0
   -6.0375   10.4405  -31.0820 C   0  0  0  0  0  0  0  0  0  0  0  0
   -3.8391   13.5645  -33.1947 C   0  0  0  0  0  0  0  0  0  0  0  0
   -3.2544   12.9052  -31.9292 C   0  0  1  0  0  0  0  0  0  0  0  0
   -2.5288   13.9009  -31.0183 C   0  0  0  0  0  0  0  0  0  0  0  0
   -4.8992   14.5178  -32.8782 N   0  0  0  0  0  0  0  0  0  0  0  0
   -7.2493   10.1006  -29.0317 O   0  0  0  0  0  0  0  0  0  0  0  0
   -3.3984   14.7886  -30.4774 F   0  0  0  0  0  0  0  0  0  0  0  0
   -1.9410   13.2444  -29.9855 F   0  0  0  0  0  0  0  0  0  0  0  0
   -7.0018    9.0689  -31.9660 Br  0  0  0  0  0  0  0  0  0  0  0  0
   -4.0284   13.2544  -29.3288 H   0  0  0  0  0  0  0  0  0  0  0  0
   -5.7672   12.0280  -28.0833 H   0  0  0  0  0  0  0  0  0  0  0  0
   -4.8458   10.8919  -32.8274 H   0  0  0  0  0  0  0  0  0  0  0  0
   -3.0475   14.1027  -33.7297 H   0  0  0  0  0  0  0  0  0  0  0  0
   -4.2371   12.8110  -33.8839 H   0  0  0  0  0  0  0  0  0  0  0  0
   -2.5062   12.1678  -32.2528 H   0  0  0  0  0  0  0  0  0  0  0  0
   -1.7509   14.4597  -31.5450 H   0  0  0  0  0  0  0  0  0  0  0  0
   -4.5134   15.2340  -32.3095 H   0  0  0  0  0  0  0  0  0  0  0  0
   -5.2429   14.8934  -33.7302 H   0  0  0  0  0  0  0  0  0  0  0  0
   -7.6751    9.4258  -29.5829 H   0  0  0  0  0  0  0  0  0  0  0  0
  1  2  1  0  0  0  0
  1  4  2  0  0  0  0
  2  5  2  0  0  0  0
  3  4  1  0  0  0  0
  3  6  2  0  0  0  0
  4  8  1  0  0  0  0
  5  6  1  0  0  0  0
  5 11  1  0  0  0  0
  6 14  1  0  0  0  0
  7  8  1  0  0  0  0
  7 10  1  0  0  0  0
  8  9  1  0  0  0  0
  9 12  1  0  0  0  0
  9 13  1  0  0  0  0
  1 15  1  0  0  0  0
  2 16  1  0  0  0  0
  3 17  1  0  0  0  0
  7 18  1  0  0  0  0
  7 19  1  0  0  0  0
  8 20  1  0  0  0  0
  9 21  1  0  0  0  0
 10 22  1  0  0  0  0
 10 23  1  0  0  0  0
 11 24  1  0  0  0  0
M  END
> <id>
EN300-1949517

> <smiles>
NCC(C(F)F)C=1C=CC(O)=C(Br)C1

> <IUPAC Name>
4-(3-amino-1,1-difluoropropan-2-yl)-2-bromophenol

> <CAS>
2228661-15-0

> <URL>
https://www.enaminestore.com/catalog/EN300-1949517

> <ROCS_ShapeQuery>
_x1604L0AP1_x0771L0AP1

> <ROCS_TanimotoCombo>
0.900 

> <ROCS_ShapeTanimoto>
0.520 

> <ROCS_ColorTanimoto>
0.380 

> <ROCS_RefTversky>
0.472 

> <ROCS_RefColorTversky>
0.427 

> <ROCS_RefTverskyCombo>
0.900 

> <ROCS_FitTversky>
1.238 

> <ROCS_FitColorTversky>
0.776 

> <ROCS_FitTverskyCombo>
2.014 

> <ROCS_ColorScore>
-4.878

> <ROCS_Overlap>
801.684

> <ROCS_Rank>
270                 

$$$$
untitled-dbase-1532_17
  -OEChem-06042309053D

 24 24  0     0  0  0  0  0  0999 V2000
   -4.6077   12.4891  -29.8871 C   0  0  0  0  0  0  0  0  0  0  0  0
   -4.3702   12.1645  -31.2227 C   0  0  0  0  0  0  0  0  0  0  0  0
   -5.5707   11.7894  -29.1600 C   0  0  0  0  0  0  0  0  0  0  0  0
   -5.0958   11.1404  -31.8312 C   0  0  0  0  0  0  0  0  0  0  0  0
   -6.2963   10.7653  -29.7685 C   0  0  0  0  0  0  0  0  0  0  0  0
   -6.0589   10.4407  -31.1041 C   0  0  0  0  0  0  0  0  0  0  0  0
   -5.5036    9.5560  -35.8920 C   0  0  0  0  0  0  0  0  0  0  0  0
   -4.8014   10.8292  -33.2764 C   0  0  0  0  0  0  0  0  0  0  0  0
   -5.5857   11.0460  -35.6632 C   0  0  0  0  0  0  0  0  0  0  0  0
   -5.8717   11.4013  -34.2077 C   0  0  0  0  0  0  0  0  0  0  0  0
   -6.0924    8.7124  -35.2245 O   0  0  0  0  0  0  0  0  0  0  0  0
   -7.2298   10.1041  -29.0266 O   0  0  0  0  0  0  0  0  0  0  0  0
   -7.0547    9.0414  -31.9234 Br  0  0  0  0  0  0  0  0  0  0  0  0
   -4.0430   13.2868  -29.4135 H   0  0  0  0  0  0  0  0  0  0  0  0
   -3.6175   12.7164  -31.7800 H   0  0  0  0  0  0  0  0  0  0  0  0
   -5.7504   12.0485  -28.1200 H   0  0  0  0  0  0  0  0  0  0  0  0
   -4.8551    9.2501  -36.7311 H   0  0  0  0  0  0  0  0  0  0  0  0
   -4.7284    9.7420  -33.4075 H   0  0  0  0  0  0  0  0  0  0  0  0
   -3.8151   11.2311  -33.5414 H   0  0  0  0  0  0  0  0  0  0  0  0
   -4.6328   11.4809  -35.9830 H   0  0  0  0  0  0  0  0  0  0  0  0
   -6.3754   11.4358  -36.3145 H   0  0  0  0  0  0  0  0  0  0  0  0
   -5.9209   12.4922  -34.0977 H   0  0  0  0  0  0  0  0  0  0  0  0
   -6.8605   11.0194  -33.9221 H   0  0  0  0  0  0  0  0  0  0  0  0
   -7.6603    9.4208  -29.5633 H   0  0  0  0  0  0  0  0  0  0  0  0
  1  2  2  0  0  0  0
  1  3  1  0  0  0  0
  2  4  1  0  0  0  0
  3  5  2  0  0  0  0
  4  6  2  0  0  0  0
  4  8  1  0  0  0  0
  5  6  1  0  0  0  0
  5 12  1  0  0  0  0
  6 13  1  0  0  0  0
  7  9  1  0  0  0  0
  7 11  2  0  0  0  0
  8 10  1  0  0  0  0
  9 10  1  0  0  0  0
  1 14  1  0  0  0  0
  2 15  1  0  0  0  0
  3 16  1  0  0  0  0
  7 17  1  0  0  0  0
  8 18  1  0  0  0  0
  8 19  1  0  0  0  0
  9 20  1  0  0  0  0
  9 21  1  0  0  0  0
 10 22  1  0  0  0  0
 10 23  1  0  0  0  0
 12 24  1  0  0  0  0
M  END
> <id>
EN300-1904606

> <smiles>
OC=1C=CC=C(CCCC=O)C1Br

> <IUPAC Name>
4-(2-bromo-3-hydroxyphenyl)butanal

> <CAS>
2229468-19-1

> <URL>
https://www.enaminestore.com/catalog/EN300-1904606

> <ROCS_ShapeQuery>
_x1604L0AP1_x0771L0AP1

> <ROCS_TanimotoCombo>
0.900 

> <ROCS_ShapeTanimoto>
0.487 

> <ROCS_ColorTanimoto>
0.413 

> <ROCS_RefTversky>
0.442 

> <ROCS_RefColorTversky>
0.430 

> <ROCS_RefTverskyCombo>
0.872 

> <ROCS_FitTversky>
1.259 

> <ROCS_FitColorTversky>
0.915 

> <ROCS_FitTverskyCombo>
2.174 

> <ROCS_ColorScore>
-4.883

> <ROCS_Overlap>
749.662

> <ROCS_Rank>
271                 

$$$$
untitled-dbase-2301_1257
  -OEChem-06042309053D

 38 40  0     0  0  0  0  0  0999 V2000
   -1.9926   15.0451  -30.3893 C   0  0  0  0  0  0  0  0  0  0  0  0
   -2.0302   13.7605  -30.9314 C   0  0  0  0  0  0  0  0  0  0  0  0
   -2.8590   15.3899  -29.3519 C   0  0  0  0  0  0  0  0  0  0  0  0
   -2.9343   12.8207  -30.4364 C   0  0  0  0  0  0  0  0  0  0  0  0
   -3.7631   14.4502  -28.8568 C   0  0  0  0  0  0  0  0  0  0  0  0
   -6.6284    7.7263  -33.3928 C   0  0  0  0  0  0  0  0  0  0  0  0
   -5.8391    9.7966  -35.0840 C   0  0  0  0  0  0  0  0  0  0  0  0
   -6.6087    9.0424  -32.9086 C   0  0  0  0  0  0  0  0  0  0  0  0
   -6.2246   10.0870  -33.7682 C   0  0  0  0  0  0  0  0  0  0  0  0
   -3.8008   13.1655  -29.3990 C   0  0  0  0  0  0  0  0  0  0  0  0
   -6.2562    7.4492  -34.7080 C   0  0  0  0  0  0  0  0  0  0  0  0
   -5.8594    8.4832  -35.5520 C   0  0  0  0  0  0  0  0  0  0  0  0
   -6.7180   11.0904  -29.7279 C   0  0  0  0  0  0  0  0  0  0  0  0
   -6.1713   11.5059  -33.2660 C   0  0  0  0  0  0  0  0  0  0  0  0
   -7.0144    9.3044  -31.4790 C   0  0  0  0  0  0  0  0  0  0  0  0
   -7.1219   11.7151  -32.0937 C   0  0  0  0  0  0  0  0  0  0  0  0
   -4.7737   12.1552  -28.8661 C   0  0  0  0  0  0  0  0  0  0  0  0
   -6.8907   10.7070  -31.0623 N   0  0  0  0  0  0  0  0  0  0  0  0
   -7.1535   10.4647  -28.7632 O   0  0  0  0  0  0  0  0  0  0  0  0
   -6.2874    6.1549  -35.1350 O   0  0  0  0  0  0  0  0  0  0  0  0
   -5.9970   12.2493  -29.6049 O   0  0  0  0  0  0  0  0  0  0  0  0
   -5.3370    8.1427  -37.3418 Br  0  0  0  0  0  0  0  0  0  0  0  0
   -1.2877   15.7763  -30.7740 H   0  0  0  0  0  0  0  0  0  0  0  0
   -1.3550   13.4915  -31.7385 H   0  0  0  0  0  0  0  0  0  0  0  0
   -2.8292   16.3896  -28.9287 H   0  0  0  0  0  0  0  0  0  0  0  0
   -2.9567   11.8223  -30.8651 H   0  0  0  0  0  0  0  0  0  0  0  0
   -4.4344   14.7278  -28.0484 H   0  0  0  0  0  0  0  0  0  0  0  0
   -6.9334    6.9134  -32.7373 H   0  0  0  0  0  0  0  0  0  0  0  0
   -5.5243   10.6070  -35.7382 H   0  0  0  0  0  0  0  0  0  0  0  0
   -5.1423   11.7351  -32.9631 H   0  0  0  0  0  0  0  0  0  0  0  0
   -6.4470   12.1987  -34.0696 H   0  0  0  0  0  0  0  0  0  0  0  0
   -8.0686    9.0324  -31.3477 H   0  0  0  0  0  0  0  0  0  0  0  0
   -6.4123    8.6753  -30.8145 H   0  0  0  0  0  0  0  0  0  0  0  0
   -6.9973   12.7244  -31.6885 H   0  0  0  0  0  0  0  0  0  0  0  0
   -8.1666   11.6172  -32.4141 H   0  0  0  0  0  0  0  0  0  0  0  0
   -4.3756   11.1393  -28.9623 H   0  0  0  0  0  0  0  0  0  0  0  0
   -4.9795   12.3369  -27.8057 H   0  0  0  0  0  0  0  0  0  0  0  0
   -6.0071    6.1020  -36.0619 H   0  0  0  0  0  0  0  0  0  0  0  0
  1  2  2  0  0  0  0
  1  3  1  0  0  0  0
  2  4  1  0  0  0  0
  3  5  2  0  0  0  0
  4 10  2  0  0  0  0
  5 10  1  0  0  0  0
  6  8  1  0  0  0  0
  6 11  2  0  0  0  0
  7  9  1  0  0  0  0
  7 12  2  0  0  0  0
  8  9  2  0  0  0  0
  8 15  1  0  0  0  0
  9 14  1  0  0  0  0
 10 17  1  0  0  0  0
 11 12  1  0  0  0  0
 11 20  1  0  0  0  0
 12 22  1  0  0  0  0
 13 18  1  0  0  0  0
 13 19  2  0  0  0  0
 13 21  1  0  0  0  0
 14 16  1  0  0  0  0
 15 18  1  0  0  0  0
 16 18  1  0  0  0  0
 17 21  1  0  0  0  0
  1 23  1  0  0  0  0
  2 24  1  0  0  0  0
  3 25  1  0  0  0  0
  4 26  1  0  0  0  0
  5 27  1  0  0  0  0
  6 28  1  0  0  0  0
  7 29  1  0  0  0  0
 14 30  1  0  0  0  0
 14 31  1  0  0  0  0
 15 32  1  0  0  0  0
 15 33  1  0  0  0  0
 16 34  1  0  0  0  0
 16 35  1  0  0  0  0
 17 36  1  0  0  0  0
 17 37  1  0  0  0  0
 20 38  1  0  0  0  0
M  END
> <id>
EN300-44827157

> <smiles>
OC=1C=C2CN(CCC2=CC1Br)C(=O)OCC=3C=CC=CC3

> <IUPAC Name>
benzyl 6-bromo-7-hydroxy-1,2,3,4-tetrahydroisoquinoline-2-carboxylate

> <URL>
https://www.enaminestore.com/catalog/EN300-44827157

> <ROCS_ShapeQuery>
_x1604L0AP1_x0771L0AP1

> <ROCS_TanimotoCombo>
0.900 

> <ROCS_ShapeTanimoto>
0.659 

> <ROCS_ColorTanimoto>
0.241 

> <ROCS_RefTversky>
0.633 

> <ROCS_RefColorTversky>
0.317 

> <ROCS_RefTverskyCombo>
0.950 

> <ROCS_FitTversky>
1.066 

> <ROCS_FitColorTversky>
0.502 

> <ROCS_FitTverskyCombo>
1.568 

> <ROCS_ColorScore>
-3.633

> <ROCS_Overlap>
1086.676

> <ROCS_Rank>
272                 

$$$$
untitled-dbase-211_1
  -OEChem-06042309053D

 22 23  0     0  0  0  0  0  0999 V2000
   -4.9958   11.1972  -31.7502 C   0  0  0  0  0  0  0  0  0  0  0  0
   -4.5749   12.5221  -29.7742 C   0  0  0  0  0  0  0  0  0  0  0  0
   -5.9832   10.4892  -31.0651 C   0  0  0  0  0  0  0  0  0  0  0  0
   -6.2665   10.7976  -29.7346 C   0  0  0  0  0  0  0  0  0  0  0  0
   -4.2916   12.2137  -31.1047 C   0  0  0  0  0  0  0  0  0  0  0  0
   -5.5623   11.8141  -29.0891 C   0  0  0  0  0  0  0  0  0  0  0  0
   -6.7055    9.4336  -31.7627 C   0  0  0  0  0  0  0  0  0  0  0  0
   -7.3586    8.5609  -34.0854 C   0  0  0  0  0  0  0  0  0  0  0  0
   -6.9788   10.0018  -34.2488 C   0  0  0  0  0  0  0  0  0  0  0  0
   -6.3359    9.1722  -33.1927 C   0  0  0  0  0  0  0  0  0  0  0  0
   -7.5981    8.7453  -31.2671 O   0  0  0  0  0  0  0  0  0  0  0  0
   -7.2359   10.0980  -29.0756 O   0  0  0  0  0  0  0  0  0  0  0  0
   -3.3433   12.8935  -31.7628 F   0  0  0  0  0  0  0  0  0  0  0  0
   -5.9194   12.2657  -27.2827 Br  0  0  0  0  0  0  0  0  0  0  0  0
   -4.7663   10.9674  -32.7875 H   0  0  0  0  0  0  0  0  0  0  0  0
   -4.0157   13.3172  -29.2880 H   0  0  0  0  0  0  0  0  0  0  0  0
   -8.3465    8.3411  -33.6992 H   0  0  0  0  0  0  0  0  0  0  0  0
   -7.0016    7.8575  -34.8278 H   0  0  0  0  0  0  0  0  0  0  0  0
   -6.3663   10.2685  -35.1015 H   0  0  0  0  0  0  0  0  0  0  0  0
   -7.7130   10.7494  -33.9741 H   0  0  0  0  0  0  0  0  0  0  0  0
   -5.3096    8.8889  -33.3139 H   0  0  0  0  0  0  0  0  0  0  0  0
   -7.6243    9.4333  -29.6643 H   0  0  0  0  0  0  0  0  0  0  0  0
  1  3  2  0  0  0  0
  1  5  1  0  0  0  0
  2  5  2  0  0  0  0
  2  6  1  0  0  0  0
  3  4  1  0  0  0  0
  3  7  1  0  0  0  0
  4  6  2  0  0  0  0
  4 12  1  0  0  0  0
  5 13  1  0  0  0  0
  6 14  1  0  0  0  0
  7 10  1  0  0  0  0
  7 11  2  0  0  0  0
  8  9  1  0  0  0  0
  8 10  1  0  0  0  0
  9 10  1  0  0  0  0
  1 15  1  0  0  0  0
  2 16  1  0  0  0  0
  8 17  1  0  0  0  0
  8 18  1  0  0  0  0
  9 19  1  0  0  0  0
  9 20  1  0  0  0  0
 10 21  1  0  0  0  0
 12 22  1  0  0  0  0
M  END
> <id>
EN300-1276482

> <smiles>
OC=1C(Br)=CC(F)=CC1C(=O)C2CC2

> <MDLNUMBER>
MFCD16742933

> <IUPAC Name>
2-bromo-6-cyclopropanecarbonyl-4-fluorophenol

> <CAS>
1249236-16-5

> <URL>
https://www.enaminestore.com/catalog/EN300-1276482

> <ROCS_ShapeQuery>
_x1604L0AP1_x0771L0AP1

> <ROCS_TanimotoCombo>
0.900 

> <ROCS_ShapeTanimoto>
0.597 

> <ROCS_ColorTanimoto>
0.303 

> <ROCS_RefTversky>
0.521 

> <ROCS_RefColorTversky>
0.342 

> <ROCS_RefTverskyCombo>
0.863 

> <ROCS_FitTversky>
1.323 

> <ROCS_FitColorTversky>
0.728 

> <ROCS_FitTverskyCombo>
2.051 

> <ROCS_ColorScore>
-3.886

> <ROCS_Overlap>
884.358

> <ROCS_Rank>
273                 

$$$$
untitled-dbase-1148_220
  -OEChem-06042309053D

 24 24  0     0  0  0  0  0  0999 V2000
   -2.6152   13.9394  -30.9903 C   0  0  0  0  0  0  0  0  0  0  0  0
   -5.0748   11.2314  -31.7792 C   0  0  0  0  0  0  0  0  0  0  0  0
   -4.5524   12.4791  -29.7774 C   0  0  0  0  0  0  0  0  0  0  0  0
   -4.3242   12.2095  -31.1268 C   0  0  0  0  0  0  0  0  0  0  0  0
   -6.0537   10.5231  -31.0823 C   0  0  0  0  0  0  0  0  0  0  0  0
   -6.2819   10.7927  -29.7329 C   0  0  0  0  0  0  0  0  0  0  0  0
   -5.5312   11.7707  -29.0804 C   0  0  0  0  0  0  0  0  0  0  0  0
   -6.3884    8.6047  -33.8890 C   0  0  0  0  0  0  0  0  0  0  0  0
   -3.2772   12.9659  -31.8721 C   0  0  0  0  0  0  0  0  0  0  0  0
   -6.9971    9.7639  -33.1291 C   0  0  0  0  0  0  0  0  0  0  0  0
   -2.0932   14.7084  -30.2954 N   0  0  0  0  0  0  0  0  0  0  0  0
   -7.2430   10.0884  -29.0681 O   0  0  0  0  0  0  0  0  0  0  0  0
   -6.7782    9.5704  -31.7332 O   0  0  0  0  0  0  0  0  0  0  0  0
   -5.8125   12.1650  -27.2475 Br  0  0  0  0  0  0  0  0  0  0  0  0
   -4.8986   11.0192  -32.8311 H   0  0  0  0  0  0  0  0  0  0  0  0
   -3.9616   13.2434  -29.2772 H   0  0  0  0  0  0  0  0  0  0  0  0
   -5.3113    8.5433  -33.7099 H   0  0  0  0  0  0  0  0  0  0  0  0
   -6.8514    7.6595  -33.5871 H   0  0  0  0  0  0  0  0  0  0  0  0
   -6.5619    8.7149  -34.9646 H   0  0  0  0  0  0  0  0  0  0  0  0
   -3.7178   13.4888  -32.7319 H   0  0  0  0  0  0  0  0  0  0  0  0
   -2.5283   12.2791  -32.2896 H   0  0  0  0  0  0  0  0  0  0  0  0
   -8.0743    9.8196  -33.3125 H   0  0  0  0  0  0  0  0  0  0  0  0
   -6.5328   10.7073  -33.4313 H   0  0  0  0  0  0  0  0  0  0  0  0
   -7.2907   10.3799  -28.1448 H   0  0  0  0  0  0  0  0  0  0  0  0
  1  9  1  0  0  0  0
  1 11  3  0  0  0  0
  2  4  1  0  0  0  0
  2  5  2  0  0  0  0
  3  4  2  0  0  0  0
  3  7  1  0  0  0  0
  4  9  1  0  0  0  0
  5  6  1  0  0  0  0
  5 13  1  0  0  0  0
  6  7  2  0  0  0  0
  6 12  1  0  0  0  0
  7 14  1  0  0  0  0
  8 10  1  0  0  0  0
 10 13  1  0  0  0  0
  2 15  1  0  0  0  0
  3 16  1  0  0  0  0
  8 17  1  0  0  0  0
  8 18  1  0  0  0  0
  8 19  1  0  0  0  0
  9 20  1  0  0  0  0
  9 21  1  0  0  0  0
 10 22  1  0  0  0  0
 10 23  1  0  0  0  0
 12 24  1  0  0  0  0
M  END
> <id>
EN300-1920232

> <smiles>
CCOC=1C=C(CC#N)C=C(Br)C1O

> <IUPAC Name>
2-(3-bromo-5-ethoxy-4-hydroxyphenyl)acetonitrile

> <CAS>
1499731-31-5

> <URL>
https://www.enaminestore.com/catalog/EN300-1920232

> <ROCS_ShapeQuery>
_x1604L0AP1_x0771L0AP1

> <ROCS_TanimotoCombo>
0.900 

> <ROCS_ShapeTanimoto>
0.618 

> <ROCS_ColorTanimoto>
0.281 

> <ROCS_RefTversky>
0.528 

> <ROCS_RefColorTversky>
0.340 

> <ROCS_RefTverskyCombo>
0.868 

> <ROCS_FitTversky>
1.385 

> <ROCS_FitColorTversky>
0.618 

> <ROCS_FitTverskyCombo>
2.003 

> <ROCS_ColorScore>
-3.886

> <ROCS_Overlap>
895.535

> <ROCS_Rank>
274                 

$$$$
untitled-dbase-2252_6818
  -OEChem-06042309053D

 34 35  0     0  0  0  0  0  0999 V2000
   -2.3423   14.8856  -30.4321 C   0  0  0  0  0  0  0  0  0  0  0  0
   -2.9994   14.9202  -29.2022 C   0  0  0  0  0  0  0  0  0  0  0  0
   -2.5152   13.7952  -31.2847 C   0  0  0  0  0  0  0  0  0  0  0  0
   -3.8293   13.8645  -28.8249 C   0  0  0  0  0  0  0  0  0  0  0  0
   -3.3450   12.7395  -30.9074 C   0  0  0  0  0  0  0  0  0  0  0  0
   -6.9615   10.6504  -35.1316 C   0  0  0  0  0  0  0  0  0  0  0  0
   -6.9116    9.7431  -36.1899 C   0  0  0  0  0  0  0  0  0  0  0  0
   -6.6248    8.8419  -33.5653 C   0  0  0  0  0  0  0  0  0  0  0  0
   -4.0022   12.7741  -29.6775 C   0  0  0  0  0  0  0  0  0  0  0  0
   -6.8180   10.1998  -33.8193 C   0  0  0  0  0  0  0  0  0  0  0  0
   -6.5749    7.9346  -34.6236 C   0  0  0  0  0  0  0  0  0  0  0  0
   -6.7184    8.3853  -35.9359 C   0  0  0  0  0  0  0  0  0  0  0  0
   -6.7011   10.4891  -30.2925 C   0  0  0  0  0  0  0  0  0  0  0  0
   -6.8706   11.1762  -32.6800 C   0  0  0  0  0  0  0  0  0  0  0  0
   -4.8946   11.6380  -29.2721 C   0  0  0  0  0  0  0  0  0  0  0  0
   -7.4009   10.5759  -31.4775 N   0  0  0  0  0  0  0  0  0  0  0  0
   -7.1140    9.9884  -29.2516 O   0  0  0  0  0  0  0  0  0  0  0  0
   -6.3817    6.6148  -34.3424 O   0  0  0  0  0  0  0  0  0  0  0  0
   -5.4640   11.0489  -30.4466 O   0  0  0  0  0  0  0  0  0  0  0  0
   -6.6565    7.1817  -37.3988 Br  0  0  0  0  0  0  0  0  0  0  0  0
   -1.6972   15.7083  -30.7263 H   0  0  0  0  0  0  0  0  0  0  0  0
   -2.8659   15.7697  -28.5387 H   0  0  0  0  0  0  0  0  0  0  0  0
   -2.0046   13.7684  -32.2428 H   0  0  0  0  0  0  0  0  0  0  0  0
   -4.3372   13.9000  -27.8646 H   0  0  0  0  0  0  0  0  0  0  0  0
   -3.4736   11.8940  -31.5780 H   0  0  0  0  0  0  0  0  0  0  0  0
   -7.1104   11.7069  -35.3388 H   0  0  0  0  0  0  0  0  0  0  0  0
   -7.0254   10.1127  -37.2059 H   0  0  0  0  0  0  0  0  0  0  0  0
   -6.5126    8.4892  -32.5426 H   0  0  0  0  0  0  0  0  0  0  0  0
   -5.8696   11.5587  -32.4528 H   0  0  0  0  0  0  0  0  0  0  0  0
   -7.4991   12.0375  -32.9294 H   0  0  0  0  0  0  0  0  0  0  0  0
   -4.3317   10.8733  -28.7259 H   0  0  0  0  0  0  0  0  0  0  0  0
   -5.7009   11.9918  -28.6206 H   0  0  0  0  0  0  0  0  0  0  0  0
   -8.3422   10.1964  -31.5067 H   0  0  0  0  0  0  0  0  0  0  0  0
   -6.3676    6.0970  -35.1622 H   0  0  0  0  0  0  0  0  0  0  0  0
  1  2  2  0  0  0  0
  1  3  1  0  0  0  0
  2  4  1  0  0  0  0
  3  5  2  0  0  0  0
  4  9  2  0  0  0  0
  5  9  1  0  0  0  0
  6  7  1  0  0  0  0
  6 10  2  0  0  0  0
  7 12  2  0  0  0  0
  8 10  1  0  0  0  0
  8 11  2  0  0  0  0
  9 15  1  0  0  0  0
 10 14  1  0  0  0  0
 11 12  1  0  0  0  0
 11 18  1  0  0  0  0
 12 20  1  0  0  0  0
 13 16  1  0  0  0  0
 13 17  2  0  0  0  0
 13 19  1  0  0  0  0
 14 16  1  0  0  0  0
 15 19  1  0  0  0  0
  1 21  1  0  0  0  0
  2 22  1  0  0  0  0
  3 23  1  0  0  0  0
  4 24  1  0  0  0  0
  5 25  1  0  0  0  0
  6 26  1  0  0  0  0
  7 27  1  0  0  0  0
  8 28  1  0  0  0  0
 14 29  1  0  0  0  0
 14 30  1  0  0  0  0
 15 31  1  0  0  0  0
 15 32  1  0  0  0  0
 16 33  1  0  0  0  0
 18 34  1  0  0  0  0
M  END
> <id>
EN300-37388837

> <smiles>
OC=1C=C(CNC(=O)OCC=2C=CC=CC2)C=CC1Br

> <IUPAC Name>
benzyl N-[(4-bromo-3-hydroxyphenyl)methyl]carbamate

> <CAS>
2763993-16-2

> <URL>
https://www.enaminestore.com/catalog/EN300-37388837

> <ROCS_ShapeQuery>
_x1604L0AP1_x0771L0AP1

> <ROCS_TanimotoCombo>
0.899 

> <ROCS_ShapeTanimoto>
0.648 

> <ROCS_ColorTanimoto>
0.251 

> <ROCS_RefTversky>
0.604 

> <ROCS_RefColorTversky>
0.327 

> <ROCS_RefTverskyCombo>
0.931 

> <ROCS_FitTversky>
1.128 

> <ROCS_FitColorTversky>
0.518 

> <ROCS_FitTverskyCombo>
1.646 

> <ROCS_ColorScore>
-3.751

> <ROCS_Overlap>
1033.503

> <ROCS_Rank>
275                 

$$$$
untitled-dbase-1425_8
  -OEChem-06042309053D

 18 18  0     0  0  0  0  0  0999 V2000
   -4.5777   12.4578  -29.8251 C   0  0  0  0  0  0  0  0  0  0  0  0
   -5.5635   11.7673  -29.1202 C   0  0  0  0  0  0  0  0  0  0  0  0
   -5.0501   11.1296  -31.7872 C   0  0  0  0  0  0  0  0  0  0  0  0
   -4.3210   12.1390  -31.1586 C   0  0  0  0  0  0  0  0  0  0  0  0
   -6.2927   10.7579  -29.7488 C   0  0  0  0  0  0  0  0  0  0  0  0
   -6.0360   10.4390  -31.0823 C   0  0  0  0  0  0  0  0  0  0  0  0
   -3.0679   14.3052  -31.4509 C   0  0  0  0  0  0  0  0  0  0  0  0
   -3.2666   12.8778  -31.9111 C   0  0  0  0  0  0  0  0  0  0  0  0
   -2.0315   14.7404  -30.9602 O   0  0  0  0  0  0  0  0  0  0  0  0
   -7.2481   10.1010  -29.0318 O   0  0  0  0  0  0  0  0  0  0  0  0
   -7.0061    9.0724  -31.9676 Br  0  0  0  0  0  0  0  0  0  0  0  0
   -4.0149   13.2426  -29.3262 H   0  0  0  0  0  0  0  0  0  0  0  0
   -5.7579   12.0212  -28.0815 H   0  0  0  0  0  0  0  0  0  0  0  0
   -4.8434   10.8881  -32.8276 H   0  0  0  0  0  0  0  0  0  0  0  0
   -3.9404   14.9682  -31.5835 H   0  0  0  0  0  0  0  0  0  0  0  0
   -3.5034   12.9092  -32.9853 H   0  0  0  0  0  0  0  0  0  0  0  0
   -2.2956   12.3671  -31.8251 H   0  0  0  0  0  0  0  0  0  0  0  0
   -7.6768    9.4287  -29.5837 H   0  0  0  0  0  0  0  0  0  0  0  0
  1  2  1  0  0  0  0
  1  4  2  0  0  0  0
  2  5  2  0  0  0  0
  3  4  1  0  0  0  0
  3  6  2  0  0  0  0
  4  8  1  0  0  0  0
  5  6  1  0  0  0  0
  5 10  1  0  0  0  0
  6 11  1  0  0  0  0
  7  8  1  0  0  0  0
  7  9  2  0  0  0  0
  1 12  1  0  0  0  0
  2 13  1  0  0  0  0
  3 14  1  0  0  0  0
  7 15  1  0  0  0  0
  8 16  1  0  0  0  0
  8 17  1  0  0  0  0
 10 18  1  0  0  0  0
M  END
> <id>
EN300-1907260

> <smiles>
OC=1C=CC(CC=O)=CC1Br

> <MDLNUMBER>
MFCD33418260

> <IUPAC Name>
2-(3-bromo-4-hydroxyphenyl)acetaldehyde

> <CAS>
1435263-42-5

> <URL>
https://www.enaminestore.com/catalog/EN300-1907260

> <ROCS_ShapeQuery>
_x1604L0AP1_x0771L0AP1

> <ROCS_TanimotoCombo>
0.899 

> <ROCS_ShapeTanimoto>
0.487 

> <ROCS_ColorTanimoto>
0.413 

> <ROCS_RefTversky>
0.429 

> <ROCS_RefColorTversky>
0.429 

> <ROCS_RefTverskyCombo>
0.858 

> <ROCS_FitTversky>
1.385 

> <ROCS_FitColorTversky>
0.914 

> <ROCS_FitTverskyCombo>
2.299 

> <ROCS_ColorScore>
-4.878

> <ROCS_Overlap>
724.792

> <ROCS_Rank>
276                 

$$$$
untitled-dbase-957_1
  -OEChem-06042309053D

 23 23  0     0  0  0  0  0  0999 V2000
   -5.1181   11.1800  -31.8704 C   0  0  0  0  0  0  0  0  0  0  0  0
   -4.4817   12.3716  -29.8673 C   0  0  0  0  0  0  0  0  0  0  0  0
   -6.0987   10.4960  -31.1520 C   0  0  0  0  0  0  0  0  0  0  0  0
   -6.2708   10.7498  -29.7912 C   0  0  0  0  0  0  0  0  0  0  0  0
   -4.3095   12.1178  -31.2280 C   0  0  0  0  0  0  0  0  0  0  0  0
   -5.4623   11.6876  -29.1489 C   0  0  0  0  0  0  0  0  0  0  0  0
   -6.9295    9.5205  -31.8444 C   0  0  0  0  0  0  0  0  0  0  0  0
   -6.3604    8.7467  -33.0493 C   0  0  0  0  0  0  0  0  0  0  0  0
   -6.9482    7.3519  -33.2351 C   0  0  0  0  0  0  0  0  0  0  0  0
   -6.3681    6.6670  -34.3590 N   0  0  0  0  0  0  0  0  0  0  0  0
   -8.0965    9.2989  -31.4661 O   0  0  0  0  0  0  0  0  0  0  0  0
   -7.2329   10.0726  -29.0989 O   0  0  0  0  0  0  0  0  0  0  0  0
   -3.0996   12.9613  -32.1151 Cl  0  0  0  0  0  0  0  0  0  0  0  0
   -5.6653   12.0607  -27.3010 Br  0  0  0  0  0  0  0  0  0  0  0  0
   -4.9854   10.9803  -32.9316 H   0  0  0  0  0  0  0  0  0  0  0  0
   -3.8488   13.1036  -29.3700 H   0  0  0  0  0  0  0  0  0  0  0  0
   -5.2806    8.6475  -32.8908 H   0  0  0  0  0  0  0  0  0  0  0  0
   -6.5422    9.3388  -33.9534 H   0  0  0  0  0  0  0  0  0  0  0  0
   -8.0312    7.3855  -33.3898 H   0  0  0  0  0  0  0  0  0  0  0  0
   -6.7473    6.7393  -32.3505 H   0  0  0  0  0  0  0  0  0  0  0  0
   -6.7414    5.7412  -34.4134 H   0  0  0  0  0  0  0  0  0  0  0  0
   -6.5845    7.1642  -35.1988 H   0  0  0  0  0  0  0  0  0  0  0  0
   -7.7002    9.4627  -29.6895 H   0  0  0  0  0  0  0  0  0  0  0  0
  1  3  2  0  0  0  0
  1  5  1  0  0  0  0
  2  5  2  0  0  0  0
  2  6  1  0  0  0  0
  3  4  1  0  0  0  0
  3  7  1  0  0  0  0
  4  6  2  0  0  0  0
  4 12  1  0  0  0  0
  5 13  1  0  0  0  0
  6 14  1  0  0  0  0
  7  8  1  0  0  0  0
  7 11  2  0  0  0  0
  8  9  1  0  0  0  0
  9 10  1  0  0  0  0
  1 15  1  0  0  0  0
  2 16  1  0  0  0  0
  8 17  1  0  0  0  0
  8 18  1  0  0  0  0
  9 19  1  0  0  0  0
  9 20  1  0  0  0  0
 10 21  1  0  0  0  0
 10 22  1  0  0  0  0
 12 23  1  0  0  0  0
M  END
> <id>
EN300-1922549

> <smiles>
NCCC(=O)C=1C=C(Cl)C=C(Br)C1O

> <IUPAC Name>
3-amino-1-(3-bromo-5-chloro-2-hydroxyphenyl)propan-1-one

> <CAS>
2229527-97-1

> <URL>
https://www.enaminestore.com/catalog/EN300-1922549

> <ROCS_ShapeQuery>
_x1604L0AP1_x0771L0AP1

> <ROCS_TanimotoCombo>
0.899 

> <ROCS_ShapeTanimoto>
0.552 

> <ROCS_ColorTanimoto>
0.348 

> <ROCS_RefTversky>
0.490 

> <ROCS_RefColorTversky>
0.421 

> <ROCS_RefTverskyCombo>
0.911 

> <ROCS_FitTversky>
1.296 

> <ROCS_FitColorTversky>
0.667 

> <ROCS_FitTverskyCombo>
1.963 

> <ROCS_ColorScore>
-4.826

> <ROCS_Overlap>
831.130

> <ROCS_Rank>
277                 

$$$$
untitled-dbase-1712_74
  -OEChem-06042309053D

 21 21  0     1  0  0  0  0  0999 V2000
   -4.7580   12.6548  -30.2485 C   0  0  0  0  0  0  0  0  0  0  0  0
   -5.0738   10.9617  -31.9428 C   0  0  0  0  0  0  0  0  0  0  0  0
   -5.7073   12.0258  -29.4430 C   0  0  0  0  0  0  0  0  0  0  0  0
   -6.3398   10.8648  -29.8874 C   0  0  0  0  0  0  0  0  0  0  0  0
   -4.4413   12.1228  -31.4984 C   0  0  0  0  0  0  0  0  0  0  0  0
   -6.0231   10.3327  -31.1373 C   0  0  0  0  0  0  0  0  0  0  0  0
   -5.7688   11.6601  -26.9347 C   0  0  0  0  0  0  0  0  0  0  0  0
   -6.0316   12.6122  -28.1082 C   0  0  2  0  0  0  0  0  0  0  0  0
   -6.0773   12.2617  -25.6643 N   0  0  0  0  0  0  0  0  0  0  0  0
   -7.2666   10.2611  -29.0878 O   0  0  0  0  0  0  0  0  0  0  0  0
   -7.3321   13.0399  -27.9980 F   0  0  0  0  0  0  0  0  0  0  0  0
   -3.2699   12.8994  -32.4921 Cl  0  0  0  0  0  0  0  0  0  0  0  0
   -6.8613    8.7566  -31.7761 Br  0  0  0  0  0  0  0  0  0  0  0  0
   -4.2666   13.5600  -29.8980 H   0  0  0  0  0  0  0  0  0  0  0  0
   -4.8243   10.5503  -32.9184 H   0  0  0  0  0  0  0  0  0  0  0  0
   -6.3655   10.7464  -27.0198 H   0  0  0  0  0  0  0  0  0  0  0  0
   -4.7106   11.3835  -26.8960 H   0  0  0  0  0  0  0  0  0  0  0  0
   -5.4230   13.5182  -27.9597 H   0  0  0  0  0  0  0  0  0  0  0  0
   -7.0528   12.4758  -25.6266 H   0  0  0  0  0  0  0  0  0  0  0  0
   -5.8461   11.6237  -24.9307 H   0  0  0  0  0  0  0  0  0  0  0  0
   -7.3660   10.7569  -28.2609 H   0  0  0  0  0  0  0  0  0  0  0  0
  1  3  2  0  0  0  0
  1  5  1  0  0  0  0
  2  5  2  0  0  0  0
  2  6  1  0  0  0  0
  3  4  1  0  0  0  0
  3  8  1  0  0  0  0
  4  6  2  0  0  0  0
  4 10  1  0  0  0  0
  5 12  1  0  0  0  0
  6 13  1  0  0  0  0
  7  8  1  0  0  0  0
  7  9  1  0  0  0  0
  8 11  1  0  0  0  0
  1 14  1  0  0  0  0
  2 15  1  0  0  0  0
  7 16  1  0  0  0  0
  7 17  1  0  0  0  0
  8 18  1  0  0  0  0
  9 19  1  0  0  0  0
  9 20  1  0  0  0  0
 10 21  1  0  0  0  0
M  END
> <id>
EN300-1922885

> <smiles>
NCC(F)C=1C=C(Cl)C=C(Br)C1O

> <IUPAC Name>
2-(2-amino-1-fluoroethyl)-6-bromo-4-chlorophenol

> <CAS>
2228288-19-3

> <URL>
https://www.enaminestore.com/catalog/EN300-1922885

> <ROCS_ShapeQuery>
_x1604L0AP1_x0771L0AP1

> <ROCS_TanimotoCombo>
0.899 

> <ROCS_ShapeTanimoto>
0.446 

> <ROCS_ColorTanimoto>
0.453 

> <ROCS_RefTversky>
0.418 

> <ROCS_RefColorTversky>
0.483 

> <ROCS_RefTverskyCombo>
0.901 

> <ROCS_FitTversky>
1.181 

> <ROCS_FitColorTversky>
0.878 

> <ROCS_FitTverskyCombo>
2.059 

> <ROCS_ColorScore>
-5.518

> <ROCS_Overlap>
707.706

> <ROCS_Rank>
278                 

$$$$
untitled-dbase-684_1507
  -OEChem-06042309053D

 31 31  0     0  0  0  0  0  0999 V2000
   -5.1607   11.3239  -31.8038 C   0  0  0  0  0  0  0  0  0  0  0  0
   -4.4188   12.3341  -29.7384 C   0  0  0  0  0  0  0  0  0  0  0  0
   -4.2958   12.1774  -31.1190 C   0  0  0  0  0  0  0  0  0  0  0  0
   -6.1487   10.6270  -31.1081 C   0  0  0  0  0  0  0  0  0  0  0  0
   -6.2717   10.7837  -29.7275 C   0  0  0  0  0  0  0  0  0  0  0  0
   -5.4068   11.6372  -29.0427 C   0  0  0  0  0  0  0  0  0  0  0  0
   -2.8935   14.2755  -31.2044 C   0  0  0  0  0  0  0  0  0  0  0  0
   -6.7523   10.0564  -34.1595 C   0  0  0  0  0  0  0  0  0  0  0  0
   -1.8573   12.2092  -31.9854 C   0  0  0  0  0  0  0  0  0  0  0  0
   -3.6950   13.2359  -33.3175 C   0  0  0  0  0  0  0  0  0  0  0  0
   -6.4654    9.1736  -32.9636 C   0  0  0  0  0  0  0  0  0  0  0  0
   -3.2095   12.9423  -31.8838 C   0  0  0  0  0  0  0  0  0  0  0  0
   -3.6996   14.9363  -30.5553 O   0  0  0  0  0  0  0  0  0  0  0  0
   -7.2437   10.0927  -29.0646 O   0  0  0  0  0  0  0  0  0  0  0  0
   -6.9855    9.7966  -31.7909 O   0  0  0  0  0  0  0  0  0  0  0  0
   -5.5431   11.8757  -27.1669 Br  0  0  0  0  0  0  0  0  0  0  0  0
   -5.0666   11.1998  -32.8800 H   0  0  0  0  0  0  0  0  0  0  0  0
   -3.7393   13.0017  -29.2131 H   0  0  0  0  0  0  0  0  0  0  0  0
   -1.8408   14.6048  -31.2684 H   0  0  0  0  0  0  0  0  0  0  0  0
   -7.8286   10.2003  -34.2890 H   0  0  0  0  0  0  0  0  0  0  0  0
   -6.2766   11.0353  -34.0397 H   0  0  0  0  0  0  0  0  0  0  0  0
   -6.3427    9.6132  -35.0733 H   0  0  0  0  0  0  0  0  0  0  0  0
   -1.1180   12.7981  -32.5404 H   0  0  0  0  0  0  0  0  0  0  0  0
   -1.4372   12.0111  -30.9915 H   0  0  0  0  0  0  0  0  0  0  0  0
   -1.9634   11.2364  -32.4807 H   0  0  0  0  0  0  0  0  0  0  0  0
   -2.9364   13.7834  -33.8889 H   0  0  0  0  0  0  0  0  0  0  0  0
   -3.9310   12.3184  -33.8686 H   0  0  0  0  0  0  0  0  0  0  0  0
   -4.6104   13.8399  -33.3126 H   0  0  0  0  0  0  0  0  0  0  0  0
   -5.3874    9.0337  -32.8398 H   0  0  0  0  0  0  0  0  0  0  0  0
   -6.9421    8.1963  -33.0846 H   0  0  0  0  0  0  0  0  0  0  0  0
   -7.7505    9.5501  -29.6878 H   0  0  0  0  0  0  0  0  0  0  0  0
  1  3  1  0  0  0  0
  1  4  2  0  0  0  0
  2  3  2  0  0  0  0
  2  6  1  0  0  0  0
  3 12  1  0  0  0  0
  4  5  1  0  0  0  0
  4 15  1  0  0  0  0
  5  6  2  0  0  0  0
  5 14  1  0  0  0  0
  6 16  1  0  0  0  0
  7 12  1  0  0  0  0
  7 13  2  0  0  0  0
  8 11  1  0  0  0  0
  9 12  1  0  0  0  0
 10 12  1  0  0  0  0
 11 15  1  0  0  0  0
  1 17  1  0  0  0  0
  2 18  1  0  0  0  0
  7 19  1  0  0  0  0
  8 20  1  0  0  0  0
  8 21  1  0  0  0  0
  8 22  1  0  0  0  0
  9 23  1  0  0  0  0
  9 24  1  0  0  0  0
  9 25  1  0  0  0  0
 10 26  1  0  0  0  0
 10 27  1  0  0  0  0
 10 28  1  0  0  0  0
 11 29  1  0  0  0  0
 11 30  1  0  0  0  0
 14 31  1  0  0  0  0
M  END
> <id>
EN300-1920235

> <smiles>
CCOC=1C=C(C=C(Br)C1O)C(C)(C)C=O

> <IUPAC Name>
2-(3-bromo-5-ethoxy-4-hydroxyphenyl)-2-methylpropanal

> <CAS>
2229091-77-2

> <URL>
https://www.enaminestore.com/catalog/EN300-1920235

> <ROCS_ShapeQuery>
_x1604L0AP1_x0771L0AP1

> <ROCS_TanimotoCombo>
0.899 

> <ROCS_ShapeTanimoto>
0.637 

> <ROCS_ColorTanimoto>
0.262 

> <ROCS_RefTversky>
0.556 

> <ROCS_RefColorTversky>
0.339 

> <ROCS_RefTverskyCombo>
0.895 

> <ROCS_FitTversky>
1.297 

> <ROCS_FitColorTversky>
0.537 

> <ROCS_FitTverskyCombo>
1.835 

> <ROCS_ColorScore>
-3.887

> <ROCS_Overlap>
945.403

> <ROCS_Rank>
279                 

$$$$
untitled-dbase-1126_223
  -OEChem-06042309053D

 25 25  0     0  0  0  0  0  0999 V2000
   -2.0433   14.7120  -30.2720 C   0  0  0  0  0  0  0  0  0  0  0  0
   -2.5942   13.9253  -30.9927 C   0  0  0  0  0  0  0  0  0  0  0  0
   -5.0833   11.2351  -31.7817 C   0  0  0  0  0  0  0  0  0  0  0  0
   -4.5415   12.4664  -29.7749 C   0  0  0  0  0  0  0  0  0  0  0  0
   -4.3224   12.2037  -31.1271 C   0  0  0  0  0  0  0  0  0  0  0  0
   -6.0635   10.5293  -31.0840 C   0  0  0  0  0  0  0  0  0  0  0  0
   -6.2827   10.7920  -29.7317 C   0  0  0  0  0  0  0  0  0  0  0  0
   -5.5217   11.7605  -29.0772 C   0  0  0  0  0  0  0  0  0  0  0  0
   -6.4266    8.6311  -33.9009 C   0  0  0  0  0  0  0  0  0  0  0  0
   -3.2739   12.9574  -31.8732 C   0  0  0  0  0  0  0  0  0  0  0  0
   -7.0231    9.7897  -33.1305 C   0  0  0  0  0  0  0  0  0  0  0  0
   -7.2453   10.0903  -29.0663 O   0  0  0  0  0  0  0  0  0  0  0  0
   -6.7982    9.5859  -31.7370 O   0  0  0  0  0  0  0  0  0  0  0  0
   -5.7905   12.1452  -27.2404 Br  0  0  0  0  0  0  0  0  0  0  0  0
   -1.5553   15.4096  -29.6323 H   0  0  0  0  0  0  0  0  0  0  0  0
   -4.9141   11.0283  -32.8358 H   0  0  0  0  0  0  0  0  0  0  0  0
   -3.9427   13.2234  -29.2731 H   0  0  0  0  0  0  0  0  0  0  0  0
   -5.3491    8.5610  -33.7279 H   0  0  0  0  0  0  0  0  0  0  0  0
   -6.8947    7.6873  -33.6025 H   0  0  0  0  0  0  0  0  0  0  0  0
   -6.6050    8.7492  -34.9748 H   0  0  0  0  0  0  0  0  0  0  0  0
   -3.7109   13.4920  -32.7318 H   0  0  0  0  0  0  0  0  0  0  0  0
   -2.5274   12.2703  -32.3027 H   0  0  0  0  0  0  0  0  0  0  0  0
   -8.1008    9.8542  -33.3078 H   0  0  0  0  0  0  0  0  0  0  0  0
   -6.5537   10.7317  -33.4292 H   0  0  0  0  0  0  0  0  0  0  0  0
   -7.2860   10.3763  -28.1410 H   0  0  0  0  0  0  0  0  0  0  0  0
  1  2  3  0  0  0  0
  2 10  1  0  0  0  0
  3  5  1  0  0  0  0
  3  6  2  0  0  0  0
  4  5  2  0  0  0  0
  4  8  1  0  0  0  0
  5 10  1  0  0  0  0
  6  7  1  0  0  0  0
  6 13  1  0  0  0  0
  7  8  2  0  0  0  0
  7 12  1  0  0  0  0
  8 14  1  0  0  0  0
  9 11  1  0  0  0  0
 11 13  1  0  0  0  0
  1 15  1  0  0  0  0
  3 16  1  0  0  0  0
  4 17  1  0  0  0  0
  9 18  1  0  0  0  0
  9 19  1  0  0  0  0
  9 20  1  0  0  0  0
 10 21  1  0  0  0  0
 10 22  1  0  0  0  0
 11 23  1  0  0  0  0
 11 24  1  0  0  0  0
 12 25  1  0  0  0  0
M  END
> <id>
EN300-1920240

> <smiles>
CCOC=1C=C(CC#C)C=C(Br)C1O

> <IUPAC Name>
2-bromo-6-ethoxy-4-(prop-2-yn-1-yl)phenol

> <CAS>
2229013-83-4

> <URL>
https://www.enaminestore.com/catalog/EN300-1920240

> <ROCS_ShapeQuery>
_x1604L0AP1_x0771L0AP1

> <ROCS_TanimotoCombo>
0.899 

> <ROCS_ShapeTanimoto>
0.618 

> <ROCS_ColorTanimoto>
0.281 

> <ROCS_RefTversky>
0.527 

> <ROCS_RefColorTversky>
0.340 

> <ROCS_RefTverskyCombo>
0.867 

> <ROCS_FitTversky>
1.385 

> <ROCS_FitColorTversky>
0.618 

> <ROCS_FitTverskyCombo>
2.004 

> <ROCS_ColorScore>
-3.887

> <ROCS_Overlap>
894.316

> <ROCS_Rank>
280                 

$$$$
untitled-dbase-1741_13
  -OEChem-06042309053D

 25 26  0     0  0  0  0  0  0999 V2000
   -6.6921   11.0560  -33.3887 C   0  0  0  0  0  0  0  0  0  0  0  0
   -7.0889   10.4984  -34.6041 C   0  0  0  0  0  0  0  0  0  0  0  0
   -5.3836   11.6831  -29.1500 C   0  0  0  0  0  0  0  0  0  0  0  0
   -6.2142   10.2348  -32.3675 C   0  0  0  0  0  0  0  0  0  0  0  0
   -6.2129   10.7673  -29.8202 C   0  0  0  0  0  0  0  0  0  0  0  0
   -7.0078    9.1195  -34.7983 C   0  0  0  0  0  0  0  0  0  0  0  0
   -6.5299    8.2982  -33.7771 C   0  0  0  0  0  0  0  0  0  0  0  0
   -6.1331    8.8559  -32.5617 C   0  0  0  0  0  0  0  0  0  0  0  0
   -5.8166   10.8654  -31.1277 C   0  0  0  0  0  0  0  0  0  0  0  0
   -7.8741    9.5011  -36.9800 C   0  0  0  0  0  0  0  0  0  0  0  0
   -4.5376   12.3018  -29.9784 N   0  0  0  0  0  0  0  0  0  0  0  0
   -7.1714    9.9798  -29.2965 N   0  0  0  0  0  0  0  0  0  0  0  0
   -4.8172   11.7780  -31.2349 O   0  0  0  0  0  0  0  0  0  0  0  0
   -6.4602    6.9526  -33.9939 O   0  0  0  0  0  0  0  0  0  0  0  0
   -7.3983    8.5900  -35.9913 O   0  0  0  0  0  0  0  0  0  0  0  0
   -5.4844    7.7069  -31.1829 Br  0  0  0  0  0  0  0  0  0  0  0  0
   -6.7627   12.1334  -33.2563 H   0  0  0  0  0  0  0  0  0  0  0  0
   -7.4598   11.1438  -35.3958 H   0  0  0  0  0  0  0  0  0  0  0  0
   -5.3550   11.9293  -28.0983 H   0  0  0  0  0  0  0  0  0  0  0  0
   -8.1520    8.9494  -37.8814 H   0  0  0  0  0  0  0  0  0  0  0  0
   -7.0927   10.2292  -37.2120 H   0  0  0  0  0  0  0  0  0  0  0  0
   -8.7512   10.0228  -36.5899 H   0  0  0  0  0  0  0  0  0  0  0  0
   -7.3641    9.9451  -28.2826 H   0  0  0  0  0  0  0  0  0  0  0  0
   -7.6998    9.3004  -29.8671 H   0  0  0  0  0  0  0  0  0  0  0  0
   -6.7736    6.7428  -34.8868 H   0  0  0  0  0  0  0  0  0  0  0  0
  1  2  1  0  0  0  0
  1  4  2  0  0  0  0
  2  6  2  0  0  0  0
  3  5  1  0  0  0  0
  3 11  2  0  0  0  0
  4  8  1  0  0  0  0
  4  9  1  0  0  0  0
  5  9  2  0  0  0  0
  5 12  1  0  0  0  0
  6  7  1  0  0  0  0
  6 15  1  0  0  0  0
  7  8  2  0  0  0  0
  7 14  1  0  0  0  0
  8 16  1  0  0  0  0
  9 13  1  0  0  0  0
 10 15  1  0  0  0  0
 11 13  1  0  0  0  0
  1 17  1  0  0  0  0
  2 18  1  0  0  0  0
  3 19  1  0  0  0  0
 10 20  1  0  0  0  0
 10 21  1  0  0  0  0
 10 22  1  0  0  0  0
 12 23  1  0  0  0  0
 12 24  1  0  0  0  0
 14 25  1  0  0  0  0
M  END
> <id>
EN300-1936331

> <smiles>
COC=1C=CC(C=2ON=CC2N)=C(Br)C1O

> <IUPAC Name>
3-(4-amino-1,2-oxazol-5-yl)-2-bromo-6-methoxyphenol

> <CAS>
2228637-27-0

> <URL>
https://www.enaminestore.com/catalog/EN300-1936331

> <ROCS_ShapeQuery>
_x1604L0AP1_x0771L0AP1

> <ROCS_TanimotoCombo>
0.899 

> <ROCS_ShapeTanimoto>
0.570 

> <ROCS_ColorTanimoto>
0.329 

> <ROCS_RefTversky>
0.527 

> <ROCS_RefColorTversky>
0.443 

> <ROCS_RefTverskyCombo>
0.970 

> <ROCS_FitTversky>
1.165 

> <ROCS_FitColorTversky>
0.561 

> <ROCS_FitTverskyCombo>
1.726 

> <ROCS_ColorScore>
-5.126

> <ROCS_Overlap>
898.048

> <ROCS_Rank>
281                 

$$$$
untitled-dbase-1534_65
  -OEChem-06042309053D

 21 21  0     1  0  0  0  0  0999 V2000
   -4.5604   12.4429  -29.8056 C   0  0  0  0  0  0  0  0  0  0  0  0
   -5.5552   11.7577  -29.1081 C   0  0  0  0  0  0  0  0  0  0  0  0
   -5.0290   11.1208  -31.7728 C   0  0  0  0  0  0  0  0  0  0  0  0
   -4.2973   12.1245  -31.1380 C   0  0  0  0  0  0  0  0  0  0  0  0
   -6.2869   10.7541  -29.7429 C   0  0  0  0  0  0  0  0  0  0  0  0
   -6.0238   10.4356  -31.0752 C   0  0  0  0  0  0  0  0  0  0  0  0
   -2.9830   14.2695  -31.3578 C   0  0  0  0  0  0  0  0  0  0  0  0
   -3.4971   12.9388  -33.3962 C   0  0  0  0  0  0  0  0  0  0  0  0
   -3.2334   12.8575  -31.8826 C   0  0  2  0  0  0  0  0  0  0  0  0
   -3.5860   14.7688  -30.4128 O   0  0  0  0  0  0  0  0  0  0  0  0
   -7.2511   10.1023  -29.0330 O   0  0  0  0  0  0  0  0  0  0  0  0
   -6.9972    9.0767  -31.9689 Br  0  0  0  0  0  0  0  0  0  0  0  0
   -3.9957   13.2232  -29.3020 H   0  0  0  0  0  0  0  0  0  0  0  0
   -5.7545   12.0114  -28.0703 H   0  0  0  0  0  0  0  0  0  0  0  0
   -4.8173   10.8795  -32.8123 H   0  0  0  0  0  0  0  0  0  0  0  0
   -2.1636   14.8286  -31.8435 H   0  0  0  0  0  0  0  0  0  0  0  0
   -4.4503   13.4403  -33.5960 H   0  0  0  0  0  0  0  0  0  0  0  0
   -2.7065   13.4917  -33.9155 H   0  0  0  0  0  0  0  0  0  0  0  0
   -3.5396   11.9418  -33.8493 H   0  0  0  0  0  0  0  0  0  0  0  0
   -2.2614   12.3425  -31.7679 H   0  0  0  0  0  0  0  0  0  0  0  0
   -7.6807    9.4337  -29.5887 H   0  0  0  0  0  0  0  0  0  0  0  0
  1  2  1  0  0  0  0
  1  4  2  0  0  0  0
  2  5  2  0  0  0  0
  3  4  1  0  0  0  0
  3  6  2  0  0  0  0
  4  9  1  0  0  0  0
  5  6  1  0  0  0  0
  5 11  1  0  0  0  0
  6 12  1  0  0  0  0
  7  9  1  0  0  0  0
  7 10  2  0  0  0  0
  8  9  1  0  0  0  0
  1 13  1  0  0  0  0
  2 14  1  0  0  0  0
  3 15  1  0  0  0  0
  7 16  1  0  0  0  0
  8 17  1  0  0  0  0
  8 18  1  0  0  0  0
  8 19  1  0  0  0  0
  9 20  1  0  0  0  0
 11 21  1  0  0  0  0
M  END
> <id>
EN300-1907333

> <smiles>
CC(C=O)C=1C=CC(O)=C(Br)C1

> <IUPAC Name>
2-(3-bromo-4-hydroxyphenyl)propanal

> <CAS>
1785179-52-3

> <URL>
https://www.enaminestore.com/catalog/EN300-1907333

> <ROCS_ShapeQuery>
_x1604L0AP1_x0771L0AP1

> <ROCS_TanimotoCombo>
0.899 

> <ROCS_ShapeTanimoto>
0.518 

> <ROCS_ColorTanimoto>
0.380 

> <ROCS_RefTversky>
0.455 

> <ROCS_RefColorTversky>
0.427 

> <ROCS_RefTverskyCombo>
0.882 

> <ROCS_FitTversky>
1.368 

> <ROCS_FitColorTversky>
0.776 

> <ROCS_FitTverskyCombo>
2.143 

> <ROCS_ColorScore>
-4.877

> <ROCS_Overlap>
770.101

> <ROCS_Rank>
282                 

$$$$
untitled-dbase-1755_17
  -OEChem-06042309053D

 20 20  0     0  0  0  0  0  0999 V2000
   -6.0269    7.6309  -33.6441 C   0  0  0  0  0  0  0  0  0  0  0  0
   -4.8039   11.2144  -31.6562 C   0  0  0  0  0  0  0  0  0  0  0  0
   -4.7760   12.6906  -29.7439 C   0  0  0  0  0  0  0  0  0  0  0  0
   -5.7837   10.4355  -31.0407 C   0  0  0  0  0  0  0  0  0  0  0  0
   -6.2597   10.7842  -29.7768 C   0  0  0  0  0  0  0  0  0  0  0  0
   -4.3000   12.3419  -31.0078 C   0  0  0  0  0  0  0  0  0  0  0  0
   -5.7558   11.9117  -29.1284 C   0  0  0  0  0  0  0  0  0  0  0  0
   -5.4574    8.7974  -32.9534 C   0  0  0  0  0  0  0  0  0  0  0  0
   -6.3096    9.2324  -31.7525 C   0  0  0  0  0  0  0  0  0  0  0  0
   -6.4765    6.7116  -34.1908 N   0  0  0  0  0  0  0  0  0  0  0  0
   -7.2185   10.0120  -29.1876 O   0  0  0  0  0  0  0  0  0  0  0  0
   -3.0907   13.3025  -31.7677 Cl  0  0  0  0  0  0  0  0  0  0  0  0
   -6.3774   12.4178  -27.4101 Br  0  0  0  0  0  0  0  0  0  0  0  0
   -4.4356   10.9392  -32.6423 H   0  0  0  0  0  0  0  0  0  0  0  0
   -4.3800   13.5704  -29.2414 H   0  0  0  0  0  0  0  0  0  0  0  0
   -4.4508    8.5408  -32.6020 H   0  0  0  0  0  0  0  0  0  0  0  0
   -5.3441    9.6266  -33.6615 H   0  0  0  0  0  0  0  0  0  0  0  0
   -6.3597    8.3898  -31.0451 H   0  0  0  0  0  0  0  0  0  0  0  0
   -7.3477    9.3997  -32.0806 H   0  0  0  0  0  0  0  0  0  0  0  0
   -7.4548    9.2737  -29.7694 H   0  0  0  0  0  0  0  0  0  0  0  0
  1  8  1  0  0  0  0
  1 10  3  0  0  0  0
  2  4  2  0  0  0  0
  2  6  1  0  0  0  0
  3  6  2  0  0  0  0
  3  7  1  0  0  0  0
  4  5  1  0  0  0  0
  4  9  1  0  0  0  0
  5  7  2  0  0  0  0
  5 11  1  0  0  0  0
  6 12  1  0  0  0  0
  7 13  1  0  0  0  0
  8  9  1  0  0  0  0
  2 14  1  0  0  0  0
  3 15  1  0  0  0  0
  8 16  1  0  0  0  0
  8 17  1  0  0  0  0
  9 18  1  0  0  0  0
  9 19  1  0  0  0  0
 11 20  1  0  0  0  0
M  END
> <id>
EN300-1922574

> <smiles>
OC=1C(Br)=CC(Cl)=CC1CCC#N

> <IUPAC Name>
3-(3-bromo-5-chloro-2-hydroxyphenyl)propanenitrile

> <CAS>
2228213-47-4

> <URL>
https://www.enaminestore.com/catalog/EN300-1922574

> <ROCS_ShapeQuery>
_x1604L0AP1_x0771L0AP1

> <ROCS_TanimotoCombo>
0.899 

> <ROCS_ShapeTanimoto>
0.512 

> <ROCS_ColorTanimoto>
0.387 

> <ROCS_RefTversky>
0.457 

> <ROCS_RefColorTversky>
0.410 

> <ROCS_RefTverskyCombo>
0.867 

> <ROCS_FitTversky>
1.304 

> <ROCS_FitColorTversky>
0.873 

> <ROCS_FitTverskyCombo>
2.177 

> <ROCS_ColorScore>
-4.656

> <ROCS_Overlap>
774.943

> <ROCS_Rank>
283                 

$$$$
untitled-dbase-341_29
  -OEChem-06042309053D

 26 26  0     1  0  0  0  0  0999 V2000
   -4.3594   12.1864  -31.1761 C   0  0  0  0  0  0  0  0  0  0  0  0
   -4.6115   12.5014  -29.8409 C   0  0  0  0  0  0  0  0  0  0  0  0
   -5.0757   11.1641  -31.7988 C   0  0  0  0  0  0  0  0  0  0  0  0
   -5.5797   11.7940  -29.1283 C   0  0  0  0  0  0  0  0  0  0  0  0
   -6.2959   10.7717  -29.7509 C   0  0  0  0  0  0  0  0  0  0  0  0
   -6.0439   10.4568  -31.0861 C   0  0  0  0  0  0  0  0  0  0  0  0
   -3.7117   11.8013  -33.8193 C   0  0  0  0  0  0  0  0  0  0  0  0
   -5.0376   13.1714  -27.2668 C   0  0  0  0  0  0  0  0  0  0  0  0
   -4.7684   10.8670  -33.2314 C   0  0  2  0  0  0  0  0  0  0  0  0
   -5.7661   10.2686  -35.2372 N   0  0  0  0  0  0  0  0  0  0  0  0
   -7.2382   10.0944  -29.0327 O   0  0  0  0  0  0  0  0  0  0  0  0
   -5.8144   12.1135  -27.8247 O   0  0  0  0  0  0  0  0  0  0  0  0
   -5.9672   11.0026  -34.0011 O   0  0  0  0  0  0  0  0  0  0  0  0
   -7.0323    9.0665  -31.9306 Br  0  0  0  0  0  0  0  0  0  0  0  0
   -3.6031   12.7443  -31.7221 H   0  0  0  0  0  0  0  0  0  0  0  0
   -4.0507   13.2997  -29.3623 H   0  0  0  0  0  0  0  0  0  0  0  0
   -4.0059   12.8499  -33.7096 H   0  0  0  0  0  0  0  0  0  0  0  0
   -3.5457   11.5982  -34.8833 H   0  0  0  0  0  0  0  0  0  0  0  0
   -2.7461   11.6560  -33.3225 H   0  0  0  0  0  0  0  0  0  0  0  0
   -5.3240   13.3236  -26.2234 H   0  0  0  0  0  0  0  0  0  0  0  0
   -5.2039   14.0876  -27.8389 H   0  0  0  0  0  0  0  0  0  0  0  0
   -3.9803   12.9002  -27.3162 H   0  0  0  0  0  0  0  0  0  0  0  0
   -4.4221    9.8299  -33.3687 H   0  0  0  0  0  0  0  0  0  0  0  0
   -5.9732   10.9983  -35.9175 H   0  0  0  0  0  0  0  0  0  0  0  0
   -6.5767    9.6518  -35.2165 H   0  0  0  0  0  0  0  0  0  0  0  0
   -7.2811   10.4420  -28.1289 H   0  0  0  0  0  0  0  0  0  0  0  0
  1  2  1  0  0  0  0
  1  3  2  0  0  0  0
  2  4  2  0  0  0  0
  3  6  1  0  0  0  0
  3  9  1  0  0  0  0
  4  5  1  0  0  0  0
  4 12  1  0  0  0  0
  5  6  2  0  0  0  0
  5 11  1  0  0  0  0
  6 14  1  0  0  0  0
  7  9  1  0  0  0  0
  8 12  1  0  0  0  0
  9 13  1  0  0  0  0
 10 13  1  0  0  0  0
  1 15  1  0  0  0  0
  2 16  1  0  0  0  0
  7 17  1  0  0  0  0
  7 18  1  0  0  0  0
  7 19  1  0  0  0  0
  8 20  1  0  0  0  0
  8 21  1  0  0  0  0
  8 22  1  0  0  0  0
  9 23  1  0  0  0  0
 10 24  1  0  0  0  0
 10 25  1  0  0  0  0
 11 26  1  0  0  0  0
M  END
> <id>
EN300-1935613

> <smiles>
COC=1C=CC(C(C)ON)=C(Br)C1O

> <IUPAC Name>
3-[1-(aminooxy)ethyl]-2-bromo-6-methoxyphenol

> <CAS>
2229278-28-6

> <URL>
https://www.enaminestore.com/catalog/EN300-1935613

> <ROCS_ShapeQuery>
_x1604L0AP1_x0771L0AP1

> <ROCS_TanimotoCombo>
0.898 

> <ROCS_ShapeTanimoto>
0.483 

> <ROCS_ColorTanimoto>
0.415 

> <ROCS_RefTversky>
0.451 

> <ROCS_RefColorTversky>
0.431 

> <ROCS_RefTverskyCombo>
0.882 

> <ROCS_FitTversky>
1.175 

> <ROCS_FitColorTversky>
0.919 

> <ROCS_FitTverskyCombo>
2.094 

> <ROCS_ColorScore>
-4.901

> <ROCS_Overlap>
764.915

> <ROCS_Rank>
284                 

$$$$
untitled-dbase-1230_98
  -OEChem-06042309053D

 25 25  0     1  0  0  0  0  0999 V2000
   -5.0187   11.0716  -31.8588 C   0  0  0  0  0  0  0  0  0  0  0  0
   -4.5665   12.4338  -29.9153 C   0  0  0  0  0  0  0  0  0  0  0  0
   -6.0038   10.3855  -31.1487 C   0  0  0  0  0  0  0  0  0  0  0  0
   -6.2703   10.7235  -29.8219 C   0  0  0  0  0  0  0  0  0  0  0  0
   -4.3000   12.0958  -31.2421 C   0  0  0  0  0  0  0  0  0  0  0  0
   -5.5517   11.7477  -29.2052 C   0  0  0  0  0  0  0  0  0  0  0  0
   -6.7460    9.3091  -31.8258 C   0  0  0  0  0  0  0  0  0  0  0  0
   -6.5407    8.9028  -33.0891 C   0  0  0  0  0  0  0  0  0  0  0  0
   -8.3165    7.1730  -32.7599 C   0  0  0  0  0  0  0  0  0  0  0  0
   -7.3187    7.7883  -33.7329 C   0  0  2  0  0  0  0  0  0  0  0  0
   -6.3826    6.7941  -34.1981 N   0  0  0  0  0  0  0  0  0  0  0  0
   -7.2361   10.0480  -29.1313 O   0  0  0  0  0  0  0  0  0  0  0  0
   -3.0844   12.9424  -32.1184 Cl  0  0  0  0  0  0  0  0  0  0  0  0
   -5.8837   12.2374  -27.4036 Br  0  0  0  0  0  0  0  0  0  0  0  0
   -4.8088   10.8105  -32.8943 H   0  0  0  0  0  0  0  0  0  0  0  0
   -4.0032   13.2332  -29.4379 H   0  0  0  0  0  0  0  0  0  0  0  0
   -7.5020    8.8082  -31.2251 H   0  0  0  0  0  0  0  0  0  0  0  0
   -5.7713    9.3713  -33.6989 H   0  0  0  0  0  0  0  0  0  0  0  0
   -7.8208    6.8001  -31.8559 H   0  0  0  0  0  0  0  0  0  0  0  0
   -8.8331    6.3242  -33.2218 H   0  0  0  0  0  0  0  0  0  0  0  0
   -9.0730    7.9046  -32.4557 H   0  0  0  0  0  0  0  0  0  0  0  0
   -7.8560    8.1464  -34.6186 H   0  0  0  0  0  0  0  0  0  0  0  0
   -5.4552    7.0835  -33.9688 H   0  0  0  0  0  0  0  0  0  0  0  0
   -6.5832    5.9223  -33.7551 H   0  0  0  0  0  0  0  0  0  0  0  0
   -7.3030   10.3954  -28.2294 H   0  0  0  0  0  0  0  0  0  0  0  0
  1  3  2  0  0  0  0
  1  5  1  0  0  0  0
  2  5  2  0  0  0  0
  2  6  1  0  0  0  0
  3  4  1  0  0  0  0
  3  7  1  0  0  0  0
  4  6  2  0  0  0  0
  4 12  1  0  0  0  0
  5 13  1  0  0  0  0
  6 14  1  0  0  0  0
  7  8  2  3  0  0  0
  8 10  1  0  0  0  0
  9 10  1  0  0  0  0
 10 11  1  0  0  0  0
  1 15  1  0  0  0  0
  2 16  1  0  0  0  0
  7 17  1  0  0  0  0
  8 18  1  0  0  0  0
  9 19  1  0  0  0  0
  9 20  1  0  0  0  0
  9 21  1  0  0  0  0
 10 22  1  0  0  0  0
 11 23  1  0  0  0  0
 11 24  1  0  0  0  0
 12 25  1  0  0  0  0
M  END
> <id>
EN300-1922906

> <smiles>
CC(N)C=CC=1C=C(Cl)C=C(Br)C1O

> <IUPAC Name>
2-(3-aminobut-1-en-1-yl)-6-bromo-4-chlorophenol

> <CAS>
2229670-48-6

> <URL>
https://www.enaminestore.com/catalog/EN300-1922906

> <ROCS_ShapeQuery>
_x1604L0AP1_x0771L0AP1

> <ROCS_TanimotoCombo>
0.898 

> <ROCS_ShapeTanimoto>
0.538 

> <ROCS_ColorTanimoto>
0.360 

> <ROCS_RefTversky>
0.481 

> <ROCS_RefColorTversky>
0.410 

> <ROCS_RefTverskyCombo>
0.891 

> <ROCS_FitTversky>
1.287 

> <ROCS_FitColorTversky>
0.745 

> <ROCS_FitTverskyCombo>
2.032 

> <ROCS_ColorScore>
-4.682

> <ROCS_Overlap>
815.489

> <ROCS_Rank>
285                 

$$$$
untitled-dbase-50_9
  -OEChem-06042309053D

 17 17  0     0  0  0  0  0  0999 V2000
   -4.3542   12.1574  -31.2063 C   0  0  0  0  0  0  0  0  0  0  0  0
   -5.0782   11.1344  -31.8184 C   0  0  0  0  0  0  0  0  0  0  0  0
   -5.5726   11.7910  -29.1525 C   0  0  0  0  0  0  0  0  0  0  0  0
   -6.2967   10.7679  -29.7646 C   0  0  0  0  0  0  0  0  0  0  0  0
   -4.6013   12.4857  -29.8733 C   0  0  0  0  0  0  0  0  0  0  0  0
   -6.0495   10.4396  -31.0976 C   0  0  0  0  0  0  0  0  0  0  0  0
   -2.6178   14.2798  -30.4733 C   0  0  0  0  0  0  0  0  0  0  0  0
   -7.2373   10.1063  -29.0325 O   0  0  0  0  0  0  0  0  0  0  0  0
   -3.6735   13.7907  -29.0918 S   0  0  0  0  0  0  0  0  0  0  0  0
   -7.0135    9.0558  -31.9621 Br  0  0  0  0  0  0  0  0  0  0  0  0
   -3.6002   12.6867  -31.7840 H   0  0  0  0  0  0  0  0  0  0  0  0
   -4.8707   10.8910  -32.8575 H   0  0  0  0  0  0  0  0  0  0  0  0
   -5.7730   12.0373  -28.1121 H   0  0  0  0  0  0  0  0  0  0  0  0
   -1.9597   15.0967  -30.1672 H   0  0  0  0  0  0  0  0  0  0  0  0
   -3.2345   14.6139  -31.3114 H   0  0  0  0  0  0  0  0  0  0  0  0
   -2.0088   13.4310  -30.7937 H   0  0  0  0  0  0  0  0  0  0  0  0
   -7.6638    9.4245  -29.5744 H   0  0  0  0  0  0  0  0  0  0  0  0
  1  2  1  0  0  0  0
  1  5  2  0  0  0  0
  2  6  2  0  0  0  0
  3  4  2  0  0  0  0
  3  5  1  0  0  0  0
  4  6  1  0  0  0  0
  4  8  1  0  0  0  0
  5  9  1  0  0  0  0
  6 10  1  0  0  0  0
  7  9  1  0  0  0  0
  1 11  1  0  0  0  0
  2 12  1  0  0  0  0
  3 13  1  0  0  0  0
  7 14  1  0  0  0  0
  7 15  1  0  0  0  0
  7 16  1  0  0  0  0
  8 17  1  0  0  0  0
M  END
> <id>
EN300-199131

> <smiles>
CSC=1C=CC(Br)=C(O)C1

> <MDLNUMBER>
MFCD16999029

> <IUPAC Name>
2-bromo-5-(methylsulfanyl)phenol

> <CAS>
1243397-23-0

> <Purity>
95

> <URL>
https://www.enaminestore.com/catalog/EN300-199131

> <ROCS_ShapeQuery>
_x1604L0AP1_x0771L0AP1

> <ROCS_TanimotoCombo>
0.898 

> <ROCS_ShapeTanimoto>
0.485 

> <ROCS_ColorTanimoto>
0.413 

> <ROCS_RefTversky>
0.417 

> <ROCS_RefColorTversky>
0.429 

> <ROCS_RefTverskyCombo>
0.846 

> <ROCS_FitTversky>
1.511 

> <ROCS_FitColorTversky>
0.914 

> <ROCS_FitTverskyCombo>
2.425 

> <ROCS_ColorScore>
-4.878

> <ROCS_Overlap>
703.444

> <ROCS_Rank>
286                 

$$$$
untitled-dbase-1400_0
  -OEChem-06042309053D

 13 13  0     0  0  0  0  0  0999 V2000
   -4.3458   12.1507  -31.2038 C   0  0  0  0  0  0  0  0  0  0  0  0
   -5.0736   11.1313  -31.8175 C   0  0  0  0  0  0  0  0  0  0  0  0
   -5.5649   11.7851  -29.1503 C   0  0  0  0  0  0  0  0  0  0  0  0
   -6.2928   10.7656  -29.7640 C   0  0  0  0  0  0  0  0  0  0  0  0
   -4.5914   12.4776  -29.8702 C   0  0  0  0  0  0  0  0  0  0  0  0
   -6.0471   10.4388  -31.0976 C   0  0  0  0  0  0  0  0  0  0  0  0
   -7.2371   10.1082  -29.0329 O   0  0  0  0  0  0  0  0  0  0  0  0
   -3.8926   13.4562  -29.2800 F   0  0  0  0  0  0  0  0  0  0  0  0
   -7.0151    9.0585  -31.9637 Br  0  0  0  0  0  0  0  0  0  0  0  0
   -3.5872   12.6898  -31.7633 H   0  0  0  0  0  0  0  0  0  0  0  0
   -4.8680   10.8899  -32.8571 H   0  0  0  0  0  0  0  0  0  0  0  0
   -5.7502   12.0456  -28.1117 H   0  0  0  0  0  0  0  0  0  0  0  0
   -7.6663    9.4285  -29.5753 H   0  0  0  0  0  0  0  0  0  0  0  0
  1  2  1  0  0  0  0
  1  5  2  0  0  0  0
  2  6  2  0  0  0  0
  3  4  2  0  0  0  0
  3  5  1  0  0  0  0
  4  6  1  0  0  0  0
  4  7  1  0  0  0  0
  5  8  1  0  0  0  0
  6  9  1  0  0  0  0
  1 10  1  0  0  0  0
  2 11  1  0  0  0  0
  3 12  1  0  0  0  0
  7 13  1  0  0  0  0
M  END
> <id>
EN300-112643

> <smiles>
OC=1C=C(F)C=CC1Br

> <MDLNUMBER>
MFCD00040939

> <IUPAC Name>
2-bromo-5-fluorophenol

> <CAS>
147460-41-1

> <Purity>
95

> <URL>
https://www.enaminestore.com/catalog/EN300-112643

> <MP>
42-44

> <ROCS_ShapeQuery>
_x1604L0AP1_x0771L0AP1

> <ROCS_TanimotoCombo>
0.898 

> <ROCS_ShapeTanimoto>
0.447 

> <ROCS_ColorTanimoto>
0.451 

> <ROCS_RefTversky>
0.391 

> <ROCS_RefColorTversky>
0.431 

> <ROCS_RefTverskyCombo>
0.822 

> <ROCS_FitTversky>
1.475 

> <ROCS_FitColorTversky>
1.113 

> <ROCS_FitTverskyCombo>
2.588 

> <ROCS_ColorScore>
-4.878

> <ROCS_Overlap>
659.058

> <ROCS_Rank>
287                 

$$$$
untitled-dbase-1050_2685
  -OEChem-06042309053D

 26 26  0     1  0  0  0  0  0999 V2000
   -4.5979   12.4839  -29.8344 C   0  0  0  0  0  0  0  0  0  0  0  0
   -5.0697   11.1480  -31.7912 C   0  0  0  0  0  0  0  0  0  0  0  0
   -4.3465   12.1654  -31.1688 C   0  0  0  0  0  0  0  0  0  0  0  0
   -5.5726   11.7850  -29.1222 C   0  0  0  0  0  0  0  0  0  0  0  0
   -6.2959   10.7675  -29.7446 C   0  0  0  0  0  0  0  0  0  0  0  0
   -6.0444   10.4490  -31.0791 C   0  0  0  0  0  0  0  0  0  0  0  0
   -5.0229   13.1605  -27.2616 C   0  0  0  0  0  0  0  0  0  0  0  0
   -1.9109   12.7936  -31.2921 C   0  0  0  0  0  0  0  0  0  0  0  0
   -3.3050   12.9136  -31.9301 C   0  0  2  0  0  0  0  0  0  0  0  0
   -3.8569   15.5149  -29.9755 N   0  5  0  0  0  0  0  0  0  0  0  0
   -3.6253   14.3553  -32.0381 N   0  0  0  0  0  0  0  0  0  0  0  0
   -3.7437   14.9490  -30.9594 N   0  3  0  0  0  0  0  0  0  0  0  0
   -7.2458   10.0960  -29.0316 O   0  0  0  0  0  0  0  0  0  0  0  0
   -1.9368   13.3214  -29.9702 O   0  0  0  0  0  0  0  0  0  0  0  0
   -5.8072   12.1080  -27.8196 O   0  0  0  0  0  0  0  0  0  0  0  0
   -7.0069    9.0729  -31.9589 Br  0  0  0  0  0  0  0  0  0  0  0  0
   -4.0357   13.2769  -29.3470 H   0  0  0  0  0  0  0  0  0  0  0  0
   -4.8667   10.9072  -32.8325 H   0  0  0  0  0  0  0  0  0  0  0  0
   -5.3101   13.3164  -26.2189 H   0  0  0  0  0  0  0  0  0  0  0  0
   -5.1809   14.0773  -27.8352 H   0  0  0  0  0  0  0  0  0  0  0  0
   -3.9678   12.8809  -27.3087 H   0  0  0  0  0  0  0  0  0  0  0  0
   -1.5769   11.7513  -31.2413 H   0  0  0  0  0  0  0  0  0  0  0  0
   -1.1761   13.3693  -31.8657 H   0  0  0  0  0  0  0  0  0  0  0  0
   -3.2342   12.5374  -32.9665 H   0  0  0  0  0  0  0  0  0  0  0  0
   -7.2905   10.4426  -28.1275 H   0  0  0  0  0  0  0  0  0  0  0  0
   -1.0397   13.2227  -29.6140 H   0  0  0  0  0  0  0  0  0  0  0  0
  1  3  1  0  0  0  0
  1  4  2  0  0  0  0
  2  3  2  0  0  0  0
  2  6  1  0  0  0  0
  3  9  1  0  0  0  0
  4  5  1  0  0  0  0
  4 15  1  0  0  0  0
  5  6  2  0  0  0  0
  5 13  1  0  0  0  0
  6 16  1  0  0  0  0
  7 15  1  0  0  0  0
  8  9  1  0  0  0  0
  8 14  1  0  0  0  0
  9 11  1  0  0  0  0
 10 12  2  0  0  0  0
 11 12  2  0  0  0  0
  1 17  1  0  0  0  0
  2 18  1  0  0  0  0
  7 19  1  0  0  0  0
  7 20  1  0  0  0  0
  7 21  1  0  0  0  0
  8 22  1  0  0  0  0
  8 23  1  0  0  0  0
  9 24  1  0  0  0  0
 13 25  1  0  0  0  0
 14 26  1  0  0  0  0
M  CHG  2  10  -1  12   1
M  END
> <id>
EN300-1927042

> <smiles>
COC=1C=C(C=C(Br)C1O)C(CO)N=[N+]=[N-]

> <IUPAC Name>
4-(1-azido-2-hydroxyethyl)-2-bromo-6-methoxyphenol

> <CAS>
2228267-57-8

> <URL>
https://www.enaminestore.com/catalog/EN300-1927042

> <ROCS_ShapeQuery>
_x1604L0AP1_x0771L0AP1

> <ROCS_TanimotoCombo>
0.898 

> <ROCS_ShapeTanimoto>
0.543 

> <ROCS_ColorTanimoto>
0.355 

> <ROCS_RefTversky>
0.504 

> <ROCS_RefColorTversky>
0.427 

> <ROCS_RefTverskyCombo>
0.931 

> <ROCS_FitTversky>
1.165 

> <ROCS_FitColorTversky>
0.677 

> <ROCS_FitTverskyCombo>
1.842 

> <ROCS_ColorScore>
-4.898

> <ROCS_Overlap>
857.898

> <ROCS_Rank>
288                 

$$$$
untitled-dbase-2106_0
  -OEChem-06042309053D

 16 16  0     0  0  0  0  0  0999 V2000
   -4.5843   12.4703  -29.8480 C   0  0  0  0  0  0  0  0  0  0  0  0
   -5.5643   11.7790  -29.1356 C   0  0  0  0  0  0  0  0  0  0  0  0
   -5.0592   11.1305  -31.8016 C   0  0  0  0  0  0  0  0  0  0  0  0
   -4.3318   12.1461  -31.1810 C   0  0  0  0  0  0  0  0  0  0  0  0
   -6.2917   10.7635  -29.7562 C   0  0  0  0  0  0  0  0  0  0  0  0
   -6.0392   10.4392  -31.0892 C   0  0  0  0  0  0  0  0  0  0  0  0
   -3.2837   12.8857  -31.9414 C   0  0  0  0  0  0  0  0  0  0  0  0
   -7.2413   10.1060  -29.0321 O   0  0  0  0  0  0  0  0  0  0  0  0
   -7.0071    9.0641  -31.9638 Br  0  0  0  0  0  0  0  0  0  0  0  0
   -4.0229   13.2599  -29.3553 H   0  0  0  0  0  0  0  0  0  0  0  0
   -5.7554   12.0372  -28.0974 H   0  0  0  0  0  0  0  0  0  0  0  0
   -4.8558   10.8848  -32.8417 H   0  0  0  0  0  0  0  0  0  0  0  0
   -2.3121   12.3877  -31.8359 H   0  0  0  0  0  0  0  0  0  0  0  0
   -3.5314   12.9422  -33.0094 H   0  0  0  0  0  0  0  0  0  0  0  0
   -3.1858   13.9189  -31.5832 H   0  0  0  0  0  0  0  0  0  0  0  0
   -7.6694    9.4291  -29.5789 H   0  0  0  0  0  0  0  0  0  0  0  0
  1  2  1  0  0  0  0
  1  4  2  0  0  0  0
  2  5  2  0  0  0  0
  3  4  1  0  0  0  0
  3  6  2  0  0  0  0
  4  7  1  0  0  0  0
  5  6  1  0  0  0  0
  5  8  1  0  0  0  0
  6  9  1  0  0  0  0
  1 10  1  0  0  0  0
  2 11  1  0  0  0  0
  3 12  1  0  0  0  0
  7 13  1  0  0  0  0
  7 14  1  0  0  0  0
  7 15  1  0  0  0  0
  8 16  1  0  0  0  0
M  END
> <id>
EN300-20031

> <smiles>
CC=1C=CC(O)=C(Br)C1

> <MDLNUMBER>
MFCD00002151

> <IUPAC Name>
2-bromo-4-methylphenol

> <CAS>
6627-55-0

> <Purity>
95

> <URL>
https://www.enaminestore.com/catalog/EN300-20031

> <MP>
54-57

> <ROCS_ShapeQuery>
_x1604L0AP1_x0771L0AP1

> <ROCS_TanimotoCombo>
0.898 

> <ROCS_ShapeTanimoto>
0.447 

> <ROCS_ColorTanimoto>
0.451 

> <ROCS_RefTversky>
0.390 

> <ROCS_RefColorTversky>
0.431 

> <ROCS_RefTverskyCombo>
0.821 

> <ROCS_FitTversky>
1.487 

> <ROCS_FitColorTversky>
1.113 

> <ROCS_FitTverskyCombo>
2.600 

> <ROCS_ColorScore>
-4.879

> <ROCS_Overlap>
657.341

> <ROCS_Rank>
289                 

$$$$
untitled-dbase-424_2158
  -OEChem-06042309053D

 31 32  0     0  0  0  0  0  0999 V2000
   -5.1713   11.3847  -31.7869 C   0  0  0  0  0  0  0  0  0  0  0  0
   -4.4067   12.3266  -29.6977 C   0  0  0  0  0  0  0  0  0  0  0  0
   -4.2947   12.2104  -31.0831 C   0  0  0  0  0  0  0  0  0  0  0  0
   -6.1601   10.6753  -31.1052 C   0  0  0  0  0  0  0  0  0  0  0  0
   -6.2722   10.7915  -29.7197 C   0  0  0  0  0  0  0  0  0  0  0  0
   -5.3955   11.6171  -29.0159 C   0  0  0  0  0  0  0  0  0  0  0  0
   -3.5238   13.3891  -33.2416 C   0  0  0  0  0  0  0  0  0  0  0  0
   -2.5514   12.2819  -32.9798 C   0  0  0  0  0  0  0  0  0  0  0  0
   -3.2375   12.9671  -31.8119 C   0  0  0  0  0  0  0  0  0  0  0  0
   -6.7807    8.9757  -34.0137 C   0  0  0  0  0  0  0  0  0  0  0  0
   -2.4149   13.8919  -30.9585 C   0  0  0  0  0  0  0  0  0  0  0  0
   -6.4258    8.8065  -32.5518 C   0  0  0  0  0  0  0  0  0  0  0  0
   -7.2459   10.0895  -29.0713 O   0  0  0  0  0  0  0  0  0  0  0  0
   -3.2641   14.8658  -30.3623 O   0  0  0  0  0  0  0  0  0  0  0  0
   -7.0093    9.8727  -31.8057 O   0  0  0  0  0  0  0  0  0  0  0  0
   -5.5150   11.7996  -27.1327 Br  0  0  0  0  0  0  0  0  0  0  0  0
   -5.0861   11.2916  -32.8670 H   0  0  0  0  0  0  0  0  0  0  0  0
   -3.7182   12.9720  -29.1563 H   0  0  0  0  0  0  0  0  0  0  0  0
   -3.1274   14.3352  -33.5916 H   0  0  0  0  0  0  0  0  0  0  0  0
   -4.4788   13.1260  -33.6819 H   0  0  0  0  0  0  0  0  0  0  0  0
   -2.8534   11.2753  -33.2455 H   0  0  0  0  0  0  0  0  0  0  0  0
   -1.5003   12.4827  -33.1525 H   0  0  0  0  0  0  0  0  0  0  0  0
   -7.8645    8.9502  -34.1577 H   0  0  0  0  0  0  0  0  0  0  0  0
   -6.3955    9.9263  -34.3969 H   0  0  0  0  0  0  0  0  0  0  0  0
   -6.3257    8.1821  -34.6156 H   0  0  0  0  0  0  0  0  0  0  0  0
   -1.6588   14.4143  -31.5591 H   0  0  0  0  0  0  0  0  0  0  0  0
   -1.9056   13.3408  -30.1573 H   0  0  0  0  0  0  0  0  0  0  0  0
   -5.3407    8.8329  -32.4148 H   0  0  0  0  0  0  0  0  0  0  0  0
   -6.8122    7.8566  -32.1704 H   0  0  0  0  0  0  0  0  0  0  0  0
   -7.7618    9.5705  -29.7070 H   0  0  0  0  0  0  0  0  0  0  0  0
   -3.6860   15.3500  -31.0898 H   0  0  0  0  0  0  0  0  0  0  0  0
  1  3  1  0  0  0  0
  1  4  2  0  0  0  0
  2  3  2  0  0  0  0
  2  6  1  0  0  0  0
  3  9  1  0  0  0  0
  4  5  1  0  0  0  0
  4 15  1  0  0  0  0
  5  6  2  0  0  0  0
  5 13  1  0  0  0  0
  6 16  1  0  0  0  0
  7  8  1  0  0  0  0
  7  9  1  0  0  0  0
  8  9  1  0  0  0  0
  9 11  1  0  0  0  0
 10 12  1  0  0  0  0
 11 14  1  0  0  0  0
 12 15  1  0  0  0  0
  1 17  1  0  0  0  0
  2 18  1  0  0  0  0
  7 19  1  0  0  0  0
  7 20  1  0  0  0  0
  8 21  1  0  0  0  0
  8 22  1  0  0  0  0
 10 23  1  0  0  0  0
 10 24  1  0  0  0  0
 10 25  1  0  0  0  0
 11 26  1  0  0  0  0
 11 27  1  0  0  0  0
 12 28  1  0  0  0  0
 12 29  1  0  0  0  0
 13 30  1  0  0  0  0
 14 31  1  0  0  0  0
M  END
> <id>
EN300-1920219

> <smiles>
CCOC=1C=C(C=C(Br)C1O)C2(CO)CC2

> <IUPAC Name>
2-bromo-6-ethoxy-4-[1-(hydroxymethyl)cyclopropyl]phenol

> <CAS>
2228863-95-2

> <URL>
https://www.enaminestore.com/catalog/EN300-1920219

> <ROCS_ShapeQuery>
_x1604L0AP1_x0771L0AP1

> <ROCS_TanimotoCombo>
0.898 

> <ROCS_ShapeTanimoto>
0.636 

> <ROCS_ColorTanimoto>
0.262 

> <ROCS_RefTversky>
0.557 

> <ROCS_RefColorTversky>
0.339 

> <ROCS_RefTverskyCombo>
0.896 

> <ROCS_FitTversky>
1.286 

> <ROCS_FitColorTversky>
0.537 

> <ROCS_FitTverskyCombo>
1.823 

> <ROCS_ColorScore>
-3.884

> <ROCS_Overlap>
947.540

> <ROCS_Rank>
290                 

$$$$
untitled-dbase-1319_4
  -OEChem-06042309053D

 16 16  0     0  0  0  0  0  0999 V2000
   -4.5758   12.4736  -29.8593 C   0  0  0  0  0  0  0  0  0  0  0  0
   -5.0619   11.1256  -31.8045 C   0  0  0  0  0  0  0  0  0  0  0  0
   -6.2859   10.7705  -29.7520 C   0  0  0  0  0  0  0  0  0  0  0  0
   -5.5539   11.7876  -29.1394 C   0  0  0  0  0  0  0  0  0  0  0  0
   -4.3298   12.1427  -31.1919 C   0  0  0  0  0  0  0  0  0  0  0  0
   -6.0399   10.4395  -31.0846 C   0  0  0  0  0  0  0  0  0  0  0  0
   -6.8563   11.3488  -26.9200 O   0  0  0  0  0  0  0  0  0  0  0  0
   -4.5792   12.4657  -26.7965 O   0  0  0  0  0  0  0  0  0  0  0  0
   -7.2400   10.1048  -29.0386 O   0  0  0  0  0  0  0  0  0  0  0  0
   -5.8407   12.2253  -27.4699 S   0  0  0  0  0  0  0  0  0  0  0  0
   -3.1219   12.9892  -32.0792 Cl  0  0  0  0  0  0  0  0  0  0  0  0
   -6.7114   14.0687  -27.6464 Cl  0  0  0  0  0  0  0  0  0  0  0  0
   -7.0135    9.0635  -31.9528 Br  0  0  0  0  0  0  0  0  0  0  0  0
   -4.0049   13.2660  -29.3804 H   0  0  0  0  0  0  0  0  0  0  0  0
   -4.8669   10.8709  -32.8441 H   0  0  0  0  0  0  0  0  0  0  0  0
   -7.6612    9.4312  -29.5939 H   0  0  0  0  0  0  0  0  0  0  0  0
  1  4  2  0  0  0  0
  1  5  1  0  0  0  0
  2  5  2  0  0  0  0
  2  6  1  0  0  0  0
  3  4  1  0  0  0  0
  3  6  2  0  0  0  0
  3  9  1  0  0  0  0
  4 10  1  0  0  0  0
  5 11  1  0  0  0  0
  6 13  1  0  0  0  0
  7 10  2  0  0  0  0
  8 10  2  0  0  0  0
 10 12  1  0  0  0  0
  1 14  1  0  0  0  0
  2 15  1  0  0  0  0
  9 16  1  0  0  0  0
M  END
> <id>
EN300-6493321

> <smiles>
OC=1C(Br)=CC(Cl)=CC1S(=O)(=O)Cl

> <IUPAC Name>
3-bromo-5-chloro-2-hydroxybenzene-1-sulfonyl chloride

> <CAS>
895917-80-3

> <URL>
https://www.enaminestore.com/catalog/EN300-6493321

> <ROCS_ShapeQuery>
_x1604L0AP1_x0771L0AP1

> <ROCS_TanimotoCombo>
0.898 

> <ROCS_ShapeTanimoto>
0.446 

> <ROCS_ColorTanimoto>
0.451 

> <ROCS_RefTversky>
0.414 

> <ROCS_RefColorTversky>
0.431 

> <ROCS_RefTverskyCombo>
0.846 

> <ROCS_FitTversky>
1.209 

> <ROCS_FitColorTversky>
1.113 

> <ROCS_FitTverskyCombo>
2.322 

> <ROCS_ColorScore>
-4.881

> <ROCS_Overlap>
701.912

> <ROCS_Rank>
291                 

$$$$
untitled-dbase-83_0
  -OEChem-06042309053D

 16 16  0     0  0  0  0  0  0999 V2000
   -4.3434   12.1483  -31.2053 C   0  0  0  0  0  0  0  0  0  0  0  0
   -5.0703   11.1274  -31.8176 C   0  0  0  0  0  0  0  0  0  0  0  0
   -5.5655   11.7874  -29.1526 C   0  0  0  0  0  0  0  0  0  0  0  0
   -4.5909   12.4783  -29.8728 C   0  0  0  0  0  0  0  0  0  0  0  0
   -6.2924   10.7665  -29.7649 C   0  0  0  0  0  0  0  0  0  0  0  0
   -6.0448   10.4365  -31.0974 C   0  0  0  0  0  0  0  0  0  0  0  0
   -3.8133   13.5691  -29.2176 C   0  0  0  0  0  0  0  0  0  0  0  0
   -7.2356   10.1084  -29.0330 O   0  0  0  0  0  0  0  0  0  0  0  0
   -7.0130    9.0556  -31.9623 Br  0  0  0  0  0  0  0  0  0  0  0  0
   -3.5845   12.6800  -31.7734 H   0  0  0  0  0  0  0  0  0  0  0  0
   -4.8635   10.8841  -32.8567 H   0  0  0  0  0  0  0  0  0  0  0  0
   -5.7594   12.0436  -28.1136 H   0  0  0  0  0  0  0  0  0  0  0  0
   -4.3204   14.5327  -29.3504 H   0  0  0  0  0  0  0  0  0  0  0  0
   -3.6949   13.3837  -28.1421 H   0  0  0  0  0  0  0  0  0  0  0  0
   -2.8026   13.6468  -29.6394 H   0  0  0  0  0  0  0  0  0  0  0  0
   -7.6641    9.4277  -29.5748 H   0  0  0  0  0  0  0  0  0  0  0  0
  1  2  1  0  0  0  0
  1  4  2  0  0  0  0
  2  6  2  0  0  0  0
  3  4  1  0  0  0  0
  3  5  2  0  0  0  0
  4  7  1  0  0  0  0
  5  6  1  0  0  0  0
  5  8  1  0  0  0  0
  6  9  1  0  0  0  0
  1 10  1  0  0  0  0
  2 11  1  0  0  0  0
  3 12  1  0  0  0  0
  7 13  1  0  0  0  0
  7 14  1  0  0  0  0
  7 15  1  0  0  0  0
  8 16  1  0  0  0  0
M  END
> <id>
EN300-132559

> <smiles>
CC=1C=CC(Br)=C(O)C1

> <MDLNUMBER>
MFCD11100989

> <IUPAC Name>
2-bromo-5-methylphenol

> <CAS>
14847-51-9

> <Purity>
95

> <URL>
https://www.enaminestore.com/catalog/EN300-132559

> <MP>
38-39

> <ROCS_ShapeQuery>
_x1604L0AP1_x0771L0AP1

> <ROCS_TanimotoCombo>
0.898 

> <ROCS_ShapeTanimoto>
0.447 

> <ROCS_ColorTanimoto>
0.451 

> <ROCS_RefTversky>
0.390 

> <ROCS_RefColorTversky>
0.431 

> <ROCS_RefTverskyCombo>
0.821 

> <ROCS_FitTversky>
1.487 

> <ROCS_FitColorTversky>
1.113 

> <ROCS_FitTverskyCombo>
2.599 

> <ROCS_ColorScore>
-4.879

> <ROCS_Overlap>
657.254

> <ROCS_Rank>
292                 

$$$$
untitled-dbase-569_199
  -OEChem-06042309053D

 24 24  0     0  0  0  0  0  0999 V2000
   -4.5801   12.4645  -29.7994 C   0  0  0  0  0  0  0  0  0  0  0  0
   -5.0439   11.1402  -31.7661 C   0  0  0  0  0  0  0  0  0  0  0  0
   -4.3183   12.1491  -31.1326 C   0  0  0  0  0  0  0  0  0  0  0  0
   -5.5675   11.7709  -29.0995 C   0  0  0  0  0  0  0  0  0  0  0  0
   -6.2931   10.7621  -29.7330 C   0  0  0  0  0  0  0  0  0  0  0  0
   -6.0313   10.4467  -31.0663 C   0  0  0  0  0  0  0  0  0  0  0  0
   -3.0151   12.5853  -33.1612 C   0  0  0  0  0  0  0  0  0  0  0  0
   -3.2893   12.8733  -31.8621 C   0  0  0  0  0  0  0  0  0  0  0  0
   -5.0248   13.1344  -27.2281 C   0  0  0  0  0  0  0  0  0  0  0  0
   -2.5416   14.0108  -31.1890 C   0  0  0  0  0  0  0  0  0  0  0  0
   -7.2556   10.0958  -29.0320 O   0  0  0  0  0  0  0  0  0  0  0  0
   -5.8122   12.0908  -27.7980 O   0  0  0  0  0  0  0  0  0  0  0  0
   -3.3981   15.5514  -31.4397 Cl  0  0  0  0  0  0  0  0  0  0  0  0
   -6.9970    9.0820  -31.9605 Br  0  0  0  0  0  0  0  0  0  0  0  0
   -4.0191   13.2501  -29.2975 H   0  0  0  0  0  0  0  0  0  0  0  0
   -4.8373   10.8970  -32.8067 H   0  0  0  0  0  0  0  0  0  0  0  0
   -2.2484   13.1227  -33.7100 H   0  0  0  0  0  0  0  0  0  0  0  0
   -3.5398   11.8036  -33.7017 H   0  0  0  0  0  0  0  0  0  0  0  0
   -5.3210   13.2886  -26.1876 H   0  0  0  0  0  0  0  0  0  0  0  0
   -5.1694   14.0547  -27.7995 H   0  0  0  0  0  0  0  0  0  0  0  0
   -3.9716   12.8461  -27.2658 H   0  0  0  0  0  0  0  0  0  0  0  0
   -2.4528   13.8737  -30.1060 H   0  0  0  0  0  0  0  0  0  0  0  0
   -1.5258   14.1154  -31.5804 H   0  0  0  0  0  0  0  0  0  0  0  0
   -7.3062   10.4393  -28.1269 H   0  0  0  0  0  0  0  0  0  0  0  0
  1  3  1  0  0  0  0
  1  4  2  0  0  0  0
  2  3  2  0  0  0  0
  2  6  1  0  0  0  0
  3  8  1  0  0  0  0
  4  5  1  0  0  0  0
  4 12  1  0  0  0  0
  5  6  2  0  0  0  0
  5 11  1  0  0  0  0
  6 14  1  0  0  0  0
  7  8  2  0  0  0  0
  8 10  1  0  0  0  0
  9 12  1  0  0  0  0
 10 13  1  0  0  0  0
  1 15  1  0  0  0  0
  2 16  1  0  0  0  0
  7 17  1  0  0  0  0
  7 18  1  0  0  0  0
  9 19  1  0  0  0  0
  9 20  1  0  0  0  0
  9 21  1  0  0  0  0
 10 22  1  0  0  0  0
 10 23  1  0  0  0  0
 11 24  1  0  0  0  0
M  END
> <id>
EN300-1925708

> <smiles>
COC=1C=C(C=C(Br)C1O)C(=C)CCl

> <IUPAC Name>
2-bromo-4-(3-chloroprop-1-en-2-yl)-6-methoxyphenol

> <CAS>
2228435-31-0

> <URL>
https://www.enaminestore.com/catalog/EN300-1925708

> <ROCS_ShapeQuery>
_x1604L0AP1_x0771L0AP1

> <ROCS_TanimotoCombo>
0.897 

> <ROCS_ShapeTanimoto>
0.515 

> <ROCS_ColorTanimoto>
0.383 

> <ROCS_RefTversky>
0.468 

> <ROCS_RefColorTversky>
0.429 

> <ROCS_RefTverskyCombo>
0.897 

> <ROCS_FitTversky>
1.239 

> <ROCS_FitColorTversky>
0.779 

> <ROCS_FitTverskyCombo>
2.019 

> <ROCS_ColorScore>
-4.898

> <ROCS_Overlap>
794.708

> <ROCS_Rank>
293                 

$$$$
untitled-dbase-25_0
  -OEChem-06042309053D

 13 13  0     0  0  0  0  0  0999 V2000
   -5.5666   11.7775  -29.1337 C   0  0  0  0  0  0  0  0  0  0  0  0
   -4.5858   12.4695  -29.8442 C   0  0  0  0  0  0  0  0  0  0  0  0
   -5.0561   11.1295  -31.7987 C   0  0  0  0  0  0  0  0  0  0  0  0
   -6.2921   10.7614  -29.7557 C   0  0  0  0  0  0  0  0  0  0  0  0
   -4.3306   12.1456  -31.1767 C   0  0  0  0  0  0  0  0  0  0  0  0
   -6.0369   10.4375  -31.0882 C   0  0  0  0  0  0  0  0  0  0  0  0
   -7.2436   10.1045  -29.0336 O   0  0  0  0  0  0  0  0  0  0  0  0
   -3.1203   13.0000  -32.0524 Cl  0  0  0  0  0  0  0  0  0  0  0  0
   -7.0033    9.0628  -31.9653 Br  0  0  0  0  0  0  0  0  0  0  0  0
   -5.7601   12.0353  -28.0959 H   0  0  0  0  0  0  0  0  0  0  0  0
   -4.0283   13.2589  -29.3465 H   0  0  0  0  0  0  0  0  0  0  0  0
   -4.8542   10.8797  -32.8382 H   0  0  0  0  0  0  0  0  0  0  0  0
   -7.6703    9.4272  -29.5810 H   0  0  0  0  0  0  0  0  0  0  0  0
  1  2  1  0  0  0  0
  1  4  2  0  0  0  0
  2  5  2  0  0  0  0
  3  5  1  0  0  0  0
  3  6  2  0  0  0  0
  4  6  1  0  0  0  0
  4  7  1  0  0  0  0
  5  8  1  0  0  0  0
  6  9  1  0  0  0  0
  1 10  1  0  0  0  0
  2 11  1  0  0  0  0
  3 12  1  0  0  0  0
  7 13  1  0  0  0  0
M  END
> <id>
EN300-21340

> <smiles>
OC=1C=CC(Cl)=CC1Br

> <MDLNUMBER>
MFCD00002319

> <IUPAC Name>
2-bromo-4-chlorophenol

> <CAS>
695-96-5

> <Purity>
95

> <URL>
https://www.enaminestore.com/catalog/EN300-21340

> <MP>
34-36

> <ROCS_ShapeQuery>
_x1604L0AP1_x0771L0AP1

> <ROCS_TanimotoCombo>
0.897 

> <ROCS_ShapeTanimoto>
0.447 

> <ROCS_ColorTanimoto>
0.451 

> <ROCS_RefTversky>
0.389 

> <ROCS_RefColorTversky>
0.431 

> <ROCS_RefTverskyCombo>
0.820 

> <ROCS_FitTversky>
1.503 

> <ROCS_FitColorTversky>
1.113 

> <ROCS_FitTverskyCombo>
2.615 

> <ROCS_ColorScore>
-4.879

> <ROCS_Overlap>
655.047

> <ROCS_Rank>
294                 

$$$$
untitled-dbase-70_0
  -OEChem-06042309053D

 13 13  0     0  0  0  0  0  0999 V2000
   -5.5628   11.7797  -29.1337 C   0  0  0  0  0  0  0  0  0  0  0  0
   -4.5834   12.4721  -29.8456 C   0  0  0  0  0  0  0  0  0  0  0  0
   -5.0567   11.1322  -31.7996 C   0  0  0  0  0  0  0  0  0  0  0  0
   -6.2892   10.7636  -29.7546 C   0  0  0  0  0  0  0  0  0  0  0  0
   -4.3303   12.1484  -31.1786 C   0  0  0  0  0  0  0  0  0  0  0  0
   -6.0361   10.4399  -31.0876 C   0  0  0  0  0  0  0  0  0  0  0  0
   -7.2392   10.1060  -29.0312 O   0  0  0  0  0  0  0  0  0  0  0  0
   -3.3897   12.8135  -31.8620 F   0  0  0  0  0  0  0  0  0  0  0  0
   -7.0035    9.0657  -31.9638 Br  0  0  0  0  0  0  0  0  0  0  0  0
   -5.7534   12.0368  -28.0952 H   0  0  0  0  0  0  0  0  0  0  0  0
   -4.0170   13.2627  -29.3624 H   0  0  0  0  0  0  0  0  0  0  0  0
   -4.8448   10.8941  -32.8387 H   0  0  0  0  0  0  0  0  0  0  0  0
   -7.6665    9.4287  -29.5781 H   0  0  0  0  0  0  0  0  0  0  0  0
  1  2  1  0  0  0  0
  1  4  2  0  0  0  0
  2  5  2  0  0  0  0
  3  5  1  0  0  0  0
  3  6  2  0  0  0  0
  4  6  1  0  0  0  0
  4  7  1  0  0  0  0
  5  8  1  0  0  0  0
  6  9  1  0  0  0  0
  1 10  1  0  0  0  0
  2 11  1  0  0  0  0
  3 12  1  0  0  0  0
  7 13  1  0  0  0  0
M  END
> <id>
EN300-21341

> <smiles>
OC=1C=CC(F)=CC1Br

> <MDLNUMBER>
MFCD00010614

> <IUPAC Name>
2-bromo-4-fluorophenol

> <CAS>
496-69-5

> <Purity>
95

> <URL>
https://www.enaminestore.com/catalog/EN300-21341

> <MP>
43-45

> <ROCS_ShapeQuery>
_x1604L0AP1_x0771L0AP1

> <ROCS_TanimotoCombo>
0.897 

> <ROCS_ShapeTanimoto>
0.446 

> <ROCS_ColorTanimoto>
0.451 

> <ROCS_RefTversky>
0.390 

> <ROCS_RefColorTversky>
0.431 

> <ROCS_RefTverskyCombo>
0.822 

> <ROCS_FitTversky>
1.474 

> <ROCS_FitColorTversky>
1.113 

> <ROCS_FitTverskyCombo>
2.586 

> <ROCS_ColorScore>
-4.879

> <ROCS_Overlap>
658.509

> <ROCS_Rank>
295                 

$$$$
untitled-dbase-1321_2
  -OEChem-06042309053D

 16 16  0     0  0  0  0  0  0999 V2000
   -4.5745   12.4720  -29.8568 C   0  0  0  0  0  0  0  0  0  0  0  0
   -5.0618   11.1268  -31.8036 C   0  0  0  0  0  0  0  0  0  0  0  0
   -6.2856   10.7697  -29.7514 C   0  0  0  0  0  0  0  0  0  0  0  0
   -5.5529   11.7855  -29.1376 C   0  0  0  0  0  0  0  0  0  0  0  0
   -4.3290   12.1426  -31.1898 C   0  0  0  0  0  0  0  0  0  0  0  0
   -6.0401   10.4403  -31.0844 C   0  0  0  0  0  0  0  0  0  0  0  0
   -5.8359   13.6678  -27.3833 O   0  0  0  0  0  0  0  0  0  0  0  0
   -6.9402   11.4131  -26.9841 O   0  0  0  0  0  0  0  0  0  0  0  0
   -7.2400   10.1037  -29.0386 O   0  0  0  0  0  0  0  0  0  0  0  0
   -4.5743   11.7497  -26.6322 F   0  0  0  0  0  0  0  0  0  0  0  0
   -5.8391   12.2213  -27.4675 S   0  0  0  0  0  0  0  0  0  0  0  0
   -3.1208   12.9896  -32.0763 Cl  0  0  0  0  0  0  0  0  0  0  0  0
   -7.0147    9.0660  -31.9542 Br  0  0  0  0  0  0  0  0  0  0  0  0
   -4.0031   13.2634  -29.3770 H   0  0  0  0  0  0  0  0  0  0  0  0
   -4.8672   10.8733  -32.8436 H   0  0  0  0  0  0  0  0  0  0  0  0
   -7.2837   10.4516  -28.1350 H   0  0  0  0  0  0  0  0  0  0  0  0
  1  4  2  0  0  0  0
  1  5  1  0  0  0  0
  2  5  2  0  0  0  0
  2  6  1  0  0  0  0
  3  4  1  0  0  0  0
  3  6  2  0  0  0  0
  3  9  1  0  0  0  0
  4 11  1  0  0  0  0
  5 12  1  0  0  0  0
  6 13  1  0  0  0  0
  7 11  2  0  0  0  0
  8 11  2  0  0  0  0
 10 11  1  0  0  0  0
  1 14  1  0  0  0  0
  2 15  1  0  0  0  0
  9 16  1  0  0  0  0
M  END
> <id>
EN300-6493393

> <smiles>
OC=1C(Br)=CC(Cl)=CC1S(=O)(=O)F

> <IUPAC Name>
3-bromo-5-chloro-2-hydroxybenzene-1-sulfonyl fluoride

> <CAS>
2247105-40-2

> <URL>
https://www.enaminestore.com/catalog/EN300-6493393

> <ROCS_ShapeQuery>
_x1604L0AP1_x0771L0AP1

> <ROCS_TanimotoCombo>
0.897 

> <ROCS_ShapeTanimoto>
0.446 

> <ROCS_ColorTanimoto>
0.451 

> <ROCS_RefTversky>
0.416 

> <ROCS_RefColorTversky>
0.431 

> <ROCS_RefTverskyCombo>
0.848 

> <ROCS_FitTversky>
1.190 

> <ROCS_FitColorTversky>
1.113 

> <ROCS_FitTverskyCombo>
2.303 

> <ROCS_ColorScore>
-4.881

> <ROCS_Overlap>
705.489

> <ROCS_Rank>
296                 

$$$$
untitled-dbase-262_44
  -OEChem-06042309053D

 24 24  0     0  0  0  0  0  0999 V2000
   -4.3034   12.2780  -31.0878 C   0  0  0  0  0  0  0  0  0  0  0  0
   -4.9805   11.2790  -31.7870 C   0  0  0  0  0  0  0  0  0  0  0  0
   -4.6045   12.5174  -29.7469 C   0  0  0  0  0  0  0  0  0  0  0  0
   -5.9588   10.5193  -31.1455 C   0  0  0  0  0  0  0  0  0  0  0  0
   -6.2600   10.7587  -29.8047 C   0  0  0  0  0  0  0  0  0  0  0  0
   -5.5828   11.7577  -29.1055 C   0  0  0  0  0  0  0  0  0  0  0  0
   -6.7111    8.0815  -34.0429 C   0  0  0  0  0  0  0  0  0  0  0  0
   -7.7918    8.5745  -34.9456 C   0  0  0  0  0  0  0  0  0  0  0  0
   -6.6788    9.4460  -31.9201 C   0  0  0  0  0  0  0  0  0  0  0  0
   -5.9904    9.1518  -33.2518 C   0  0  0  0  0  0  0  0  0  0  0  0
   -6.4654    6.8837  -33.9798 O   0  0  0  0  0  0  0  0  0  0  0  0
   -7.2208   10.0082  -29.1915 O   0  0  0  0  0  0  0  0  0  0  0  0
   -5.9623   12.1131  -27.2823 Br  0  0  0  0  0  0  0  0  0  0  0  0
   -3.5414   12.8693  -31.5870 H   0  0  0  0  0  0  0  0  0  0  0  0
   -4.7380   11.0976  -32.8307 H   0  0  0  0  0  0  0  0  0  0  0  0
   -4.0660   13.2999  -29.2183 H   0  0  0  0  0  0  0  0  0  0  0  0
   -7.4219    8.8158  -35.9545 H   0  0  0  0  0  0  0  0  0  0  0  0
   -8.5897    7.8302  -35.0937 H   0  0  0  0  0  0  0  0  0  0  0  0
   -8.3000    9.4851  -34.5924 H   0  0  0  0  0  0  0  0  0  0  0  0
   -6.7375    8.5333  -31.3129 H   0  0  0  0  0  0  0  0  0  0  0  0
   -7.7194    9.7521  -32.0894 H   0  0  0  0  0  0  0  0  0  0  0  0
   -4.9621    8.8122  -33.0792 H   0  0  0  0  0  0  0  0  0  0  0  0
   -5.9510   10.0588  -33.8667 H   0  0  0  0  0  0  0  0  0  0  0  0
   -7.3206   10.2854  -28.2681 H   0  0  0  0  0  0  0  0  0  0  0  0
  1  2  1  0  0  0  0
  1  3  2  0  0  0  0
  2  4  2  0  0  0  0
  3  6  1  0  0  0  0
  4  5  1  0  0  0  0
  4  9  1  0  0  0  0
  5  6  2  0  0  0  0
  5 12  1  0  0  0  0
  6 13  1  0  0  0  0
  7  8  1  0  0  0  0
  7 10  1  0  0  0  0
  7 11  2  0  0  0  0
  9 10  1  0  0  0  0
  1 14  1  0  0  0  0
  2 15  1  0  0  0  0
  3 16  1  0  0  0  0
  8 17  1  0  0  0  0
  8 18  1  0  0  0  0
  8 19  1  0  0  0  0
  9 20  1  0  0  0  0
  9 21  1  0  0  0  0
 10 22  1  0  0  0  0
 10 23  1  0  0  0  0
 12 24  1  0  0  0  0
M  END
> <id>
EN300-1897888

> <smiles>
CC(=O)CCC=1C=CC=C(Br)C1O

> <MDLNUMBER>
MFCD26654037

> <IUPAC Name>
4-(3-bromo-2-hydroxyphenyl)butan-2-one

> <CAS>
1542687-51-3

> <URL>
https://www.enaminestore.com/catalog/EN300-1897888

> <ROCS_ShapeQuery>
_x1604L0AP1_x0771L0AP1

> <ROCS_TanimotoCombo>
0.897 

> <ROCS_ShapeTanimoto>
0.534 

> <ROCS_ColorTanimoto>
0.363 

> <ROCS_RefTversky>
0.471 

> <ROCS_RefColorTversky>
0.392 

> <ROCS_RefTverskyCombo>
0.863 

> <ROCS_FitTversky>
1.329 

> <ROCS_FitColorTversky>
0.834 

> <ROCS_FitTverskyCombo>
2.163 

> <ROCS_ColorScore>
-4.451

> <ROCS_Overlap>
798.795

> <ROCS_Rank>
297                 

$$$$
untitled-dbase-805_246
  -OEChem-06042309053D

 23 23  0     0  0  0  0  0  0999 V2000
   -4.5866   12.4714  -29.8181 C   0  0  0  0  0  0  0  0  0  0  0  0
   -5.0563   11.1410  -31.7793 C   0  0  0  0  0  0  0  0  0  0  0  0
   -4.3309   12.1539  -31.1520 C   0  0  0  0  0  0  0  0  0  0  0  0
   -5.5677   11.7759  -29.1113 C   0  0  0  0  0  0  0  0  0  0  0  0
   -6.2932   10.7630  -29.7386 C   0  0  0  0  0  0  0  0  0  0  0  0
   -6.0375   10.4455  -31.0726 C   0  0  0  0  0  0  0  0  0  0  0  0
   -6.7882   13.1018  -27.5594 C   0  0  0  0  0  0  0  0  0  0  0  0
   -3.2825   12.8983  -31.9075 C   0  0  0  0  0  0  0  0  0  0  0  0
   -2.4181   13.6583  -31.0406 N   0  0  0  0  0  0  0  0  0  0  0  0
   -7.2494   10.0949  -29.0309 O   0  0  0  0  0  0  0  0  0  0  0  0
   -3.0339   14.9694  -30.9042 O   0  0  0  0  0  0  0  0  0  0  0  0
   -5.8064   12.0979  -27.8092 O   0  0  0  0  0  0  0  0  0  0  0  0
   -7.0027    9.0756  -31.9588 Br  0  0  0  0  0  0  0  0  0  0  0  0
   -4.0226   13.2608  -29.3269 H   0  0  0  0  0  0  0  0  0  0  0  0
   -4.8499   10.9009  -32.8200 H   0  0  0  0  0  0  0  0  0  0  0  0
   -6.8804   13.2623  -26.4825 H   0  0  0  0  0  0  0  0  0  0  0  0
   -7.7481   12.7852  -27.9750 H   0  0  0  0  0  0  0  0  0  0  0  0
   -6.4750   14.0323  -28.0387 H   0  0  0  0  0  0  0  0  0  0  0  0
   -2.6485   12.2119  -32.4861 H   0  0  0  0  0  0  0  0  0  0  0  0
   -3.7261   13.6016  -32.6257 H   0  0  0  0  0  0  0  0  0  0  0  0
   -1.5333   13.8891  -31.5017 H   0  0  0  0  0  0  0  0  0  0  0  0
   -7.2964   10.4402  -28.1264 H   0  0  0  0  0  0  0  0  0  0  0  0
   -2.4005   15.4141  -30.3146 H   0  0  0  0  0  0  0  0  0  0  0  0
  1  3  1  0  0  0  0
  1  4  2  0  0  0  0
  2  3  2  0  0  0  0
  2  6  1  0  0  0  0
  3  8  1  0  0  0  0
  4  5  1  0  0  0  0
  4 12  1  0  0  0  0
  5  6  2  0  0  0  0
  5 10  1  0  0  0  0
  6 13  1  0  0  0  0
  7 12  1  0  0  0  0
  8  9  1  0  0  0  0
  9 11  1  0  0  0  0
  1 14  1  0  0  0  0
  2 15  1  0  0  0  0
  7 16  1  0  0  0  0
  7 17  1  0  0  0  0
  7 18  1  0  0  0  0
  8 19  1  0  0  0  0
  8 20  1  0  0  0  0
  9 21  1  0  0  0  0
 10 22  1  0  0  0  0
 11 23  1  0  0  0  0
M  END
> <id>
EN300-1912444

> <smiles>
COC=1C=C(CNO)C=C(Br)C1O

> <MDLNUMBER>
MFCD24284787

> <IUPAC Name>
2-bromo-4-[(hydroxyamino)methyl]-6-methoxyphenol

> <CAS>
1554105-74-6

> <URL>
https://www.enaminestore.com/catalog/EN300-1912444

> <ROCS_ShapeQuery>
_x1604L0AP1_x0771L0AP1

> <ROCS_TanimotoCombo>
0.897 

> <ROCS_ShapeTanimoto>
0.514 

> <ROCS_ColorTanimoto>
0.383 

> <ROCS_RefTversky>
0.461 

> <ROCS_RefColorTversky>
0.429 

> <ROCS_RefTverskyCombo>
0.890 

> <ROCS_FitTversky>
1.290 

> <ROCS_FitColorTversky>
0.779 

> <ROCS_FitTverskyCombo>
2.069 

> <ROCS_ColorScore>
-4.898

> <ROCS_Overlap>
781.582

> <ROCS_Rank>
298                 

$$$$
untitled-dbase-101_0
  -OEChem-06042309053D

 13 13  0     0  0  0  0  0  0999 V2000
   -4.3428   12.1474  -31.2059 C   0  0  0  0  0  0  0  0  0  0  0  0
   -5.0705   11.1271  -31.8183 C   0  0  0  0  0  0  0  0  0  0  0  0
   -5.5641   11.7861  -29.1528 C   0  0  0  0  0  0  0  0  0  0  0  0
   -6.2918   10.7658  -29.7653 C   0  0  0  0  0  0  0  0  0  0  0  0
   -4.5895   12.4768  -29.8731 C   0  0  0  0  0  0  0  0  0  0  0  0
   -6.0451   10.4364  -31.0981 C   0  0  0  0  0  0  0  0  0  0  0  0
   -7.2369   10.1094  -29.0343 O   0  0  0  0  0  0  0  0  0  0  0  0
   -3.6913   13.7353  -29.1182 Cl  0  0  0  0  0  0  0  0  0  0  0  0
   -7.0142    9.0563  -31.9630 Br  0  0  0  0  0  0  0  0  0  0  0  0
   -3.5868   12.6777  -31.7795 H   0  0  0  0  0  0  0  0  0  0  0  0
   -4.8651   10.8849  -32.8579 H   0  0  0  0  0  0  0  0  0  0  0  0
   -5.7617   12.0378  -28.1134 H   0  0  0  0  0  0  0  0  0  0  0  0
   -7.6656    9.4291  -29.5763 H   0  0  0  0  0  0  0  0  0  0  0  0
  1  2  1  0  0  0  0
  1  5  2  0  0  0  0
  2  6  2  0  0  0  0
  3  4  2  0  0  0  0
  3  5  1  0  0  0  0
  4  6  1  0  0  0  0
  4  7  1  0  0  0  0
  5  8  1  0  0  0  0
  6  9  1  0  0  0  0
  1 10  1  0  0  0  0
  2 11  1  0  0  0  0
  3 12  1  0  0  0  0
  7 13  1  0  0  0  0
M  END
> <id>
EN300-126714

> <smiles>
OC=1C=C(Cl)C=CC1Br

> <MDLNUMBER>
MFCD00142870

> <IUPAC Name>
2-bromo-5-chlorophenol

> <CAS>
13659-23-9

> <Purity>
95

> <URL>
https://www.enaminestore.com/catalog/EN300-126714

> <MP>
63-65

> <ROCS_ShapeQuery>
_x1604L0AP1_x0771L0AP1

> <ROCS_TanimotoCombo>
0.897 

> <ROCS_ShapeTanimoto>
0.446 

> <ROCS_ColorTanimoto>
0.451 

> <ROCS_RefTversky>
0.388 

> <ROCS_RefColorTversky>
0.431 

> <ROCS_RefTverskyCombo>
0.819 

> <ROCS_FitTversky>
1.501 

> <ROCS_FitColorTversky>
1.113 

> <ROCS_FitTverskyCombo>
2.614 

> <ROCS_ColorScore>
-4.879

> <ROCS_Overlap>
654.556

> <ROCS_Rank>
299                 

$$$$
untitled-dbase-1301_1148
  -OEChem-06042309053D

 26 26  0     0  0  0  0  0  0999 V2000
   -5.0908   11.3031  -31.7620 C   0  0  0  0  0  0  0  0  0  0  0  0
   -4.4714   12.4085  -29.7050 C   0  0  0  0  0  0  0  0  0  0  0  0
   -4.2854   12.2098  -31.0731 C   0  0  0  0  0  0  0  0  0  0  0  0
   -6.0824   10.5950  -31.0829 C   0  0  0  0  0  0  0  0  0  0  0  0
   -6.2684   10.7937  -29.7149 C   0  0  0  0  0  0  0  0  0  0  0  0
   -5.4629   11.7004  -29.0259 C   0  0  0  0  0  0  0  0  0  0  0  0
   -3.7734   15.1040  -30.6971 C   0  0  0  0  0  0  0  0  0  0  0  0
   -2.8745   14.3137  -31.2922 C   0  0  0  0  0  0  0  0  0  0  0  0
   -3.2496   12.9459  -31.7810 C   0  0  0  0  0  0  0  0  0  0  0  0
   -6.5618    8.8619  -33.9874 C   0  0  0  0  0  0  0  0  0  0  0  0
   -7.1036    9.9977  -33.1460 C   0  0  0  0  0  0  0  0  0  0  0  0
   -2.6661   12.4467  -32.7552 O   0  0  0  0  0  0  0  0  0  0  0  0
   -7.2430   10.0910  -29.0681 O   0  0  0  0  0  0  0  0  0  0  0  0
   -6.8611    9.7130  -31.7697 O   0  0  0  0  0  0  0  0  0  0  0  0
   -5.6840   11.9946  -27.1661 Br  0  0  0  0  0  0  0  0  0  0  0  0
   -4.9485   11.1447  -32.8287 H   0  0  0  0  0  0  0  0  0  0  0  0
   -3.8384   13.1165  -29.1743 H   0  0  0  0  0  0  0  0  0  0  0  0
   -3.4843   16.0927  -30.3560 H   0  0  0  0  0  0  0  0  0  0  0  0
   -4.8010   14.8000  -30.5316 H   0  0  0  0  0  0  0  0  0  0  0  0
   -1.8605   14.6652  -31.4406 H   0  0  0  0  0  0  0  0  0  0  0  0
   -5.4845    8.7463  -33.8396 H   0  0  0  0  0  0  0  0  0  0  0  0
   -7.0572    7.9201  -33.7296 H   0  0  0  0  0  0  0  0  0  0  0  0
   -6.7551    9.0427  -35.0500 H   0  0  0  0  0  0  0  0  0  0  0  0
   -8.1814   10.1080  -33.2985 H   0  0  0  0  0  0  0  0  0  0  0  0
   -6.6070   10.9378  -33.4043 H   0  0  0  0  0  0  0  0  0  0  0  0
   -7.7042    9.5099  -29.6920 H   0  0  0  0  0  0  0  0  0  0  0  0
  1  3  1  0  0  0  0
  1  4  2  0  0  0  0
  2  3  2  0  0  0  0
  2  6  1  0  0  0  0
  3  9  1  0  0  0  0
  4  5  1  0  0  0  0
  4 14  1  0  0  0  0
  5  6  2  0  0  0  0
  5 13  1  0  0  0  0
  6 15  1  0  0  0  0
  7  8  2  0  0  0  0
  8  9  1  0  0  0  0
  9 12  2  0  0  0  0
 10 11  1  0  0  0  0
 11 14  1  0  0  0  0
  1 16  1  0  0  0  0
  2 17  1  0  0  0  0
  7 18  1  0  0  0  0
  7 19  1  0  0  0  0
  8 20  1  0  0  0  0
 10 21  1  0  0  0  0
 10 22  1  0  0  0  0
 10 23  1  0  0  0  0
 11 24  1  0  0  0  0
 11 25  1  0  0  0  0
 13 26  1  0  0  0  0
M  END
> <id>
EN300-1920267

> <smiles>
CCOC=1C=C(C=C(Br)C1O)C(=O)C=C

> <IUPAC Name>
1-(3-bromo-5-ethoxy-4-hydroxyphenyl)prop-2-en-1-one

> <CAS>
2229365-58-4

> <URL>
https://www.enaminestore.com/catalog/EN300-1920267

> <ROCS_ShapeQuery>
_x1604L0AP1_x0771L0AP1

> <ROCS_TanimotoCombo>
0.897 

> <ROCS_ShapeTanimoto>
0.635 

> <ROCS_ColorTanimoto>
0.262 

> <ROCS_RefTversky>
0.547 

> <ROCS_RefColorTversky>
0.339 

> <ROCS_RefTverskyCombo>
0.885 

> <ROCS_FitTversky>
1.340 

> <ROCS_FitColorTversky>
0.537 

> <ROCS_FitTverskyCombo>
1.877 

> <ROCS_ColorScore>
-3.883

> <ROCS_Overlap>
929.244

> <ROCS_Rank>
300                 

$$$$
untitled-dbase-1317_1
  -OEChem-06042309053D

 16 16  0     0  0  0  0  0  0999 V2000
   -4.6045   12.4926  -29.8368 C   0  0  0  0  0  0  0  0  0  0  0  0
   -5.5779   11.7846  -29.1320 C   0  0  0  0  0  0  0  0  0  0  0  0
   -4.3470   12.1831  -31.1724 C   0  0  0  0  0  0  0  0  0  0  0  0
   -6.2938   10.7670  -29.7626 C   0  0  0  0  0  0  0  0  0  0  0  0
   -5.0628   11.1655  -31.8030 C   0  0  0  0  0  0  0  0  0  0  0  0
   -6.0362   10.4574  -31.0981 C   0  0  0  0  0  0  0  0  0  0  0  0
   -3.6015   11.7027  -33.8984 O   0  0  0  0  0  0  0  0  0  0  0  0
   -4.6622    9.4034  -33.7092 O   0  0  0  0  0  0  0  0  0  0  0  0
   -7.2373   10.0983  -29.0400 O   0  0  0  0  0  0  0  0  0  0  0  0
   -4.6838   10.8341  -33.4826 S   0  0  0  0  0  0  0  0  0  0  0  0
   -6.3601   11.5046  -34.4439 Cl  0  0  0  0  0  0  0  0  0  0  0  0
   -7.0321    9.0635  -31.9312 Br  0  0  0  0  0  0  0  0  0  0  0  0
   -4.0469   13.2852  -29.3459 H   0  0  0  0  0  0  0  0  0  0  0  0
   -5.7732   12.0319  -28.0920 H   0  0  0  0  0  0  0  0  0  0  0  0
   -3.5858   12.7433  -31.7088 H   0  0  0  0  0  0  0  0  0  0  0  0
   -7.6602    9.4205  -29.5895 H   0  0  0  0  0  0  0  0  0  0  0  0
  1  2  1  0  0  0  0
  1  3  2  0  0  0  0
  2  4  2  0  0  0  0
  3  5  1  0  0  0  0
  4  6  1  0  0  0  0
  4  9  1  0  0  0  0
  5  6  2  0  0  0  0
  5 10  1  0  0  0  0
  6 12  1  0  0  0  0
  7 10  2  0  0  0  0
  8 10  2  0  0  0  0
 10 11  1  0  0  0  0
  1 13  1  0  0  0  0
  2 14  1  0  0  0  0
  3 15  1  0  0  0  0
  9 16  1  0  0  0  0
M  END
> <id>
EN300-6493319

> <smiles>
OC=1C=CC=C(C1Br)S(=O)(=O)Cl

> <MDLNUMBER>
MFCD18391414

> <IUPAC Name>
2-bromo-3-hydroxybenzene-1-sulfonyl chloride

> <CAS>
1261438-45-2

> <URL>
https://www.enaminestore.com/catalog/EN300-6493319

> <ROCS_ShapeQuery>
_x1604L0AP1_x0771L0AP1

> <ROCS_TanimotoCombo>
0.897 

> <ROCS_ShapeTanimoto>
0.445 

> <ROCS_ColorTanimoto>
0.452 

> <ROCS_RefTversky>
0.407 

> <ROCS_RefColorTversky>
0.432 

> <ROCS_RefTverskyCombo>
0.839 

> <ROCS_FitTversky>
1.263 

> <ROCS_FitColorTversky>
1.114 

> <ROCS_FitTverskyCombo>
2.377 

> <ROCS_ColorScore>
-4.884

> <ROCS_Overlap>
689.148

> <ROCS_Rank>
301                 

$$$$
untitled-dbase-577_225
  -OEChem-06042309053D

 22 22  0     0  0  0  0  0  0999 V2000
   -4.3962   12.1431  -30.2302 C   0  0  0  0  0  0  0  0  0  0  0  0
   -4.3242   11.6974  -31.5500 C   0  0  0  0  0  0  0  0  0  0  0  0
   -5.3718   11.6327  -29.3739 C   0  0  0  0  0  0  0  0  0  0  0  0
   -5.2278   10.7412  -32.0134 C   0  0  0  0  0  0  0  0  0  0  0  0
   -6.2755   10.6765  -29.8373 C   0  0  0  0  0  0  0  0  0  0  0  0
   -6.2035   10.2307  -31.1571 C   0  0  0  0  0  0  0  0  0  0  0  0
   -5.1088   10.2970  -33.4359 C   0  0  0  0  0  0  0  0  0  0  0  0
   -6.1295    6.6324  -34.6725 N   0  0  0  0  0  0  0  0  0  0  0  0
   -6.4699    8.8747  -35.8777 O   0  0  0  0  0  0  0  0  0  0  0  0
   -4.1374    8.0700  -35.3942 O   0  0  0  0  0  0  0  0  0  0  0  0
   -7.2156   10.2011  -28.9718 O   0  0  0  0  0  0  0  0  0  0  0  0
   -5.5498    8.9504  -33.5449 O   0  0  0  0  0  0  0  0  0  0  0  0
   -5.5280    8.2043  -34.9999 S   0  0  0  0  0  0  0  0  0  0  0  0
   -7.4415    8.9257  -31.7779 Br  0  0  0  0  0  0  0  0  0  0  0  0
   -3.6929   12.8880  -29.8695 H   0  0  0  0  0  0  0  0  0  0  0  0
   -3.5600   12.1021  -32.2087 H   0  0  0  0  0  0  0  0  0  0  0  0
   -5.4219   11.9854  -28.3472 H   0  0  0  0  0  0  0  0  0  0  0  0
   -5.7180   10.9231  -34.1000 H   0  0  0  0  0  0  0  0  0  0  0  0
   -4.0693   10.3597  -33.7818 H   0  0  0  0  0  0  0  0  0  0  0  0
   -6.9787    6.5746  -34.0959 H   0  0  0  0  0  0  0  0  0  0  0  0
   -6.1412    5.9691  -35.4578 H   0  0  0  0  0  0  0  0  0  0  0  0
   -7.7773    9.5468  -29.4152 H   0  0  0  0  0  0  0  0  0  0  0  0
  1  2  1  0  0  0  0
  1  3  2  0  0  0  0
  2  4  2  0  0  0  0
  3  5  1  0  0  0  0
  4  6  1  0  0  0  0
  4  7  1  0  0  0  0
  5  6  2  0  0  0  0
  5 11  1  0  0  0  0
  6 14  1  0  0  0  0
  7 12  1  0  0  0  0
  8 13  1  0  0  0  0
  9 13  2  0  0  0  0
 10 13  2  0  0  0  0
 12 13  1  0  0  0  0
  1 15  1  0  0  0  0
  2 16  1  0  0  0  0
  3 17  1  0  0  0  0
  7 18  1  0  0  0  0
  7 19  1  0  0  0  0
  8 20  1  0  0  0  0
  8 21  1  0  0  0  0
 11 22  1  0  0  0  0
M  END
> <id>
EN300-1991219

> <smiles>
NS(=O)(=O)OCC=1C=CC=C(O)C1Br

> <IUPAC Name>
(2-bromo-3-hydroxyphenyl)methyl sulfamate

> <CAS>
2228439-50-5

> <URL>
https://www.enaminestore.com/catalog/EN300-1991219

> <ROCS_ShapeQuery>
_x1604L0AP1_x0771L0AP1

> <ROCS_TanimotoCombo>
0.897 

> <ROCS_ShapeTanimoto>
0.487 

> <ROCS_ColorTanimoto>
0.410 

> <ROCS_RefTversky>
0.450 

> <ROCS_RefColorTversky>
0.474 

> <ROCS_RefTverskyCombo>
0.924 

> <ROCS_FitTversky>
1.204 

> <ROCS_FitColorTversky>
0.751 

> <ROCS_FitTverskyCombo>
1.956 

> <ROCS_ColorScore>
-5.439

> <ROCS_Overlap>
762.569

> <ROCS_Rank>
302                 

$$$$
untitled-dbase-1522_95
  -OEChem-06042309053D

 22 22  0     0  0  0  0  0  0999 V2000
   -4.5634   12.4525  -29.8080 C   0  0  0  0  0  0  0  0  0  0  0  0
   -5.0356   11.1251  -31.7706 C   0  0  0  0  0  0  0  0  0  0  0  0
   -4.3039   12.1316  -31.1404 C   0  0  0  0  0  0  0  0  0  0  0  0
   -5.5545   11.7668  -29.1057 C   0  0  0  0  0  0  0  0  0  0  0  0
   -6.2862   10.7603  -29.7359 C   0  0  0  0  0  0  0  0  0  0  0  0
   -6.0268   10.4394  -31.0683 C   0  0  0  0  0  0  0  0  0  0  0  0
   -3.0411   14.2923  -31.4312 C   0  0  0  0  0  0  0  0  0  0  0  0
   -5.0535   11.3882  -26.8119 C   0  0  0  0  0  0  0  0  0  0  0  0
   -3.2448   12.8656  -31.8911 C   0  0  0  0  0  0  0  0  0  0  0  0
   -3.7079   14.8458  -30.5631 O   0  0  0  0  0  0  0  0  0  0  0  0
   -7.2523   10.1017  -29.0326 O   0  0  0  0  0  0  0  0  0  0  0  0
   -5.7967   12.0920  -27.8051 O   0  0  0  0  0  0  0  0  0  0  0  0
   -7.0004    9.0779  -31.9585 Br  0  0  0  0  0  0  0  0  0  0  0  0
   -3.9945   13.2370  -29.3146 H   0  0  0  0  0  0  0  0  0  0  0  0
   -4.8262   10.8824  -32.8101 H   0  0  0  0  0  0  0  0  0  0  0  0
   -2.2258   14.8381  -31.9371 H   0  0  0  0  0  0  0  0  0  0  0  0
   -5.3425   11.7433  -25.8197 H   0  0  0  0  0  0  0  0  0  0  0  0
   -3.9847   11.5510  -26.9718 H   0  0  0  0  0  0  0  0  0  0  0  0
   -5.2736   10.3211  -26.8930 H   0  0  0  0  0  0  0  0  0  0  0  0
   -3.4793   12.8975  -32.9658 H   0  0  0  0  0  0  0  0  0  0  0  0
   -2.2762   12.3509  -31.8029 H   0  0  0  0  0  0  0  0  0  0  0  0
   -7.3005   10.4481  -28.1285 H   0  0  0  0  0  0  0  0  0  0  0  0
  1  3  1  0  0  0  0
  1  4  2  0  0  0  0
  2  3  2  0  0  0  0
  2  6  1  0  0  0  0
  3  9  1  0  0  0  0
  4  5  1  0  0  0  0
  4 12  1  0  0  0  0
  5  6  2  0  0  0  0
  5 11  1  0  0  0  0
  6 13  1  0  0  0  0
  7  9  1  0  0  0  0
  7 10  2  0  0  0  0
  8 12  1  0  0  0  0
  1 14  1  0  0  0  0
  2 15  1  0  0  0  0
  7 16  1  0  0  0  0
  8 17  1  0  0  0  0
  8 18  1  0  0  0  0
  8 19  1  0  0  0  0
  9 20  1  0  0  0  0
  9 21  1  0  0  0  0
 11 22  1  0  0  0  0
M  END
> <id>
EN300-1914051

> <smiles>
COC=1C=C(CC=O)C=C(Br)C1O

> <MDLNUMBER>
MFCD20432288

> <IUPAC Name>
2-(3-bromo-4-hydroxy-5-methoxyphenyl)acetaldehyde

> <CAS>
1343859-47-1

> <URL>
https://www.enaminestore.com/catalog/EN300-1914051

> <ROCS_ShapeQuery>
_x1604L0AP1_x0771L0AP1

> <ROCS_TanimotoCombo>
0.897 

> <ROCS_ShapeTanimoto>
0.514 

> <ROCS_ColorTanimoto>
0.383 

> <ROCS_RefTversky>
0.462 

> <ROCS_RefColorTversky>
0.429 

> <ROCS_RefTverskyCombo>
0.891 

> <ROCS_FitTversky>
1.284 

> <ROCS_FitColorTversky>
0.779 

> <ROCS_FitTverskyCombo>
2.063 

> <ROCS_ColorScore>
-4.898

> <ROCS_Overlap>
782.414

> <ROCS_Rank>
303                 

$$$$
untitled-dbase-226_0
  -OEChem-06042309053D

 19 20  0     0  0  0  0  0  0999 V2000
   -5.5670   11.7782  -29.1358 C   0  0  0  0  0  0  0  0  0  0  0  0
   -5.0723   11.1355  -31.8105 C   0  0  0  0  0  0  0  0  0  0  0  0
   -4.5858   12.4663  -29.8501 C   0  0  0  0  0  0  0  0  0  0  0  0
   -4.3536   12.1597  -31.1932 C   0  0  0  0  0  0  0  0  0  0  0  0
   -6.2947   10.7634  -29.7579 C   0  0  0  0  0  0  0  0  0  0  0  0
   -6.0442   10.4391  -31.0915 C   0  0  0  0  0  0  0  0  0  0  0  0
   -2.7053   13.8261  -29.8794 C   0  0  0  0  0  0  0  0  0  0  0  0
   -3.0114   14.0465  -31.3480 C   0  0  0  0  0  0  0  0  0  0  0  0
   -3.8907   13.4384  -29.1791 O   0  0  0  0  0  0  0  0  0  0  0  0
   -3.4274   12.8210  -31.9568 O   0  0  0  0  0  0  0  0  0  0  0  0
   -7.2430   10.1044  -29.0328 O   0  0  0  0  0  0  0  0  0  0  0  0
   -7.0088    9.0586  -31.9618 Br  0  0  0  0  0  0  0  0  0  0  0  0
   -5.7578   12.0248  -28.0942 H   0  0  0  0  0  0  0  0  0  0  0  0
   -4.8752   10.8950  -32.8527 H   0  0  0  0  0  0  0  0  0  0  0  0
   -1.9446   13.0482  -29.7386 H   0  0  0  0  0  0  0  0  0  0  0  0
   -2.3367   14.7510  -29.4246 H   0  0  0  0  0  0  0  0  0  0  0  0
   -3.8026   14.7934  -31.4876 H   0  0  0  0  0  0  0  0  0  0  0  0
   -2.1175   14.3933  -31.8759 H   0  0  0  0  0  0  0  0  0  0  0  0
   -7.6717    9.4284  -29.5800 H   0  0  0  0  0  0  0  0  0  0  0  0
  1  3  1  0  0  0  0
  1  5  2  0  0  0  0
  2  4  1  0  0  0  0
  2  6  2  0  0  0  0
  3  4  2  0  0  0  0
  3  9  1  0  0  0  0
  4 10  1  0  0  0  0
  5  6  1  0  0  0  0
  5 11  1  0  0  0  0
  6 12  1  0  0  0  0
  7  8  1  0  0  0  0
  7  9  1  0  0  0  0
  8 10  1  0  0  0  0
  1 13  1  0  0  0  0
  2 14  1  0  0  0  0
  7 15  1  0  0  0  0
  7 16  1  0  0  0  0
  8 17  1  0  0  0  0
  8 18  1  0  0  0  0
 11 19  1  0  0  0  0
M  END
> <id>
EN300-1615088

> <smiles>
OC=1C=C2OCCOC2=CC1Br

> <MDLNUMBER>
MFCD14534623

> <IUPAC Name>
7-bromo-2,3-dihydro-1,4-benzodioxin-6-ol

> <CAS>
1216307-76-4

> <Purity>
95

> <URL>
https://www.enaminestore.com/catalog/EN300-1615088

> <ROCS_ShapeQuery>
_x1604L0AP1_x0771L0AP1

> <ROCS_TanimotoCombo>
0.897 

> <ROCS_ShapeTanimoto>
0.543 

> <ROCS_ColorTanimoto>
0.353 

> <ROCS_RefTversky>
0.476 

> <ROCS_RefColorTversky>
0.426 

> <ROCS_RefTverskyCombo>
0.902 

> <ROCS_FitTversky>
1.354 

> <ROCS_FitColorTversky>
0.674 

> <ROCS_FitTverskyCombo>
2.029 

> <ROCS_ColorScore>
-4.882

> <ROCS_Overlap>
806.098

> <ROCS_Rank>
304                 

$$$$
untitled-dbase-1948_12
  -OEChem-06042309053D

 22 23  0     1  0  0  0  0  0999 V2000
   -4.1881   12.3323  -30.8803 C   0  0  0  0  0  0  0  0  0  0  0  0
   -5.0659   11.6092  -31.6878 C   0  0  0  0  0  0  0  0  0  0  0  0
   -4.3268   12.2965  -29.4927 C   0  0  0  0  0  0  0  0  0  0  0  0
   -6.0826   10.8505  -31.1079 C   0  0  0  0  0  0  0  0  0  0  0  0
   -6.2214   10.8147  -29.7204 C   0  0  0  0  0  0  0  0  0  0  0  0
   -5.3435   11.5377  -28.9128 C   0  0  0  0  0  0  0  0  0  0  0  0
   -6.6598    8.4001  -33.4911 C   0  0  0  0  0  0  0  0  0  0  0  0
   -7.1088   10.6663  -33.3861 C   0  0  0  0  0  0  0  0  0  0  0  0
   -7.0122   10.0849  -31.9911 C   0  0  1  0  0  0  0  0  0  0  0  0
   -7.0807    9.4991  -34.2049 N   0  0  0  0  0  0  0  0  0  0  0  0
   -6.4480    7.2783  -33.9295 O   0  0  0  0  0  0  0  0  0  0  0  0
   -6.4909    8.7526  -32.1759 O   0  0  0  0  0  0  0  0  0  0  0  0
   -7.2221   10.0691  -29.1681 O   0  0  0  0  0  0  0  0  0  0  0  0
   -5.4983   11.5143  -27.0235 Br  0  0  0  0  0  0  0  0  0  0  0  0
   -3.3961   12.9227  -31.3317 H   0  0  0  0  0  0  0  0  0  0  0  0
   -4.9491   11.6408  -32.7678 H   0  0  0  0  0  0  0  0  0  0  0  0
   -3.6329   12.8661  -28.8797 H   0  0  0  0  0  0  0  0  0  0  0  0
   -8.0349   11.2240  -33.5504 H   0  0  0  0  0  0  0  0  0  0  0  0
   -6.2565   11.2951  -33.6644 H   0  0  0  0  0  0  0  0  0  0  0  0
   -7.9887   10.0054  -31.5068 H   0  0  0  0  0  0  0  0  0  0  0  0
   -7.3377    9.4811  -35.1867 H   0  0  0  0  0  0  0  0  0  0  0  0
   -7.1952   10.1398  -28.2018 H   0  0  0  0  0  0  0  0  0  0  0  0
  1  2  1  0  0  0  0
  1  3  2  0  0  0  0
  2  4  2  0  0  0  0
  3  6  1  0  0  0  0
  4  5  1  0  0  0  0
  4  9  1  0  0  0  0
  5  6  2  0  0  0  0
  5 13  1  0  0  0  0
  6 14  1  0  0  0  0
  7 10  1  0  0  0  0
  7 11  2  0  0  0  0
  7 12  1  0  0  0  0
  8  9  1  0  0  0  0
  8 10  1  0  0  0  0
  9 12  1  0  0  0  0
  1 15  1  0  0  0  0
  2 16  1  0  0  0  0
  3 17  1  0  0  0  0
  8 18  1  0  0  0  0
  8 19  1  0  0  0  0
  9 20  1  0  0  0  0
 10 21  1  0  0  0  0
 13 22  1  0  0  0  0
M  END
> <id>
EN300-1923777

> <smiles>
OC=1C(Br)=CC=CC1C2CNC(=O)O2

> <IUPAC Name>
5-(3-bromo-2-hydroxyphenyl)-1,3-oxazolidin-2-one

> <CAS>
2229274-17-1

> <URL>
https://www.enaminestore.com/catalog/EN300-1923777

> <ROCS_ShapeQuery>
_x1604L0AP1_x0771L0AP1

> <ROCS_TanimotoCombo>
0.897 

> <ROCS_ShapeTanimoto>
0.584 

> <ROCS_ColorTanimoto>
0.312 

> <ROCS_RefTversky>
0.516 

> <ROCS_RefColorTversky>
0.388 

> <ROCS_RefTverskyCombo>
0.905 

> <ROCS_FitTversky>
1.289 

> <ROCS_FitColorTversky>
0.615 

> <ROCS_FitTverskyCombo>
1.904 

> <ROCS_ColorScore>
-4.451

> <ROCS_Overlap>
877.449

> <ROCS_Rank>
305                 

$$$$
untitled-dbase-1218_71
  -OEChem-06042309053D

 22 22  0     1  0  0  0  0  0999 V2000
   -5.1179   11.8213  -31.6126 C   0  0  0  0  0  0  0  0  0  0  0  0
   -4.2568   12.2658  -29.3995 C   0  0  0  0  0  0  0  0  0  0  0  0
   -6.1326   11.0393  -31.0609 C   0  0  0  0  0  0  0  0  0  0  0  0
   -6.2095   10.8707  -29.6784 C   0  0  0  0  0  0  0  0  0  0  0  0
   -4.1799   12.4344  -30.7820 C   0  0  0  0  0  0  0  0  0  0  0  0
   -5.2716   11.4839  -28.8476 C   0  0  0  0  0  0  0  0  0  0  0  0
   -6.9070   10.7622  -33.4385 C   0  0  0  0  0  0  0  0  0  0  0  0
   -7.1748    8.8567  -31.8372 C   0  0  0  0  0  0  0  0  0  0  0  0
   -7.1265   10.3918  -31.9683 C   0  0  1  0  0  0  0  0  0  0  0  0
   -6.6927    9.9529  -34.3317 O   0  0  0  0  0  0  0  0  0  0  0  0
   -7.2081   10.1025  -29.1537 O   0  0  0  0  0  0  0  0  0  0  0  0
   -6.9645   12.1015  -33.6641 O   0  0  0  0  0  0  0  0  0  0  0  0
   -2.9278   13.3990  -31.4634 Cl  0  0  0  0  0  0  0  0  0  0  0  0
   -5.3429   11.2781  -26.9642 Br  0  0  0  0  0  0  0  0  0  0  0  0
   -5.0616   11.9507  -32.6914 H   0  0  0  0  0  0  0  0  0  0  0  0
   -3.5232   12.7453  -28.7552 H   0  0  0  0  0  0  0  0  0  0  0  0
   -6.2086    8.3999  -32.0779 H   0  0  0  0  0  0  0  0  0  0  0  0
   -7.4465    8.5654  -30.8167 H   0  0  0  0  0  0  0  0  0  0  0  0
   -7.9111    8.4140  -32.5171 H   0  0  0  0  0  0  0  0  0  0  0  0
   -8.1369   10.7618  -31.7085 H   0  0  0  0  0  0  0  0  0  0  0  0
   -7.1352   10.0766  -28.1875 H   0  0  0  0  0  0  0  0  0  0  0  0
   -7.1424   12.6535  -32.8732 H   0  0  0  0  0  0  0  0  0  0  0  0
  1  3  2  0  0  0  0
  1  5  1  0  0  0  0
  2  5  2  0  0  0  0
  2  6  1  0  0  0  0
  3  4  1  0  0  0  0
  3  9  1  0  0  0  0
  4  6  2  0  0  0  0
  4 11  1  0  0  0  0
  5 13  1  0  0  0  0
  6 14  1  0  0  0  0
  7  9  1  0  0  0  0
  7 10  2  0  0  0  0
  7 12  1  0  0  0  0
  8  9  1  0  0  0  0
  1 15  1  0  0  0  0
  2 16  1  0  0  0  0
  8 17  1  0  0  0  0
  8 18  1  0  0  0  0
  8 19  1  0  0  0  0
  9 20  1  0  0  0  0
 11 21  1  0  0  0  0
 12 22  1  0  0  0  0
M  END
> <id>
EN300-1915275

> <smiles>
CC(C(=O)O)C=1C=C(Cl)C=C(Br)C1O

> <MDLNUMBER>
MFCD28023230

> <IUPAC Name>
2-(3-bromo-5-chloro-2-hydroxyphenyl)propanoic acid

> <CAS>
1784210-89-4

> <URL>
https://www.enaminestore.com/catalog/EN300-1915275

> <ROCS_ShapeQuery>
_x1604L0AP1_x0771L0AP1

> <ROCS_TanimotoCombo>
0.896 

> <ROCS_ShapeTanimoto>
0.582 

> <ROCS_ColorTanimoto>
0.314 

> <ROCS_RefTversky>
0.508 

> <ROCS_RefColorTversky>
0.409 

> <ROCS_RefTverskyCombo>
0.917 

> <ROCS_FitTversky>
1.334 

> <ROCS_FitColorTversky>
0.575 

> <ROCS_FitTverskyCombo>
1.910 

> <ROCS_ColorScore>
-4.714

> <ROCS_Overlap>
862.223

> <ROCS_Rank>
306                 

$$$$
untitled-dbase-394_0
  -OEChem-06042309053D

 16 16  0     0  0  0  0  0  0999 V2000
   -4.6025   12.4917  -29.8507 C   0  0  0  0  0  0  0  0  0  0  0  0
   -4.3492   12.1750  -31.1853 C   0  0  0  0  0  0  0  0  0  0  0  0
   -5.5744   11.7880  -29.1393 C   0  0  0  0  0  0  0  0  0  0  0  0
   -5.0678   11.1548  -31.8085 C   0  0  0  0  0  0  0  0  0  0  0  0
   -6.2929   10.7678  -29.7625 C   0  0  0  0  0  0  0  0  0  0  0  0
   -6.0397   10.4511  -31.0971 C   0  0  0  0  0  0  0  0  0  0  0  0
   -4.7588   10.8546  -33.2401 C   0  0  0  0  0  0  0  0  0  0  0  0
   -7.2354   10.1025  -29.0358 O   0  0  0  0  0  0  0  0  0  0  0  0
   -6.0352   11.4885  -34.3011 Cl  0  0  0  0  0  0  0  0  0  0  0  0
   -7.0260    9.0571  -31.9366 Br  0  0  0  0  0  0  0  0  0  0  0  0
   -4.0434   13.2864  -29.3656 H   0  0  0  0  0  0  0  0  0  0  0  0
   -3.5897   12.7299  -31.7302 H   0  0  0  0  0  0  0  0  0  0  0  0
   -5.7664   12.0410  -28.1000 H   0  0  0  0  0  0  0  0  0  0  0  0
   -4.6774    9.7745  -33.4125 H   0  0  0  0  0  0  0  0  0  0  0  0
   -3.8065   11.3050  -33.5456 H   0  0  0  0  0  0  0  0  0  0  0  0
   -7.6596    9.4226  -29.5817 H   0  0  0  0  0  0  0  0  0  0  0  0
  1  2  2  0  0  0  0
  1  3  1  0  0  0  0
  2  4  1  0  0  0  0
  3  5  2  0  0  0  0
  4  6  2  0  0  0  0
  4  7  1  0  0  0  0
  5  6  1  0  0  0  0
  5  8  1  0  0  0  0
  6 10  1  0  0  0  0
  7  9  1  0  0  0  0
  1 11  1  0  0  0  0
  2 12  1  0  0  0  0
  3 13  1  0  0  0  0
  7 14  1  0  0  0  0
  7 15  1  0  0  0  0
  8 16  1  0  0  0  0
M  END
> <id>
EN300-1915319

> <smiles>
OC=1C=CC=C(CCl)C1Br

> <MDLNUMBER>
MFCD11520913

> <IUPAC Name>
2-bromo-3-(chloromethyl)phenol

> <CAS>
1260674-44-9

> <Purity>
95

> <URL>
https://www.enaminestore.com/catalog/EN300-1915319

> <ROCS_ShapeQuery>
_x1604L0AP1_x0771L0AP1

> <ROCS_TanimotoCombo>
0.896 

> <ROCS_ShapeTanimoto>
0.445 

> <ROCS_ColorTanimoto>
0.451 

> <ROCS_RefTversky>
0.395 

> <ROCS_RefColorTversky>
0.432 

> <ROCS_RefTverskyCombo>
0.826 

> <ROCS_FitTversky>
1.404 

> <ROCS_FitColorTversky>
1.114 

> <ROCS_FitTverskyCombo>
2.518 

> <ROCS_ColorScore>
-4.883

> <ROCS_Overlap>
665.987

> <ROCS_Rank>
307                 

$$$$
untitled-dbase-612_333
  -OEChem-06042309053D

 28 28  0     0  0  0  0  0  0999 V2000
   -4.6416   12.5252  -29.8643 C   0  0  0  0  0  0  0  0  0  0  0  0
   -5.1022   11.1689  -31.8099 C   0  0  0  0  0  0  0  0  0  0  0  0
   -4.3934   12.2032  -31.1986 C   0  0  0  0  0  0  0  0  0  0  0  0
   -5.5985   11.8130  -29.1413 C   0  0  0  0  0  0  0  0  0  0  0  0
   -6.3073   10.7787  -29.7525 C   0  0  0  0  0  0  0  0  0  0  0  0
   -6.0591   10.4567  -31.0869 C   0  0  0  0  0  0  0  0  0  0  0  0
   -1.9920   13.4853  -29.9217 C   0  0  0  0  0  0  0  0  0  0  0  0
   -1.9054   14.3941  -28.7417 C   0  0  0  0  0  0  0  0  0  0  0  0
   -6.8319   13.1226  -27.5859 C   0  0  0  0  0  0  0  0  0  0  0  0
   -3.3604   12.9734  -31.9795 C   0  0  0  0  0  0  0  0  0  0  0  0
   -2.7022   14.0585  -31.1291 C   0  0  0  0  0  0  0  0  0  0  0  0
   -1.5034   12.3640  -29.8676 O   0  0  0  0  0  0  0  0  0  0  0  0
   -7.2399   10.0944  -29.0290 O   0  0  0  0  0  0  0  0  0  0  0  0
   -5.8301   12.1397  -27.8391 O   0  0  0  0  0  0  0  0  0  0  0  0
   -7.0022    9.0579  -31.9517 Br  0  0  0  0  0  0  0  0  0  0  0  0
   -4.0906   13.3313  -29.3857 H   0  0  0  0  0  0  0  0  0  0  0  0
   -4.9018   10.9254  -32.8510 H   0  0  0  0  0  0  0  0  0  0  0  0
   -2.7647   14.2859  -28.0614 H   0  0  0  0  0  0  0  0  0  0  0  0
   -1.0141   14.2004  -28.1248 H   0  0  0  0  0  0  0  0  0  0  0  0
   -1.8623   15.4650  -28.9939 H   0  0  0  0  0  0  0  0  0  0  0  0
   -6.9159   13.2895  -26.5092 H   0  0  0  0  0  0  0  0  0  0  0  0
   -7.7889   12.7808  -27.9882 H   0  0  0  0  0  0  0  0  0  0  0  0
   -6.5457   14.0563  -28.0758 H   0  0  0  0  0  0  0  0  0  0  0  0
   -2.6014   12.2804  -32.3653 H   0  0  0  0  0  0  0  0  0  0  0  0
   -3.8288   13.4179  -32.8674 H   0  0  0  0  0  0  0  0  0  0  0  0
   -3.4569   14.7700  -30.7733 H   0  0  0  0  0  0  0  0  0  0  0  0
   -1.9660   14.6119  -31.7242 H   0  0  0  0  0  0  0  0  0  0  0  0
   -7.2848   10.4457  -28.1267 H   0  0  0  0  0  0  0  0  0  0  0  0
  1  3  1  0  0  0  0
  1  4  2  0  0  0  0
  2  3  2  0  0  0  0
  2  6  1  0  0  0  0
  3 10  1  0  0  0  0
  4  5  1  0  0  0  0
  4 14  1  0  0  0  0
  5  6  2  0  0  0  0
  5 13  1  0  0  0  0
  6 15  1  0  0  0  0
  7  8  1  0  0  0  0
  7 11  1  0  0  0  0
  7 12  2  0  0  0  0
  9 14  1  0  0  0  0
 10 11  1  0  0  0  0
  1 16  1  0  0  0  0
  2 17  1  0  0  0  0
  8 18  1  0  0  0  0
  8 19  1  0  0  0  0
  8 20  1  0  0  0  0
  9 21  1  0  0  0  0
  9 22  1  0  0  0  0
  9 23  1  0  0  0  0
 10 24  1  0  0  0  0
 10 25  1  0  0  0  0
 11 26  1  0  0  0  0
 11 27  1  0  0  0  0
 13 28  1  0  0  0  0
M  END
> <id>
EN300-1925699

> <smiles>
COC=1C=C(CCC(=O)C)C=C(Br)C1O

> <IUPAC Name>
4-(3-bromo-4-hydroxy-5-methoxyphenyl)butan-2-one

> <CAS>
2228141-64-6

> <URL>
https://www.enaminestore.com/catalog/EN300-1925699

> <ROCS_ShapeQuery>
_x1604L0AP1_x0771L0AP1

> <ROCS_TanimotoCombo>
0.896 

> <ROCS_ShapeTanimoto>
0.514 

> <ROCS_ColorTanimoto>
0.382 

> <ROCS_RefTversky>
0.477 

> <ROCS_RefColorTversky>
0.429 

> <ROCS_RefTverskyCombo>
0.905 

> <ROCS_FitTversky>
1.182 

> <ROCS_FitColorTversky>
0.779 

> <ROCS_FitTverskyCombo>
1.960 

> <ROCS_ColorScore>
-4.895

> <ROCS_Overlap>
809.639

> <ROCS_Rank>
308                 

$$$$
untitled-dbase-1932_8
  -OEChem-06042309053D

 24 24  0     1  0  0  0  0  0999 V2000
   -5.5729   11.7897  -29.1431 C   0  0  0  0  0  0  0  0  0  0  0  0
   -5.0794   11.1431  -31.8117 C   0  0  0  0  0  0  0  0  0  0  0  0
   -4.6024   12.4876  -29.8618 C   0  0  0  0  0  0  0  0  0  0  0  0
   -4.3556   12.1643  -31.1961 C   0  0  0  0  0  0  0  0  0  0  0  0
   -6.2967   10.7684  -29.7587 C   0  0  0  0  0  0  0  0  0  0  0  0
   -6.0499   10.4451  -31.0929 C   0  0  0  0  0  0  0  0  0  0  0  0
   -3.8397   13.5763  -29.1812 C   0  0  0  0  0  0  0  0  0  0  0  0
   -3.2085   12.4080  -33.4359 C   0  0  0  0  0  0  0  0  0  0  0  0
   -3.3221   12.8984  -31.9857 C   0  0  2  0  0  0  0  0  0  0  0  0
   -2.0176   12.8545  -31.3487 N   0  0  0  0  0  0  0  0  0  0  0  0
   -7.2385   10.1058  -29.0291 O   0  0  0  0  0  0  0  0  0  0  0  0
   -7.0126    9.0620  -31.9607 Br  0  0  0  0  0  0  0  0  0  0  0  0
   -5.7674   12.0397  -28.1028 H   0  0  0  0  0  0  0  0  0  0  0  0
   -4.8805   10.8968  -32.8524 H   0  0  0  0  0  0  0  0  0  0  0  0
   -2.9357   13.1709  -28.7120 H   0  0  0  0  0  0  0  0  0  0  0  0
   -3.5441   14.3576  -29.8923 H   0  0  0  0  0  0  0  0  0  0  0  0
   -4.4473   14.0621  -28.4076 H   0  0  0  0  0  0  0  0  0  0  0  0
   -2.9611   11.3412  -33.4661 H   0  0  0  0  0  0  0  0  0  0  0  0
   -4.1495   12.5536  -33.9783 H   0  0  0  0  0  0  0  0  0  0  0  0
   -2.4322   12.9506  -33.9871 H   0  0  0  0  0  0  0  0  0  0  0  0
   -3.5712   13.9726  -32.0309 H   0  0  0  0  0  0  0  0  0  0  0  0
   -1.3731   13.3679  -31.9066 H   0  0  0  0  0  0  0  0  0  0  0  0
   -2.0915   13.2622  -30.4440 H   0  0  0  0  0  0  0  0  0  0  0  0
   -7.6648    9.4253  -29.5728 H   0  0  0  0  0  0  0  0  0  0  0  0
  1  3  2  0  0  0  0
  1  5  1  0  0  0  0
  2  4  2  0  0  0  0
  2  6  1  0  0  0  0
  3  4  1  0  0  0  0
  3  7  1  0  0  0  0
  4  9  1  0  0  0  0
  5  6  2  0  0  0  0
  5 11  1  0  0  0  0
  6 12  1  0  0  0  0
  8  9  1  0  0  0  0
  9 10  1  0  0  0  0
  1 13  1  0  0  0  0
  2 14  1  0  0  0  0
  7 15  1  0  0  0  0
  7 16  1  0  0  0  0
  7 17  1  0  0  0  0
  8 18  1  0  0  0  0
  8 19  1  0  0  0  0
  8 20  1  0  0  0  0
  9 21  1  0  0  0  0
 10 22  1  0  0  0  0
 10 23  1  0  0  0  0
 11 24  1  0  0  0  0
M  END
> <id>
EN300-1277400

> <smiles>
CC(N)C=1C=C(Br)C(O)=CC1C

> <MDLNUMBER>
MFCD31409139

> <IUPAC Name>
4-(1-aminoethyl)-2-bromo-5-methylphenol

> <CAS>
1782237-09-5

> <URL>
https://www.enaminestore.com/catalog/EN300-1277400

> <ROCS_ShapeQuery>
_x1604L0AP1_x0771L0AP1

> <ROCS_TanimotoCombo>
0.896 

> <ROCS_ShapeTanimoto>
0.516 

> <ROCS_ColorTanimoto>
0.380 

> <ROCS_RefTversky>
0.453 

> <ROCS_RefColorTversky>
0.427 

> <ROCS_RefTverskyCombo>
0.881 

> <ROCS_FitTversky>
1.364 

> <ROCS_FitColorTversky>
0.776 

> <ROCS_FitTverskyCombo>
2.140 

> <ROCS_ColorScore>
-4.878

> <ROCS_Overlap>
767.501

> <ROCS_Rank>
309                 

$$$$
untitled-dbase-1486_338
  -OEChem-06042309053D

 27 27  0     0  0  0  0  0  0999 V2000
   -6.2641    7.8238  -34.6926 C   0  0  0  0  0  0  0  0  0  0  0  0
   -4.3736   11.9272  -31.4327 C   0  0  0  0  0  0  0  0  0  0  0  0
   -4.4904   12.2866  -30.0901 C   0  0  0  0  0  0  0  0  0  0  0  0
   -6.1762   10.3410  -31.1651 C   0  0  0  0  0  0  0  0  0  0  0  0
   -5.2165   10.9544  -31.9703 C   0  0  0  0  0  0  0  0  0  0  0  0
   -6.2931   10.7004  -29.8224 C   0  0  0  0  0  0  0  0  0  0  0  0
   -5.4502   11.6732  -29.2849 C   0  0  0  0  0  0  0  0  0  0  0  0
   -5.0952   10.5807  -33.3705 C   0  0  0  0  0  0  0  0  0  0  0  0
   -7.9483   11.8287  -34.4689 C   0  0  0  0  0  0  0  0  0  0  0  0
   -6.1647    9.2020  -35.1696 C   0  0  0  0  0  0  0  0  0  0  0  0
   -7.5830   10.5994  -33.7086 C   0  0  0  0  0  0  0  0  0  0  0  0
   -6.3432    6.7286  -34.3175 N   0  0  0  0  0  0  0  0  0  0  0  0
   -6.2404   10.1418  -34.0598 N   0  0  0  0  0  0  0  0  0  0  0  0
   -3.9736   10.6855  -33.8846 O   0  0  0  0  0  0  0  0  0  0  0  0
   -7.2412   10.0825  -29.0622 O   0  0  0  0  0  0  0  0  0  0  0  0
   -5.5793   12.1864  -27.4650 Br  0  0  0  0  0  0  0  0  0  0  0  0
   -3.6225   12.4118  -32.0513 H   0  0  0  0  0  0  0  0  0  0  0  0
   -3.8250   13.0465  -29.6882 H   0  0  0  0  0  0  0  0  0  0  0  0
   -6.8353    9.5824  -31.5811 H   0  0  0  0  0  0  0  0  0  0  0  0
   -7.9169   11.6161  -35.5477 H   0  0  0  0  0  0  0  0  0  0  0  0
   -8.9633   12.1458  -34.1872 H   0  0  0  0  0  0  0  0  0  0  0  0
   -7.2345   12.6316  -34.2325 H   0  0  0  0  0  0  0  0  0  0  0  0
   -5.2148    9.3735  -35.6840 H   0  0  0  0  0  0  0  0  0  0  0  0
   -6.9787    9.4397  -35.8602 H   0  0  0  0  0  0  0  0  0  0  0  0
   -7.6167   10.8201  -32.6315 H   0  0  0  0  0  0  0  0  0  0  0  0
   -8.3061    9.8042  -33.9428 H   0  0  0  0  0  0  0  0  0  0  0  0
   -7.2156   10.4228  -28.1545 H   0  0  0  0  0  0  0  0  0  0  0  0
  1 10  1  0  0  0  0
  1 12  3  0  0  0  0
  2  3  1  0  0  0  0
  2  5  2  0  0  0  0
  3  7  2  0  0  0  0
  4  5  1  0  0  0  0
  4  6  2  0  0  0  0
  5  8  1  0  0  0  0
  6  7  1  0  0  0  0
  6 15  1  0  0  0  0
  7 16  1  0  0  0  0
  8 13  1  0  0  0  0
  8 14  2  0  0  0  0
  9 11  1  0  0  0  0
 10 13  1  0  0  0  0
 11 13  1  0  0  0  0
  2 17  1  0  0  0  0
  3 18  1  0  0  0  0
  4 19  1  0  0  0  0
  9 20  1  0  0  0  0
  9 21  1  0  0  0  0
  9 22  1  0  0  0  0
 10 23  1  0  0  0  0
 10 24  1  0  0  0  0
 11 25  1  0  0  0  0
 11 26  1  0  0  0  0
 15 27  1  0  0  0  0
M  END
> <id>
EN300-11474503

> <smiles>
CCN(CC#N)C(=O)C=1C=CC(Br)=C(O)C1

> <IUPAC Name>
4-bromo-N-(cyanomethyl)-N-ethyl-3-hydroxybenzamide

> <CAS>
1797305-85-1

> <URL>
https://www.enaminestore.com/catalog/EN300-11474503

> <ROCS_ShapeQuery>
_x1604L0AP1_x0771L0AP1

> <ROCS_TanimotoCombo>
0.896 

> <ROCS_ShapeTanimoto>
0.530 

> <ROCS_ColorTanimoto>
0.366 

> <ROCS_RefTversky>
0.496 

> <ROCS_RefColorTversky>
0.416 

> <ROCS_RefTverskyCombo>
0.911 

> <ROCS_FitTversky>
1.150 

> <ROCS_FitColorTversky>
0.755 

> <ROCS_FitTverskyCombo>
1.905 

> <ROCS_ColorScore>
-4.744

> <ROCS_Overlap>
843.550

> <ROCS_Rank>
310                 

$$$$
untitled-dbase-1169_29
  -OEChem-06042309053D

 25 25  0     0  0  0  0  0  0999 V2000
   -4.2590   12.2755  -31.0434 C   0  0  0  0  0  0  0  0  0  0  0  0
   -5.0116   11.3448  -31.7596 C   0  0  0  0  0  0  0  0  0  0  0  0
   -4.5014   12.4704  -29.6836 C   0  0  0  0  0  0  0  0  0  0  0  0
   -6.0066   10.6090  -31.1160 C   0  0  0  0  0  0  0  0  0  0  0  0
   -6.2490   10.8038  -29.7562 C   0  0  0  0  0  0  0  0  0  0  0  0
   -5.4964   11.7346  -29.0400 C   0  0  0  0  0  0  0  0  0  0  0  0
   -6.9305   10.0591  -33.3924 C   0  0  0  0  0  0  0  0  0  0  0  0
   -6.1225    8.2128  -31.8355 C   0  0  0  0  0  0  0  0  0  0  0  0
   -8.2737    9.4141  -31.4130 C   0  0  0  0  0  0  0  0  0  0  0  0
   -6.8283    9.5850  -31.9285 C   0  0  0  0  0  0  0  0  0  0  0  0
   -7.4376   11.1189  -33.7441 O   0  0  0  0  0  0  0  0  0  0  0  0
   -7.2271   10.0775  -29.1411 O   0  0  0  0  0  0  0  0  0  0  0  0
   -6.4431    9.1721  -34.2975 O   0  0  0  0  0  0  0  0  0  0  0  0
   -5.7945   12.0278  -27.1909 Br  0  0  0  0  0  0  0  0  0  0  0  0
   -3.4839   12.8481  -31.5443 H   0  0  0  0  0  0  0  0  0  0  0  0
   -4.8145   11.1975  -32.8181 H   0  0  0  0  0  0  0  0  0  0  0  0
   -3.9044   13.1998  -29.1419 H   0  0  0  0  0  0  0  0  0  0  0  0
   -6.6683    7.4460  -32.3985 H   0  0  0  0  0  0  0  0  0  0  0  0
   -5.1064    8.2436  -32.2444 H   0  0  0  0  0  0  0  0  0  0  0  0
   -6.0311    7.8691  -30.7991 H   0  0  0  0  0  0  0  0  0  0  0  0
   -8.8299    8.6815  -32.0101 H   0  0  0  0  0  0  0  0  0  0  0  0
   -8.2935    9.0500  -30.3791 H   0  0  0  0  0  0  0  0  0  0  0  0
   -8.8230   10.3624  -31.4300 H   0  0  0  0  0  0  0  0  0  0  0  0
   -7.2806   10.3183  -28.2038 H   0  0  0  0  0  0  0  0  0  0  0  0
   -6.5173    9.4214  -35.2412 H   0  0  0  0  0  0  0  0  0  0  0  0
  1  2  1  0  0  0  0
  1  3  2  0  0  0  0
  2  4  2  0  0  0  0
  3  6  1  0  0  0  0
  4  5  1  0  0  0  0
  4 10  1  0  0  0  0
  5  6  2  0  0  0  0
  5 12  1  0  0  0  0
  6 14  1  0  0  0  0
  7 10  1  0  0  0  0
  7 11  2  0  0  0  0
  7 13  1  0  0  0  0
  8 10  1  0  0  0  0
  9 10  1  0  0  0  0
  1 15  1  0  0  0  0
  2 16  1  0  0  0  0
  3 17  1  0  0  0  0
  8 18  1  0  0  0  0
  8 19  1  0  0  0  0
  8 20  1  0  0  0  0
  9 21  1  0  0  0  0
  9 22  1  0  0  0  0
  9 23  1  0  0  0  0
 12 24  1  0  0  0  0
 13 25  1  0  0  0  0
M  END
> <id>
EN300-1913471

> <smiles>
CC(C)(C(=O)O)C=1C=CC=C(Br)C1O

> <MDLNUMBER>
MFCD19695786

> <IUPAC Name>
2-(3-bromo-2-hydroxyphenyl)-2-methylpropanoic acid

> <CAS>
1314703-57-5

> <URL>
https://www.enaminestore.com/catalog/EN300-1913471

> <ROCS_ShapeQuery>
_x1604L0AP1_x0771L0AP1

> <ROCS_TanimotoCombo>
0.896 

> <ROCS_ShapeTanimoto>
0.572 

> <ROCS_ColorTanimoto>
0.324 

> <ROCS_RefTversky>
0.504 

> <ROCS_RefColorTversky>
0.419 

> <ROCS_RefTverskyCombo>
0.924 

> <ROCS_FitTversky>
1.305 

> <ROCS_FitColorTversky>
0.589 

> <ROCS_FitTverskyCombo>
1.894 

> <ROCS_ColorScore>
-4.829

> <ROCS_Overlap>
856.003

> <ROCS_Rank>
311                 

$$$$
untitled-dbase-1016_664
  -OEChem-06042309053D

 30 30  0     1  0  0  0  0  0999 V2000
   -4.3024   12.5463  -30.7700 C   0  0  0  0  0  0  0  0  0  0  0  0
   -5.0150   11.6748  -31.5936 C   0  0  0  0  0  0  0  0  0  0  0  0
   -4.5631   12.5813  -29.4001 C   0  0  0  0  0  0  0  0  0  0  0  0
   -5.9884   10.8383  -31.0473 C   0  0  0  0  0  0  0  0  0  0  0  0
   -6.2492   10.8733  -29.6774 C   0  0  0  0  0  0  0  0  0  0  0  0
   -5.5365   11.7448  -28.8539 C   0  0  0  0  0  0  0  0  0  0  0  0
   -6.2066    7.5118  -33.9222 C   0  0  0  0  0  0  0  0  0  0  0  0
   -4.7061    6.5056  -32.3972 C   0  0  0  0  0  0  0  0  0  0  0  0
   -6.8286    8.8333  -34.3079 C   0  0  0  0  0  0  0  0  0  0  0  0
   -6.3355   10.0005  -33.4466 C   0  0  0  0  0  0  0  0  0  0  0  0
   -6.7520    9.8995  -31.9611 C   0  0  2  0  0  0  0  0  0  0  0  0
   -8.1977   10.1399  -31.8504 N   0  0  0  0  0  0  0  0  0  0  0  0
   -6.4608    6.4468  -34.4699 O   0  0  0  0  0  0  0  0  0  0  0  0
   -7.2056   10.0499  -29.1581 O   0  0  0  0  0  0  0  0  0  0  0  0
   -5.3504    7.6905  -32.8756 O   0  0  0  0  0  0  0  0  0  0  0  0
   -5.8605   11.8214  -26.9875 Br  0  0  0  0  0  0  0  0  0  0  0  0
   -3.5442   13.1973  -31.1952 H   0  0  0  0  0  0  0  0  0  0  0  0
   -4.8039   11.6523  -32.6594 H   0  0  0  0  0  0  0  0  0  0  0  0
   -3.9973   13.2667  -28.7742 H   0  0  0  0  0  0  0  0  0  0  0  0
   -4.0466    6.7598  -31.5638 H   0  0  0  0  0  0  0  0  0  0  0  0
   -4.1293    6.0512  -33.2067 H   0  0  0  0  0  0  0  0  0  0  0  0
   -5.4673    5.8007  -32.0546 H   0  0  0  0  0  0  0  0  0  0  0  0
   -6.5586    9.0062  -35.3566 H   0  0  0  0  0  0  0  0  0  0  0  0
   -7.9220    8.7675  -34.2681 H   0  0  0  0  0  0  0  0  0  0  0  0
   -5.2483   10.1147  -33.5416 H   0  0  0  0  0  0  0  0  0  0  0  0
   -6.7782   10.9149  -33.8651 H   0  0  0  0  0  0  0  0  0  0  0  0
   -6.5800    8.8651  -31.6363 H   0  0  0  0  0  0  0  0  0  0  0  0
   -8.6571    9.4904  -32.4390 H   0  0  0  0  0  0  0  0  0  0  0  0
   -8.4530   10.0072  -30.9035 H   0  0  0  0  0  0  0  0  0  0  0  0
   -7.2757   10.1837  -28.2007 H   0  0  0  0  0  0  0  0  0  0  0  0
  1  2  1  0  0  0  0
  1  3  2  0  0  0  0
  2  4  2  0  0  0  0
  3  6  1  0  0  0  0
  4  5  1  0  0  0  0
  4 11  1  0  0  0  0
  5  6  2  0  0  0  0
  5 14  1  0  0  0  0
  6 16  1  0  0  0  0
  7  9  1  0  0  0  0
  7 13  2  0  0  0  0
  7 15  1  0  0  0  0
  8 15  1  0  0  0  0
  9 10  1  0  0  0  0
 10 11  1  0  0  0  0
 11 12  1  0  0  0  0
  1 17  1  0  0  0  0
  2 18  1  0  0  0  0
  3 19  1  0  0  0  0
  8 20  1  0  0  0  0
  8 21  1  0  0  0  0
  8 22  1  0  0  0  0
  9 23  1  0  0  0  0
  9 24  1  0  0  0  0
 10 25  1  0  0  0  0
 10 26  1  0  0  0  0
 11 27  1  0  0  0  0
 12 28  1  0  0  0  0
 12 29  1  0  0  0  0
 14 30  1  0  0  0  0
M  END
> <id>
EN300-1935210

> <smiles>
COC(=O)CCC(N)C=1C=CC=C(Br)C1O

> <IUPAC Name>
methyl 4-amino-4-(3-bromo-2-hydroxyphenyl)butanoate

> <CAS>
1823447-93-3

> <URL>
https://www.enaminestore.com/catalog/EN300-1935210

> <ROCS_ShapeQuery>
_x1604L0AP1_x0771L0AP1

> <ROCS_TanimotoCombo>
0.896 

> <ROCS_ShapeTanimoto>
0.557 

> <ROCS_ColorTanimoto>
0.339 

> <ROCS_RefTversky>
0.510 

> <ROCS_RefColorTversky>
0.413 

> <ROCS_RefTverskyCombo>
0.923 

> <ROCS_FitTversky>
1.196 

> <ROCS_FitColorTversky>
0.655 

> <ROCS_FitTverskyCombo>
1.851 

> <ROCS_ColorScore>
-4.739

> <ROCS_Overlap>
867.796

> <ROCS_Rank>
312                 

$$$$
untitled-dbase-1953_85
  -OEChem-06042309053D

 22 22  0     0  0  0  0  0  0999 V2000
   -4.3540   12.1817  -31.1754 C   0  0  0  0  0  0  0  0  0  0  0  0
   -4.6063   12.4971  -29.8403 C   0  0  0  0  0  0  0  0  0  0  0  0
   -5.0725   11.1615  -31.7988 C   0  0  0  0  0  0  0  0  0  0  0  0
   -5.5770   11.7922  -29.1286 C   0  0  0  0  0  0  0  0  0  0  0  0
   -6.2955   10.7720  -29.7520 C   0  0  0  0  0  0  0  0  0  0  0  0
   -6.0432   10.4566  -31.0871 C   0  0  0  0  0  0  0  0  0  0  0  0
   -4.7650   10.8754  -33.1954 C   0  0  0  0  0  0  0  0  0  0  0  0
   -5.0328   13.1669  -27.2658 C   0  0  0  0  0  0  0  0  0  0  0  0
   -5.8509   10.9796  -34.2553 C   0  0  0  0  0  0  0  0  0  0  0  0
   -3.6227   10.5239  -33.5411 O   0  0  0  0  0  0  0  0  0  0  0  0
   -7.2390   10.0964  -29.0339 O   0  0  0  0  0  0  0  0  0  0  0  0
   -5.8118   12.1112  -27.8251 O   0  0  0  0  0  0  0  0  0  0  0  0
   -7.0471   11.3540  -33.7255 F   0  0  0  0  0  0  0  0  0  0  0  0
   -6.0678    9.7847  -34.8643 F   0  0  0  0  0  0  0  0  0  0  0  0
   -7.0309    9.0611  -31.9264 Br  0  0  0  0  0  0  0  0  0  0  0  0
   -3.5945   12.7390  -31.7180 H   0  0  0  0  0  0  0  0  0  0  0  0
   -4.0438   13.2934  -29.3604 H   0  0  0  0  0  0  0  0  0  0  0  0
   -5.3196   13.3190  -26.2224 H   0  0  0  0  0  0  0  0  0  0  0  0
   -5.1966   14.0840  -27.8372 H   0  0  0  0  0  0  0  0  0  0  0  0
   -3.9762   12.8933  -27.3147 H   0  0  0  0  0  0  0  0  0  0  0  0
   -5.5713   11.7234  -35.0066 H   0  0  0  0  0  0  0  0  0  0  0  0
   -7.2808   10.4435  -28.1299 H   0  0  0  0  0  0  0  0  0  0  0  0
  1  2  1  0  0  0  0
  1  3  2  0  0  0  0
  2  4  2  0  0  0  0
  3  6  1  0  0  0  0
  3  7  1  0  0  0  0
  4  5  1  0  0  0  0
  4 12  1  0  0  0  0
  5  6  2  0  0  0  0
  5 11  1  0  0  0  0
  6 15  1  0  0  0  0
  7  9  1  0  0  0  0
  7 10  2  0  0  0  0
  8 12  1  0  0  0  0
  9 13  1  0  0  0  0
  9 14  1  0  0  0  0
  1 16  1  0  0  0  0
  2 17  1  0  0  0  0
  8 18  1  0  0  0  0
  8 19  1  0  0  0  0
  8 20  1  0  0  0  0
  9 21  1  0  0  0  0
 11 22  1  0  0  0  0
M  END
> <id>
EN300-1965755

> <smiles>
COC=1C=CC(C(=O)C(F)F)=C(Br)C1O

> <IUPAC Name>
1-(2-bromo-3-hydroxy-4-methoxyphenyl)-2,2-difluoroethan-1-one

> <CAS>
2228503-13-5

> <URL>
https://www.enaminestore.com/catalog/EN300-1965755

> <ROCS_ShapeQuery>
_x1604L0AP1_x0771L0AP1

> <ROCS_TanimotoCombo>
0.896 

> <ROCS_ShapeTanimoto>
0.513 

> <ROCS_ColorTanimoto>
0.383 

> <ROCS_RefTversky>
0.480 

> <ROCS_RefColorTversky>
0.429 

> <ROCS_RefTverskyCombo>
0.909 

> <ROCS_FitTversky>
1.157 

> <ROCS_FitColorTversky>
0.780 

> <ROCS_FitTverskyCombo>
1.937 

> <ROCS_ColorScore>
-4.902

> <ROCS_Overlap>
815.286

> <ROCS_Rank>
313                 

$$$$
untitled-dbase-565_60
  -OEChem-06042309053D

 18 18  0     0  0  0  0  0  0999 V2000
   -4.5689   12.4524  -29.8358 C   0  0  0  0  0  0  0  0  0  0  0  0
   -5.5578   11.7688  -29.1285 C   0  0  0  0  0  0  0  0  0  0  0  0
   -5.0409   11.1130  -31.7903 C   0  0  0  0  0  0  0  0  0  0  0  0
   -4.3105   12.1246  -31.1668 C   0  0  0  0  0  0  0  0  0  0  0  0
   -6.2882   10.7572  -29.7520 C   0  0  0  0  0  0  0  0  0  0  0  0
   -6.0298   10.4293  -31.0830 C   0  0  0  0  0  0  0  0  0  0  0  0
   -3.2529   12.8560  -31.9219 C   0  0  0  0  0  0  0  0  0  0  0  0
   -6.1288   13.3132  -33.4749 N   0  5  0  0  0  0  0  0  0  0  0  0
   -3.7792   13.5066  -33.1285 N   0  0  0  0  0  0  0  0  0  0  0  0
   -5.0046   13.4025  -33.3041 N   0  3  0  0  0  0  0  0  0  0  0  0
   -7.2466   10.1072  -29.0327 O   0  0  0  0  0  0  0  0  0  0  0  0
   -7.0016    9.0594  -31.9615 Br  0  0  0  0  0  0  0  0  0  0  0  0
   -4.0052   13.2390  -29.3409 H   0  0  0  0  0  0  0  0  0  0  0  0
   -5.7535   12.0298  -28.0918 H   0  0  0  0  0  0  0  0  0  0  0  0
   -4.8329   10.8644  -32.8289 H   0  0  0  0  0  0  0  0  0  0  0  0
   -2.7766   13.6169  -31.2855 H   0  0  0  0  0  0  0  0  0  0  0  0
   -2.4455   12.1708  -32.2196 H   0  0  0  0  0  0  0  0  0  0  0  0
   -7.6759    9.4324  -29.5812 H   0  0  0  0  0  0  0  0  0  0  0  0
  1  2  1  0  0  0  0
  1  4  2  0  0  0  0
  2  5  2  0  0  0  0
  3  4  1  0  0  0  0
  3  6  2  0  0  0  0
  4  7  1  0  0  0  0
  5  6  1  0  0  0  0
  5 11  1  0  0  0  0
  6 12  1  0  0  0  0
  7  9  1  0  0  0  0
  8 10  2  0  0  0  0
  9 10  2  0  0  0  0
  1 13  1  0  0  0  0
  2 14  1  0  0  0  0
  3 15  1  0  0  0  0
  7 16  1  0  0  0  0
  7 17  1  0  0  0  0
 11 18  1  0  0  0  0
M  CHG  2   8  -1  10   1
M  END
> <id>
EN300-1906355

> <smiles>
OC=1C=CC(CN=[N+]=[N-])=CC1Br

> <IUPAC Name>
4-(azidomethyl)-2-bromophenol

> <CAS>
2228468-62-8

> <URL>
https://www.enaminestore.com/catalog/EN300-1906355

> <ROCS_ShapeQuery>
_x1604L0AP1_x0771L0AP1

> <ROCS_TanimotoCombo>
0.896 

> <ROCS_ShapeTanimoto>
0.445 

> <ROCS_ColorTanimoto>
0.451 

> <ROCS_RefTversky>
0.411 

> <ROCS_RefColorTversky>
0.431 

> <ROCS_RefTverskyCombo>
0.842 

> <ROCS_FitTversky>
1.225 

> <ROCS_FitColorTversky>
1.113 

> <ROCS_FitTverskyCombo>
2.337 

> <ROCS_ColorScore>
-4.879

> <ROCS_Overlap>
696.322

> <ROCS_Rank>
314                 

$$$$
untitled-dbase-1702_107
  -OEChem-06042309053D

 20 20  0     0  0  0  0  0  0999 V2000
   -4.6188   12.4982  -29.8577 C   0  0  0  0  0  0  0  0  0  0  0  0
   -5.5873   11.7949  -29.1414 C   0  0  0  0  0  0  0  0  0  0  0  0
   -5.0826   11.1504  -31.8084 C   0  0  0  0  0  0  0  0  0  0  0  0
   -4.3665   12.1760  -31.1912 C   0  0  0  0  0  0  0  0  0  0  0  0
   -6.3034   10.7693  -29.7586 C   0  0  0  0  0  0  0  0  0  0  0  0
   -6.0511   10.4470  -31.0921 C   0  0  0  0  0  0  0  0  0  0  0  0
   -3.3306   12.9284  -31.9558 C   0  0  0  0  0  0  0  0  0  0  0  0
   -2.1914   13.4480  -31.0763 C   0  0  0  0  0  0  0  0  0  0  0  0
   -7.2419   10.1002  -29.0307 O   0  0  0  0  0  0  0  0  0  0  0  0
   -2.7180   14.2976  -30.0651 O   0  0  0  0  0  0  0  0  0  0  0  0
   -7.0038    9.0585  -31.9622 Br  0  0  0  0  0  0  0  0  0  0  0  0
   -4.0661   13.2955  -29.3676 H   0  0  0  0  0  0  0  0  0  0  0  0
   -5.7784   12.0517  -28.1028 H   0  0  0  0  0  0  0  0  0  0  0  0
   -4.8794   10.9063  -32.8489 H   0  0  0  0  0  0  0  0  0  0  0  0
   -2.9108   12.2922  -32.7507 H   0  0  0  0  0  0  0  0  0  0  0  0
   -3.7976   13.7855  -32.4651 H   0  0  0  0  0  0  0  0  0  0  0  0
   -1.6858   12.6122  -30.5819 H   0  0  0  0  0  0  0  0  0  0  0  0
   -1.4547   14.0091  -31.6606 H   0  0  0  0  0  0  0  0  0  0  0  0
   -7.6630    9.4173  -29.5755 H   0  0  0  0  0  0  0  0  0  0  0  0
   -1.9639   14.6017  -29.5348 H   0  0  0  0  0  0  0  0  0  0  0  0
  1  2  1  0  0  0  0
  1  4  2  0  0  0  0
  2  5  2  0  0  0  0
  3  4  1  0  0  0  0
  3  6  2  0  0  0  0
  4  7  1  0  0  0  0
  5  6  1  0  0  0  0
  5  9  1  0  0  0  0
  6 11  1  0  0  0  0
  7  8  1  0  0  0  0
  8 10  1  0  0  0  0
  1 12  1  0  0  0  0
  2 13  1  0  0  0  0
  3 14  1  0  0  0  0
  7 15  1  0  0  0  0
  7 16  1  0  0  0  0
  8 17  1  0  0  0  0
  8 18  1  0  0  0  0
  9 19  1  0  0  0  0
 10 20  1  0  0  0  0
M  END
> <id>
EN300-1898192

> <smiles>
OCCC=1C=CC(O)=C(Br)C1

> <MDLNUMBER>
MFCD00033225

> <IUPAC Name>
2-bromo-4-(2-hydroxyethyl)phenol

> <CAS>
196081-78-4

> <URL>
https://www.enaminestore.com/catalog/EN300-1898192

> <ROCS_ShapeQuery>
_x1604L0AP1_x0771L0AP1

> <ROCS_TanimotoCombo>
0.896 

> <ROCS_ShapeTanimoto>
0.515 

> <ROCS_ColorTanimoto>
0.380 

> <ROCS_RefTversky>
0.445 

> <ROCS_RefColorTversky>
0.427 

> <ROCS_RefTverskyCombo>
0.872 

> <ROCS_FitTversky>
1.447 

> <ROCS_FitColorTversky>
0.776 

> <ROCS_FitTverskyCombo>
2.223 

> <ROCS_ColorScore>
-4.878

> <ROCS_Overlap>
751.368

> <ROCS_Rank>
315                 

$$$$
untitled-dbase-2056_840
  -OEChem-06042309053D

 31 32  0     0  0  0  0  0  0999 V2000
   -2.3877   14.2026  -31.8845 C   0  0  0  0  0  0  0  0  0  0  0  0
   -3.1257   14.8190  -30.8740 C   0  0  0  0  0  0  0  0  0  0  0  0
   -2.6010   12.8567  -32.1821 C   0  0  0  0  0  0  0  0  0  0  0  0
   -4.0769   14.0893  -30.1610 C   0  0  0  0  0  0  0  0  0  0  0  0
   -3.5523   12.1270  -31.4691 C   0  0  0  0  0  0  0  0  0  0  0  0
   -6.3296   10.1752  -32.9552 C   0  0  0  0  0  0  0  0  0  0  0  0
   -5.8906   10.0307  -34.2712 C   0  0  0  0  0  0  0  0  0  0  0  0
   -6.7766    7.8035  -32.8438 C   0  0  0  0  0  0  0  0  0  0  0  0
   -4.2903   12.7433  -30.4586 C   0  0  0  0  0  0  0  0  0  0  0  0
   -6.7726    9.0616  -32.2414 C   0  0  0  0  0  0  0  0  0  0  0  0
   -6.3376    7.6590  -34.1599 C   0  0  0  0  0  0  0  0  0  0  0  0
   -5.8946    8.7726  -34.8736 C   0  0  0  0  0  0  0  0  0  0  0  0
   -6.8016   10.1346  -29.9702 C   0  0  0  0  0  0  0  0  0  0  0  0
   -5.3071   11.9625  -29.6964 C   0  0  0  0  0  0  0  0  0  0  0  0
   -7.2162    9.2084  -30.9074 N   0  0  0  0  0  0  0  0  0  0  0  0
   -7.1901   10.2579  -28.8150 O   0  0  0  0  0  0  0  0  0  0  0  0
   -6.3525    6.4161  -34.7198 O   0  0  0  0  0  0  0  0  0  0  0  0
   -5.8449   10.9450  -30.5321 O   0  0  0  0  0  0  0  0  0  0  0  0
   -5.2913    8.6141  -36.6633 Br  0  0  0  0  0  0  0  0  0  0  0  0
   -1.6480   14.7713  -32.4404 H   0  0  0  0  0  0  0  0  0  0  0  0
   -2.9605   15.8673  -30.6429 H   0  0  0  0  0  0  0  0  0  0  0  0
   -2.0274   12.3768  -32.9695 H   0  0  0  0  0  0  0  0  0  0  0  0
   -4.6472   14.5778  -29.3752 H   0  0  0  0  0  0  0  0  0  0  0  0
   -3.7116   11.0788  -31.7078 H   0  0  0  0  0  0  0  0  0  0  0  0
   -6.3196   11.1599  -32.4949 H   0  0  0  0  0  0  0  0  0  0  0  0
   -5.5478   10.9099  -34.8109 H   0  0  0  0  0  0  0  0  0  0  0  0
   -7.1203    6.9324  -32.2907 H   0  0  0  0  0  0  0  0  0  0  0  0
   -4.8664   11.4903  -28.8078 H   0  0  0  0  0  0  0  0  0  0  0  0
   -6.1274   12.6077  -29.3534 H   0  0  0  0  0  0  0  0  0  0  0  0
   -7.9287    8.5510  -30.5997 H   0  0  0  0  0  0  0  0  0  0  0  0
   -6.0245    6.4563  -35.6315 H   0  0  0  0  0  0  0  0  0  0  0  0
  1  2  2  0  0  0  0
  1  3  1  0  0  0  0
  2  4  1  0  0  0  0
  3  5  2  0  0  0  0
  4  9  2  0  0  0  0
  5  9  1  0  0  0  0
  6  7  1  0  0  0  0
  6 10  2  0  0  0  0
  7 12  2  0  0  0  0
  8 10  1  0  0  0  0
  8 11  2  0  0  0  0
  9 14  1  0  0  0  0
 10 15  1  0  0  0  0
 11 12  1  0  0  0  0
 11 17  1  0  0  0  0
 12 19  1  0  0  0  0
 13 15  1  0  0  0  0
 13 16  2  0  0  0  0
 13 18  1  0  0  0  0
 14 18  1  0  0  0  0
  1 20  1  0  0  0  0
  2 21  1  0  0  0  0
  3 22  1  0  0  0  0
  4 23  1  0  0  0  0
  5 24  1  0  0  0  0
  6 25  1  0  0  0  0
  7 26  1  0  0  0  0
  8 27  1  0  0  0  0
 14 28  1  0  0  0  0
 14 29  1  0  0  0  0
 15 30  1  0  0  0  0
 17 31  1  0  0  0  0
M  END
> <id>
EN300-28294194

> <smiles>
OC=1C=C(NC(=O)OCC=2C=CC=CC2)C=CC1Br

> <IUPAC Name>
benzyl N-(4-bromo-3-hydroxyphenyl)carbamate

> <CAS>
2183464-42-6

> <URL>
https://www.enaminestore.com/catalog/EN300-28294194

> <ROCS_ShapeQuery>
_x1604L0AP1_x0771L0AP1

> <ROCS_TanimotoCombo>
0.896 

> <ROCS_ShapeTanimoto>
0.649 

> <ROCS_ColorTanimoto>
0.247 

> <ROCS_RefTversky>
0.596 

> <ROCS_RefColorTversky>
0.323 

> <ROCS_RefTverskyCombo>
0.920 

> <ROCS_FitTversky>
1.156 

> <ROCS_FitColorTversky>
0.512 

> <ROCS_FitTverskyCombo>
1.668 

> <ROCS_ColorScore>
-3.704

> <ROCS_Overlap>
1019.634

> <ROCS_Rank>
316                 

$$$$
untitled-dbase-840_76
  -OEChem-06042309053D

 20 20  0     1  0  0  0  0  0999 V2000
   -4.5641   12.4445  -29.8148 C   0  0  0  0  0  0  0  0  0  0  0  0
   -5.5578   11.7604  -29.1148 C   0  0  0  0  0  0  0  0  0  0  0  0
   -5.0338   11.1177  -31.7785 C   0  0  0  0  0  0  0  0  0  0  0  0
   -4.3021   12.1232  -31.1467 C   0  0  0  0  0  0  0  0  0  0  0  0
   -6.2895   10.7548  -29.7466 C   0  0  0  0  0  0  0  0  0  0  0  0
   -6.0275   10.4335  -31.0784 C   0  0  0  0  0  0  0  0  0  0  0  0
   -2.5819   13.9598  -31.0649 C   0  0  0  0  0  0  0  0  0  0  0  0
   -3.2393   12.8552  -31.8940 C   0  0  2  0  0  0  0  0  0  0  0  0
   -7.2526   10.1041  -29.0343 O   0  0  0  0  0  0  0  0  0  0  0  0
   -3.8062   13.4441  -33.0709 O   0  0  0  0  0  0  0  0  0  0  0  0
   -3.5278   14.8802  -30.7261 F   0  0  0  0  0  0  0  0  0  0  0  0
   -7.0009    9.0719  -31.9680 Br  0  0  0  0  0  0  0  0  0  0  0  0
   -3.9994   13.2264  -29.3136 H   0  0  0  0  0  0  0  0  0  0  0  0
   -5.7562   12.0163  -28.0774 H   0  0  0  0  0  0  0  0  0  0  0  0
   -4.8229   10.8742  -32.8176 H   0  0  0  0  0  0  0  0  0  0  0  0
   -1.8062   14.4828  -31.6326 H   0  0  0  0  0  0  0  0  0  0  0  0
   -2.1528   13.5773  -30.1335 H   0  0  0  0  0  0  0  0  0  0  0  0
   -2.4541   12.1679  -32.2491 H   0  0  0  0  0  0  0  0  0  0  0  0
   -7.6823    9.4339  -29.5880 H   0  0  0  0  0  0  0  0  0  0  0  0
   -4.4963   14.0484  -32.7631 H   0  0  0  0  0  0  0  0  0  0  0  0
  1  2  1  0  0  0  0
  1  4  2  0  0  0  0
  2  5  2  0  0  0  0
  3  4  1  0  0  0  0
  3  6  2  0  0  0  0
  4  8  1  0  0  0  0
  5  6  1  0  0  0  0
  5  9  1  0  0  0  0
  6 12  1  0  0  0  0
  7  8  1  0  0  0  0
  7 11  1  0  0  0  0
  8 10  1  0  0  0  0
  1 13  1  0  0  0  0
  2 14  1  0  0  0  0
  3 15  1  0  0  0  0
  7 16  1  0  0  0  0
  7 17  1  0  0  0  0
  8 18  1  0  0  0  0
  9 19  1  0  0  0  0
 10 20  1  0  0  0  0
M  END
> <id>
EN300-1906354

> <smiles>
OC(CF)C=1C=CC(O)=C(Br)C1

> <IUPAC Name>
2-bromo-4-(2-fluoro-1-hydroxyethyl)phenol

> <CAS>
2228579-22-2

> <URL>
https://www.enaminestore.com/catalog/EN300-1906354

> <ROCS_ShapeQuery>
_x1604L0AP1_x0771L0AP1

> <ROCS_TanimotoCombo>
0.896 

> <ROCS_ShapeTanimoto>
0.515 

> <ROCS_ColorTanimoto>
0.380 

> <ROCS_RefTversky>
0.453 

> <ROCS_RefColorTversky>
0.427 

> <ROCS_RefTverskyCombo>
0.881 

> <ROCS_FitTversky>
1.359 

> <ROCS_FitColorTversky>
0.776 

> <ROCS_FitTverskyCombo>
2.135 

> <ROCS_ColorScore>
-4.877

> <ROCS_Overlap>
767.635

> <ROCS_Rank>
317                 

$$$$
untitled-dbase-1237_32
  -OEChem-06042309053D

 21 21  0     0  0  0  0  0  0999 V2000
   -4.3010   12.2014  -31.1241 C   0  0  0  0  0  0  0  0  0  0  0  0
   -5.0526   11.2252  -31.7781 C   0  0  0  0  0  0  0  0  0  0  0  0
   -4.5336   12.4739  -29.7760 C   0  0  0  0  0  0  0  0  0  0  0  0
   -6.0368   10.5215  -31.0841 C   0  0  0  0  0  0  0  0  0  0  0  0
   -6.2695   10.7940  -29.7360 C   0  0  0  0  0  0  0  0  0  0  0  0
   -5.5178   11.7702  -29.0819 C   0  0  0  0  0  0  0  0  0  0  0  0
   -7.0374    9.7789  -33.2814 C   0  0  0  0  0  0  0  0  0  0  0  0
   -6.8307    9.4813  -31.8038 C   0  0  0  0  0  0  0  0  0  0  0  0
   -6.5525    8.7374  -34.2499 C   0  0  0  0  0  0  0  0  0  0  0  0
   -7.5681   10.8140  -33.6819 O   0  0  0  0  0  0  0  0  0  0  0  0
   -7.2370   10.0982  -29.0710 O   0  0  0  0  0  0  0  0  0  0  0  0
   -5.9956    7.6767  -33.6134 F   0  0  0  0  0  0  0  0  0  0  0  0
   -7.5556    8.2504  -35.0230 F   0  0  0  0  0  0  0  0  0  0  0  0
   -5.6115    9.2330  -35.0921 F   0  0  0  0  0  0  0  0  0  0  0  0
   -5.8028   12.1691  -27.2507 Br  0  0  0  0  0  0  0  0  0  0  0  0
   -3.5343   12.7491  -31.6643 H   0  0  0  0  0  0  0  0  0  0  0  0
   -4.8632   11.0177  -32.8279 H   0  0  0  0  0  0  0  0  0  0  0  0
   -3.9376   13.2378  -29.2831 H   0  0  0  0  0  0  0  0  0  0  0  0
   -6.3360    8.5014  -31.7234 H   0  0  0  0  0  0  0  0  0  0  0  0
   -7.8229    9.3717  -31.3403 H   0  0  0  0  0  0  0  0  0  0  0  0
   -7.2846   10.3931  -28.1489 H   0  0  0  0  0  0  0  0  0  0  0  0
  1  2  1  0  0  0  0
  1  3  2  0  0  0  0
  2  4  2  0  0  0  0
  3  6  1  0  0  0  0
  4  5  1  0  0  0  0
  4  8  1  0  0  0  0
  5  6  2  0  0  0  0
  5 11  1  0  0  0  0
  6 15  1  0  0  0  0
  7  8  1  0  0  0  0
  7  9  1  0  0  0  0
  7 10  2  0  0  0  0
  9 12  1  0  0  0  0
  9 13  1  0  0  0  0
  9 14  1  0  0  0  0
  1 16  1  0  0  0  0
  2 17  1  0  0  0  0
  3 18  1  0  0  0  0
  8 19  1  0  0  0  0
  8 20  1  0  0  0  0
 11 21  1  0  0  0  0
M  END
> <id>
EN300-1957648

> <smiles>
OC=1C(Br)=CC=CC1CC(=O)C(F)(F)F

> <IUPAC Name>
3-(3-bromo-2-hydroxyphenyl)-1,1,1-trifluoropropan-2-one

> <CAS>
2229318-21-0

> <URL>
https://www.enaminestore.com/catalog/EN300-1957648

> <ROCS_ShapeQuery>
_x1604L0AP1_x0771L0AP1

> <ROCS_TanimotoCombo>
0.895 

> <ROCS_ShapeTanimoto>
0.592 

> <ROCS_ColorTanimoto>
0.303 

> <ROCS_RefTversky>
0.527 

> <ROCS_RefColorTversky>
0.342 

> <ROCS_RefTverskyCombo>
0.869 

> <ROCS_FitTversky>
1.266 

> <ROCS_FitColorTversky>
0.728 

> <ROCS_FitTverskyCombo>
1.994 

> <ROCS_ColorScore>
-3.886

> <ROCS_Overlap>
895.539

> <ROCS_Rank>
318                 

$$$$
untitled-dbase-1692_152
  -OEChem-06042309053D

 28 29  0     0  0  0  0  0  0999 V2000
   -2.5458   14.0548  -31.1355 C   0  0  0  0  0  0  0  0  0  0  0  0
   -4.9510   11.1572  -31.7068 C   0  0  0  0  0  0  0  0  0  0  0  0
   -4.6189   12.5540  -29.7638 C   0  0  0  0  0  0  0  0  0  0  0  0
   -4.2889   12.2095  -31.0745 C   0  0  0  0  0  0  0  0  0  0  0  0
   -5.9434   10.4495  -31.0284 C   0  0  0  0  0  0  0  0  0  0  0  0
   -6.2734   10.7940  -29.7177 C   0  0  0  0  0  0  0  0  0  0  0  0
   -5.6112   11.8463  -29.0854 C   0  0  0  0  0  0  0  0  0  0  0  0
   -3.4090   13.1272  -33.3084 C   0  0  0  0  0  0  0  0  0  0  0  0
   -2.3813   12.1726  -32.7960 C   0  0  0  0  0  0  0  0  0  0  0  0
   -3.2277   12.9643  -31.7993 C   0  0  0  0  0  0  0  0  0  0  0  0
   -6.7028    8.9497  -34.0022 C   0  0  0  0  0  0  0  0  0  0  0  0
   -7.2926    9.7404  -32.8539 C   0  0  0  0  0  0  0  0  0  0  0  0
   -1.9992   14.9289  -30.6033 N   0  0  0  0  0  0  0  0  0  0  0  0
   -7.2469   10.0898  -29.0713 O   0  0  0  0  0  0  0  0  0  0  0  0
   -6.5817    9.4242  -31.6586 O   0  0  0  0  0  0  0  0  0  0  0  0
   -6.0304   12.3431  -27.3045 Br  0  0  0  0  0  0  0  0  0  0  0  0
   -4.6956   10.8858  -32.7283 H   0  0  0  0  0  0  0  0  0  0  0  0
   -4.0968   13.3754  -29.2776 H   0  0  0  0  0  0  0  0  0  0  0  0
   -3.0570   14.0344  -33.7872 H   0  0  0  0  0  0  0  0  0  0  0  0
   -4.2947   12.7090  -33.7742 H   0  0  0  0  0  0  0  0  0  0  0  0
   -2.5759   11.1124  -32.9150 H   0  0  0  0  0  0  0  0  0  0  0  0
   -1.3381   12.4376  -32.9296 H   0  0  0  0  0  0  0  0  0  0  0  0
   -5.6481    9.1997  -34.1470 H   0  0  0  0  0  0  0  0  0  0  0  0
   -6.7887    7.8743  -33.8148 H   0  0  0  0  0  0  0  0  0  0  0  0
   -7.2453    9.1551  -34.9310 H   0  0  0  0  0  0  0  0  0  0  0  0
   -8.3475    9.4856  -32.7145 H   0  0  0  0  0  0  0  0  0  0  0  0
   -7.2052   10.8145  -33.0424 H   0  0  0  0  0  0  0  0  0  0  0  0
   -7.5997    9.3988  -29.6524 H   0  0  0  0  0  0  0  0  0  0  0  0
  1 10  1  0  0  0  0
  1 13  3  0  0  0  0
  2  4  1  0  0  0  0
  2  5  2  0  0  0  0
  3  4  2  0  0  0  0
  3  7  1  0  0  0  0
  4 10  1  0  0  0  0
  5  6  1  0  0  0  0
  5 15  1  0  0  0  0
  6  7  2  0  0  0  0
  6 14  1  0  0  0  0
  7 16  1  0  0  0  0
  8  9  1  0  0  0  0
  8 10  1  0  0  0  0
  9 10  1  0  0  0  0
 11 12  1  0  0  0  0
 12 15  1  0  0  0  0
  2 17  1  0  0  0  0
  3 18  1  0  0  0  0
  8 19  1  0  0  0  0
  8 20  1  0  0  0  0
  9 21  1  0  0  0  0
  9 22  1  0  0  0  0
 11 23  1  0  0  0  0
 11 24  1  0  0  0  0
 11 25  1  0  0  0  0
 12 26  1  0  0  0  0
 12 27  1  0  0  0  0
 14 28  1  0  0  0  0
M  END
> <id>
EN300-1920249

> <smiles>
CCOC=1C=C(C=C(Br)C1O)C2(CC2)C#N

> <IUPAC Name>
1-(3-bromo-5-ethoxy-4-hydroxyphenyl)cyclopropane-1-carbonitrile

> <CAS>
2228782-32-7

> <URL>
https://www.enaminestore.com/catalog/EN300-1920249

> <ROCS_ShapeQuery>
_x1604L0AP1_x0771L0AP1

> <ROCS_TanimotoCombo>
0.895 

> <ROCS_ShapeTanimoto>
0.614 

> <ROCS_ColorTanimoto>
0.281 

> <ROCS_RefTversky>
0.546 

> <ROCS_RefColorTversky>
0.340 

> <ROCS_RefTverskyCombo>
0.886 

> <ROCS_FitTversky>
1.255 

> <ROCS_FitColorTversky>
0.618 

> <ROCS_FitTverskyCombo>
1.873 

> <ROCS_ColorScore>
-3.883

> <ROCS_Overlap>
929.625

> <ROCS_Rank>
319                 

$$$$
untitled-dbase-336_209
  -OEChem-06042309053D

 29 30  0     0  0  0  0  0  0999 V2000
   -2.3822   15.2968  -30.7762 C   0  0  0  0  0  0  0  0  0  0  0  0
   -2.7628   14.2495  -31.2227 C   0  0  0  0  0  0  0  0  0  0  0  0
   -5.1617   11.4123  -31.7666 C   0  0  0  0  0  0  0  0  0  0  0  0
   -4.4020   12.3220  -29.6613 C   0  0  0  0  0  0  0  0  0  0  0  0
   -4.2847   12.2246  -31.0478 C   0  0  0  0  0  0  0  0  0  0  0  0
   -6.1562   10.6975  -31.0989 C   0  0  0  0  0  0  0  0  0  0  0  0
   -6.2735   10.7949  -29.7124 C   0  0  0  0  0  0  0  0  0  0  0  0
   -5.3965   11.6071  -28.9936 C   0  0  0  0  0  0  0  0  0  0  0  0
   -3.2061   12.8815  -33.2864 C   0  0  0  0  0  0  0  0  0  0  0  0
   -2.1621   12.1645  -32.4952 C   0  0  0  0  0  0  0  0  0  0  0  0
   -3.2215   12.9869  -31.7615 C   0  0  0  0  0  0  0  0  0  0  0  0
   -6.7714    9.0410  -34.0332 C   0  0  0  0  0  0  0  0  0  0  0  0
   -6.4234    8.8500  -32.5724 C   0  0  0  0  0  0  0  0  0  0  0  0
   -7.2528   10.0880  -29.0778 O   0  0  0  0  0  0  0  0  0  0  0  0
   -7.0056    9.9082  -31.8139 O   0  0  0  0  0  0  0  0  0  0  0  0
   -5.5231   11.7639  -27.1085 Br  0  0  0  0  0  0  0  0  0  0  0  0
   -2.0446   16.2259  -30.3799 H   0  0  0  0  0  0  0  0  0  0  0  0
   -5.0724   11.3338  -32.8474 H   0  0  0  0  0  0  0  0  0  0  0  0
   -3.7133   12.9569  -29.1082 H   0  0  0  0  0  0  0  0  0  0  0  0
   -2.8918   13.7389  -33.8715 H   0  0  0  0  0  0  0  0  0  0  0  0
   -3.9665   12.2814  -33.7742 H   0  0  0  0  0  0  0  0  0  0  0  0
   -2.2209   11.0827  -32.4486 H   0  0  0  0  0  0  0  0  0  0  0  0
   -1.1458   12.5398  -32.5474 H   0  0  0  0  0  0  0  0  0  0  0  0
   -7.8547    9.0219  -34.1820 H   0  0  0  0  0  0  0  0  0  0  0  0
   -6.3808    9.9953  -34.4016 H   0  0  0  0  0  0  0  0  0  0  0  0
   -6.3170    8.2540  -34.6442 H   0  0  0  0  0  0  0  0  0  0  0  0
   -5.3387    8.8702  -32.4306 H   0  0  0  0  0  0  0  0  0  0  0  0
   -6.8151    7.8966  -32.2058 H   0  0  0  0  0  0  0  0  0  0  0  0
   -7.7681    9.5799  -29.7228 H   0  0  0  0  0  0  0  0  0  0  0  0
  1  2  3  0  0  0  0
  2 11  1  0  0  0  0
  3  5  1  0  0  0  0
  3  6  2  0  0  0  0
  4  5  2  0  0  0  0
  4  8  1  0  0  0  0
  5 11  1  0  0  0  0
  6  7  1  0  0  0  0
  6 15  1  0  0  0  0
  7  8  2  0  0  0  0
  7 14  1  0  0  0  0
  8 16  1  0  0  0  0
  9 10  1  0  0  0  0
  9 11  1  0  0  0  0
 10 11  1  0  0  0  0
 12 13  1  0  0  0  0
 13 15  1  0  0  0  0
  1 17  1  0  0  0  0
  3 18  1  0  0  0  0
  4 19  1  0  0  0  0
  9 20  1  0  0  0  0
  9 21  1  0  0  0  0
 10 22  1  0  0  0  0
 10 23  1  0  0  0  0
 12 24  1  0  0  0  0
 12 25  1  0  0  0  0
 12 26  1  0  0  0  0
 13 27  1  0  0  0  0
 13 28  1  0  0  0  0
 14 29  1  0  0  0  0
M  END
> <id>
EN300-1920247

> <smiles>
CCOC=1C=C(C=C(Br)C1O)C2(CC2)C#C

> <IUPAC Name>
2-bromo-6-ethoxy-4-(1-ethynylcyclopropyl)phenol

> <CAS>
2228301-23-1

> <URL>
https://www.enaminestore.com/catalog/EN300-1920247

> <ROCS_ShapeQuery>
_x1604L0AP1_x0771L0AP1

> <ROCS_TanimotoCombo>
0.895 

> <ROCS_ShapeTanimoto>
0.615 

> <ROCS_ColorTanimoto>
0.281 

> <ROCS_RefTversky>
0.546 

> <ROCS_RefColorTversky>
0.340 

> <ROCS_RefTverskyCombo>
0.886 

> <ROCS_FitTversky>
1.256 

> <ROCS_FitColorTversky>
0.617 

> <ROCS_FitTverskyCombo>
1.874 

> <ROCS_ColorScore>
-3.880

> <ROCS_Overlap>
929.370

> <ROCS_Rank>
320                 

$$$$
untitled-dbase-302_79
  -OEChem-06042309053D

 23 23  0     1  0  0  0  0  0999 V2000
   -4.3211   12.0704  -31.2863 C   0  0  0  0  0  0  0  0  0  0  0  0
   -4.9703   10.9679  -31.8418 C   0  0  0  0  0  0  0  0  0  0  0  0
   -4.6491   12.4977  -29.9997 C   0  0  0  0  0  0  0  0  0  0  0  0
   -5.9477   10.2927  -31.1106 C   0  0  0  0  0  0  0  0  0  0  0  0
   -6.2758   10.7201  -29.8240 C   0  0  0  0  0  0  0  0  0  0  0  0
   -5.6265   11.8226  -29.2685 C   0  0  0  0  0  0  0  0  0  0  0  0
   -6.6312    9.1155  -31.7248 C   0  0  0  0  0  0  0  0  0  0  0  0
   -6.1269    8.8079  -33.1461 C   0  0  2  0  0  0  0  0  0  0  0  0
   -6.7944    9.6844  -34.1885 C   0  0  0  0  0  0  0  0  0  0  0  0
   -7.2353   10.0502  -29.1218 O   0  0  0  0  0  0  0  0  0  0  0  0
   -6.4194    7.4452  -33.4498 O   0  0  0  0  0  0  0  0  0  0  0  0
   -6.3786    9.3543  -35.4312 F   0  0  0  0  0  0  0  0  0  0  0  0
   -6.4927   10.9869  -33.9937 F   0  0  0  0  0  0  0  0  0  0  0  0
   -8.1383    9.5615  -34.1558 F   0  0  0  0  0  0  0  0  0  0  0  0
   -6.0430   12.4337  -27.5230 Br  0  0  0  0  0  0  0  0  0  0  0  0
   -3.5597   12.5958  -31.8554 H   0  0  0  0  0  0  0  0  0  0  0  0
   -4.7069   10.6402  -32.8439 H   0  0  0  0  0  0  0  0  0  0  0  0
   -4.1320   13.3586  -29.5833 H   0  0  0  0  0  0  0  0  0  0  0  0
   -7.7183    9.3001  -31.7483 H   0  0  0  0  0  0  0  0  0  0  0  0
   -6.4938    8.2267  -31.0854 H   0  0  0  0  0  0  0  0  0  0  0  0
   -5.0402    8.9392  -33.2022 H   0  0  0  0  0  0  0  0  0  0  0  0
   -7.3554   10.4576  -28.2506 H   0  0  0  0  0  0  0  0  0  0  0  0
   -6.0898    7.2867  -34.3476 H   0  0  0  0  0  0  0  0  0  0  0  0
  1  2  1  0  0  0  0
  1  3  2  0  0  0  0
  2  4  2  0  0  0  0
  3  6  1  0  0  0  0
  4  5  1  0  0  0  0
  4  7  1  0  0  0  0
  5  6  2  0  0  0  0
  5 10  1  0  0  0  0
  6 15  1  0  0  0  0
  7  8  1  0  0  0  0
  8  9  1  0  0  0  0
  8 11  1  0  0  0  0
  9 12  1  0  0  0  0
  9 13  1  0  0  0  0
  9 14  1  0  0  0  0
  1 16  1  0  0  0  0
  2 17  1  0  0  0  0
  3 18  1  0  0  0  0
  7 19  1  0  0  0  0
  7 20  1  0  0  0  0
  8 21  1  0  0  0  0
 10 22  1  0  0  0  0
 11 23  1  0  0  0  0
M  END
> <id>
EN300-1957653

> <smiles>
OC(CC=1C=CC=C(Br)C1O)C(F)(F)F

> <IUPAC Name>
2-bromo-6-(3,3,3-trifluoro-2-hydroxypropyl)phenol

> <CAS>
2228312-78-3

> <URL>
https://www.enaminestore.com/catalog/EN300-1957653

> <ROCS_ShapeQuery>
_x1604L0AP1_x0771L0AP1

> <ROCS_TanimotoCombo>
0.895 

> <ROCS_ShapeTanimoto>
0.592 

> <ROCS_ColorTanimoto>
0.303 

> <ROCS_RefTversky>
0.526 

> <ROCS_RefColorTversky>
0.360 

> <ROCS_RefTverskyCombo>
0.886 

> <ROCS_FitTversky>
1.272 

> <ROCS_FitColorTversky>
0.655 

> <ROCS_FitTverskyCombo>
1.926 

> <ROCS_ColorScore>
-4.114

> <ROCS_Overlap>
894.093

> <ROCS_Rank>
321                 

$$$$
untitled-dbase-527_1
  -OEChem-06042309053D

 25 26  0     1  0  0  0  0  0999 V2000
   -4.3143   12.2356  -31.1373 C   0  0  0  0  0  0  0  0  0  0  0  0
   -5.0936   11.3101  -31.8313 C   0  0  0  0  0  0  0  0  0  0  0  0
   -4.5117   12.4274  -29.7698 C   0  0  0  0  0  0  0  0  0  0  0  0
   -6.0704   10.5766  -31.1580 C   0  0  0  0  0  0  0  0  0  0  0  0
   -6.2679   10.7684  -29.7906 C   0  0  0  0  0  0  0  0  0  0  0  0
   -5.4885   11.6939  -29.0965 C   0  0  0  0  0  0  0  0  0  0  0  0
   -6.9537    8.1629  -31.4388 C   0  0  0  0  0  0  0  0  0  0  0  0
   -6.8942    9.5917  -31.9192 C   0  0  2  0  0  0  0  0  0  0  0  0
   -6.1952    8.4969  -32.6887 C   0  0  2  0  0  0  0  0  0  0  0  0
   -6.7187    8.0726  -34.0177 C   0  0  0  0  0  0  0  0  0  0  0  0
   -6.4143    6.6926  -34.2792 N   0  0  0  0  0  0  0  0  0  0  0  0
   -7.2286   10.0455  -29.1445 O   0  0  0  0  0  0  0  0  0  0  0  0
   -5.7272   11.9850  -27.2384 Br  0  0  0  0  0  0  0  0  0  0  0  0
   -3.5546   12.8083  -31.6611 H   0  0  0  0  0  0  0  0  0  0  0  0
   -4.9318   11.1693  -32.8969 H   0  0  0  0  0  0  0  0  0  0  0  0
   -3.8959   13.1542  -29.2457 H   0  0  0  0  0  0  0  0  0  0  0  0
   -6.3799    7.8760  -30.5652 H   0  0  0  0  0  0  0  0  0  0  0  0
   -7.9027    7.6476  -31.5299 H   0  0  0  0  0  0  0  0  0  0  0  0
   -7.8052    9.9923  -32.3447 H   0  0  0  0  0  0  0  0  0  0  0  0
   -5.1136    8.4368  -32.6473 H   0  0  0  0  0  0  0  0  0  0  0  0
   -7.8104    8.2083  -34.0343 H   0  0  0  0  0  0  0  0  0  0  0  0
   -6.2605    8.6953  -34.8004 H   0  0  0  0  0  0  0  0  0  0  0  0
   -6.8362    6.1188  -33.5772 H   0  0  0  0  0  0  0  0  0  0  0  0
   -6.7717    6.4369  -35.1775 H   0  0  0  0  0  0  0  0  0  0  0  0
   -7.2496   10.2848  -28.2056 H   0  0  0  0  0  0  0  0  0  0  0  0
  1  2  1  0  0  0  0
  1  3  2  0  0  0  0
  2  4  2  0  0  0  0
  3  6  1  0  0  0  0
  4  5  1  0  0  0  0
  4  8  1  0  0  0  0
  5  6  2  0  0  0  0
  5 12  1  0  0  0  0
  6 13  1  0  0  0  0
  7  8  1  0  0  0  0
  7  9  1  0  0  0  0
  8  9  1  0  0  0  0
  9 10  1  0  0  0  0
 10 11  1  0  0  0  0
  1 14  1  0  0  0  0
  2 15  1  0  0  0  0
  3 16  1  0  0  0  0
  7 17  1  0  0  0  0
  7 18  1  0  0  0  0
  8 19  1  0  0  0  0
  9 20  1  0  0  0  0
 10 21  1  0  0  0  0
 10 22  1  0  0  0  0
 11 23  1  0  0  0  0
 11 24  1  0  0  0  0
 12 25  1  0  0  0  0
M  END
> <id>
EN300-1923405

> <smiles>
NCC1CC1C=2C=CC=C(Br)C2O

> <IUPAC Name>
2-[2-(aminomethyl)cyclopropyl]-6-bromophenol

> <CAS>
2228879-65-8

> <URL>
https://www.enaminestore.com/catalog/EN300-1923405

> <ROCS_ShapeQuery>
_x1604L0AP1_x0771L0AP1

> <ROCS_TanimotoCombo>
0.895 

> <ROCS_ShapeTanimoto>
0.527 

> <ROCS_ColorTanimoto>
0.368 

> <ROCS_RefTversky>
0.469 

> <ROCS_RefColorTversky>
0.417 

> <ROCS_RefTverskyCombo>
0.887 

> <ROCS_FitTversky>
1.302 

> <ROCS_FitColorTversky>
0.758 

> <ROCS_FitTverskyCombo>
2.061 

> <ROCS_ColorScore>
-4.765

> <ROCS_Overlap>
795.656

> <ROCS_Rank>
322                 

$$$$
untitled-dbase-1270_1
  -OEChem-06042309053D

 25 26  0     1  0  0  0  0  0999 V2000
   -4.3134   12.2349  -31.1369 C   0  0  0  0  0  0  0  0  0  0  0  0
   -5.0927   11.3094  -31.8310 C   0  0  0  0  0  0  0  0  0  0  0  0
   -4.5111   12.4270  -29.7695 C   0  0  0  0  0  0  0  0  0  0  0  0
   -6.0699   10.5762  -31.1577 C   0  0  0  0  0  0  0  0  0  0  0  0
   -6.2676   10.7683  -29.7903 C   0  0  0  0  0  0  0  0  0  0  0  0
   -5.4882   11.6937  -29.0962 C   0  0  0  0  0  0  0  0  0  0  0  0
   -6.9526    8.1626  -31.4385 C   0  0  0  0  0  0  0  0  0  0  0  0
   -6.8936    9.5913  -31.9189 C   0  0  2  0  0  0  0  0  0  0  0  0
   -6.1945    8.4968  -32.6885 C   0  0  2  0  0  0  0  0  0  0  0  0
   -6.7181    8.0721  -34.0173 C   0  0  0  0  0  0  0  0  0  0  0  0
   -6.4132    6.6923  -34.2788 N   0  0  0  0  0  0  0  0  0  0  0  0
   -7.2285   10.0457  -29.1443 O   0  0  0  0  0  0  0  0  0  0  0  0
   -5.7272   11.9852  -27.2382 Br  0  0  0  0  0  0  0  0  0  0  0  0
   -3.5535   12.8074  -31.6607 H   0  0  0  0  0  0  0  0  0  0  0  0
   -4.9308   11.1684  -32.8965 H   0  0  0  0  0  0  0  0  0  0  0  0
   -3.8952   13.1537  -29.2454 H   0  0  0  0  0  0  0  0  0  0  0  0
   -6.3789    7.8760  -30.5647 H   0  0  0  0  0  0  0  0  0  0  0  0
   -7.9012    7.6466  -31.5303 H   0  0  0  0  0  0  0  0  0  0  0  0
   -7.8043    9.9924  -32.3445 H   0  0  0  0  0  0  0  0  0  0  0  0
   -5.1129    8.4355  -32.6471 H   0  0  0  0  0  0  0  0  0  0  0  0
   -7.8099    8.2073  -34.0339 H   0  0  0  0  0  0  0  0  0  0  0  0
   -6.2602    8.6950  -34.8003 H   0  0  0  0  0  0  0  0  0  0  0  0
   -6.8347    6.1183  -33.5767 H   0  0  0  0  0  0  0  0  0  0  0  0
   -6.7705    6.4364  -35.1770 H   0  0  0  0  0  0  0  0  0  0  0  0
   -7.2497   10.2851  -28.2054 H   0  0  0  0  0  0  0  0  0  0  0  0
  1  2  1  0  0  0  0
  1  3  2  0  0  0  0
  2  4  2  0  0  0  0
  3  6  1  0  0  0  0
  4  5  1  0  0  0  0
  4  8  1  1  0  0  0
  5  6  2  0  0  0  0
  5 12  1  0  0  0  0
  6 13  1  0  0  0  0
  7  8  1  0  0  0  0
  7  9  1  0  0  0  0
  8  9  1  0  0  0  0
  9 10  1  6  0  0  0
 10 11  1  0  0  0  0
  1 14  1  0  0  0  0
  2 15  1  0  0  0  0
  3 16  1  0  0  0  0
  7 17  1  0  0  0  0
  7 18  1  0  0  0  0
  8 19  1  0  0  0  0
  9 20  1  0  0  0  0
 10 21  1  0  0  0  0
 10 22  1  0  0  0  0
 11 23  1  0  0  0  0
 11 24  1  0  0  0  0
 12 25  1  0  0  0  0
M  END
> <id>
EN300-1923160

> <smiles>
NC[C@@H]1C[C@H]1C=2C=CC=C(Br)C2O |&1:2,4,r|

> <IUPAC Name>
rac-2-[(1R,2R)-2-(aminomethyl)cyclopropyl]-6-bromophenol

> <CAS>
2227893-46-9

> <URL>
https://www.enaminestore.com/catalog/EN300-1923160

> <ROCS_ShapeQuery>
_x1604L0AP1_x0771L0AP1

> <ROCS_TanimotoCombo>
0.895 

> <ROCS_ShapeTanimoto>
0.527 

> <ROCS_ColorTanimoto>
0.368 

> <ROCS_RefTversky>
0.469 

> <ROCS_RefColorTversky>
0.417 

> <ROCS_RefTverskyCombo>
0.887 

> <ROCS_FitTversky>
1.302 

> <ROCS_FitColorTversky>
0.758 

> <ROCS_FitTverskyCombo>
2.060 

> <ROCS_ColorScore>
-4.765

> <ROCS_Overlap>
795.595

> <ROCS_Rank>
323                 

$$$$
untitled-dbase-773_3
  -OEChem-06042309053D

 22 22  0     1  0  0  0  0  0999 V2000
   -6.8953   10.0857  -34.9116 C   0  0  0  0  0  0  0  0  0  0  0  0
   -6.7065   10.5127  -33.5973 C   0  0  0  0  0  0  0  0  0  0  0  0
   -6.7738    8.7331  -35.2299 C   0  0  0  0  0  0  0  0  0  0  0  0
   -6.3959    9.5870  -32.6011 C   0  0  0  0  0  0  0  0  0  0  0  0
   -6.4632    7.8074  -34.2337 C   0  0  0  0  0  0  0  0  0  0  0  0
   -6.2743    8.2344  -32.9193 C   0  0  0  0  0  0  0  0  0  0  0  0
   -7.5148   10.1213  -30.4092 C   0  0  0  0  0  0  0  0  0  0  0  0
   -6.2029   10.0955  -31.2086 C   0  0  2  0  0  0  0  0  0  0  0  0
   -4.3012   12.0069  -29.3054 N   0  5  0  0  0  0  0  0  0  0  0  0
   -5.6396   11.4634  -31.1945 N   0  0  0  0  0  0  0  0  0  0  0  0
   -4.9448   11.7364  -30.2075 N   0  3  0  0  0  0  0  0  0  0  0  0
   -6.3519    6.4940  -34.5823 O   0  0  0  0  0  0  0  0  0  0  0  0
   -7.2280   10.1506  -29.0151 O   0  0  0  0  0  0  0  0  0  0  0  0
   -5.8513    6.9623  -31.5687 Br  0  0  0  0  0  0  0  0  0  0  0  0
   -7.1367   10.8066  -35.6874 H   0  0  0  0  0  0  0  0  0  0  0  0
   -6.8035   11.5692  -33.3605 H   0  0  0  0  0  0  0  0  0  0  0  0
   -6.9218    8.4082  -36.2563 H   0  0  0  0  0  0  0  0  0  0  0  0
   -8.1229   10.9989  -30.6552 H   0  0  0  0  0  0  0  0  0  0  0  0
   -8.1044    9.2196  -30.6085 H   0  0  0  0  0  0  0  0  0  0  0  0
   -5.4850    9.4605  -30.6617 H   0  0  0  0  0  0  0  0  0  0  0  0
   -6.1344    5.9590  -33.8034 H   0  0  0  0  0  0  0  0  0  0  0  0
   -8.0825   10.1660  -28.5559 H   0  0  0  0  0  0  0  0  0  0  0  0
  1  2  1  0  0  0  0
  1  3  2  0  0  0  0
  2  4  2  0  0  0  0
  3  5  1  0  0  0  0
  4  6  1  0  0  0  0
  4  8  1  0  0  0  0
  5  6  2  0  0  0  0
  5 12  1  0  0  0  0
  6 14  1  0  0  0  0
  7  8  1  0  0  0  0
  7 13  1  0  0  0  0
  8 10  1  0  0  0  0
  9 11  2  0  0  0  0
 10 11  2  0  0  0  0
  1 15  1  0  0  0  0
  2 16  1  0  0  0  0
  3 17  1  0  0  0  0
  7 18  1  0  0  0  0
  7 19  1  0  0  0  0
  8 20  1  0  0  0  0
 12 21  1  0  0  0  0
 13 22  1  0  0  0  0
M  CHG  2   9  -1  11   1
M  END
> <id>
EN300-1904550

> <smiles>
OCC(N=[N+]=[N-])C=1C=CC=C(O)C1Br

> <IUPAC Name>
3-(1-azido-2-hydroxyethyl)-2-bromophenol

> <CAS>
2228192-58-1

> <URL>
https://www.enaminestore.com/catalog/EN300-1904550

> <ROCS_ShapeQuery>
_x1604L0AP1_x0771L0AP1

> <ROCS_TanimotoCombo>
0.895 

> <ROCS_ShapeTanimoto>
0.511 

> <ROCS_ColorTanimoto>
0.384 

> <ROCS_RefTversky>
0.468 

> <ROCS_RefColorTversky>
0.430 

> <ROCS_RefTverskyCombo>
0.898 

> <ROCS_FitTversky>
1.220 

> <ROCS_FitColorTversky>
0.781 

> <ROCS_FitTverskyCombo>
2.001 

> <ROCS_ColorScore>
-4.908

> <ROCS_Overlap>
794.679

> <ROCS_Rank>
324                 

$$$$
untitled-dbase-446_16
  -OEChem-06042309053D

 23 23  0     0  0  0  0  0  0999 V2000
   -5.0338   11.3354  -31.7694 C   0  0  0  0  0  0  0  0  0  0  0  0
   -4.5030   12.4610  -29.6985 C   0  0  0  0  0  0  0  0  0  0  0  0
   -6.0255   10.6029  -31.1170 C   0  0  0  0  0  0  0  0  0  0  0  0
   -6.2560   10.7994  -29.7555 C   0  0  0  0  0  0  0  0  0  0  0  0
   -4.2725   12.2644  -31.0601 C   0  0  0  0  0  0  0  0  0  0  0  0
   -5.4947   11.7284  -29.0462 C   0  0  0  0  0  0  0  0  0  0  0  0
   -8.2747    9.4005  -31.3803 C   0  0  0  0  0  0  0  0  0  0  0  0
   -6.1110    8.2468  -31.9470 C   0  0  0  0  0  0  0  0  0  0  0  0
   -6.8291    9.6133  -31.8953 C   0  0  0  0  0  0  0  0  0  0  0  0
   -7.2298   10.0749  -29.1314 O   0  0  0  0  0  0  0  0  0  0  0  0
   -6.9844   10.0548  -33.2629 O   0  0  0  0  0  0  0  0  0  0  0  0
   -3.0488   13.1680  -31.8655 Cl  0  0  0  0  0  0  0  0  0  0  0  0
   -5.7781   12.0235  -27.1948 Br  0  0  0  0  0  0  0  0  0  0  0  0
   -4.8575   11.1795  -32.8316 H   0  0  0  0  0  0  0  0  0  0  0  0
   -3.9068   13.1861  -29.1490 H   0  0  0  0  0  0  0  0  0  0  0  0
   -8.8208    8.6662  -31.9847 H   0  0  0  0  0  0  0  0  0  0  0  0
   -8.2967    9.0543  -30.3422 H   0  0  0  0  0  0  0  0  0  0  0  0
   -8.8416   10.3369  -31.4451 H   0  0  0  0  0  0  0  0  0  0  0  0
   -6.6819    7.5021  -32.5137 H   0  0  0  0  0  0  0  0  0  0  0  0
   -5.9349    7.8522  -30.9404 H   0  0  0  0  0  0  0  0  0  0  0  0
   -5.1415    8.3407  -32.4509 H   0  0  0  0  0  0  0  0  0  0  0  0
   -7.2750   10.3166  -28.1939 H   0  0  0  0  0  0  0  0  0  0  0  0
   -7.5083    9.3703  -33.6948 H   0  0  0  0  0  0  0  0  0  0  0  0
  1  3  2  0  0  0  0
  1  5  1  0  0  0  0
  2  5  2  0  0  0  0
  2  6  1  0  0  0  0
  3  4  1  0  0  0  0
  3  9  1  0  0  0  0
  4  6  2  0  0  0  0
  4 10  1  0  0  0  0
  5 12  1  0  0  0  0
  6 13  1  0  0  0  0
  7  9  1  0  0  0  0
  8  9  1  0  0  0  0
  9 11  1  0  0  0  0
  1 14  1  0  0  0  0
  2 15  1  0  0  0  0
  7 16  1  0  0  0  0
  7 17  1  0  0  0  0
  7 18  1  0  0  0  0
  8 19  1  0  0  0  0
  8 20  1  0  0  0  0
  8 21  1  0  0  0  0
 10 22  1  0  0  0  0
 11 23  1  0  0  0  0
M  END
> <id>
EN300-1922594

> <smiles>
CC(C)(O)C=1C=C(Cl)C=C(Br)C1O

> <IUPAC Name>
2-bromo-4-chloro-6-(2-hydroxypropan-2-yl)phenol

> <CAS>
2228329-35-7

> <URL>
https://www.enaminestore.com/catalog/EN300-1922594

> <ROCS_ShapeQuery>
_x1604L0AP1_x0771L0AP1

> <ROCS_TanimotoCombo>
0.895 

> <ROCS_ShapeTanimoto>
0.546 

> <ROCS_ColorTanimoto>
0.349 

> <ROCS_RefTversky>
0.479 

> <ROCS_RefColorTversky>
0.422 

> <ROCS_RefTverskyCombo>
0.901 

> <ROCS_FitTversky>
1.346 

> <ROCS_FitColorTversky>
0.669 

> <ROCS_FitTverskyCombo>
2.015 

> <ROCS_ColorScore>
-4.839

> <ROCS_Overlap>
811.300

> <ROCS_Rank>
325                 

$$$$
untitled-dbase-2174_592
  -OEChem-06042309053D

 35 35  0     1  0  0  0  0  0999 V2000
   -7.1078   10.1055  -34.8302 C   0  0  0  0  0  0  0  0  0  0  0  0
   -6.8151   10.5626  -33.5453 C   0  0  0  0  0  0  0  0  0  0  0  0
   -6.9514    8.7550  -35.1424 C   0  0  0  0  0  0  0  0  0  0  0  0
   -6.3660    9.6694  -32.5727 C   0  0  0  0  0  0  0  0  0  0  0  0
   -6.5023    7.8617  -34.1698 C   0  0  0  0  0  0  0  0  0  0  0  0
   -6.2096    8.3189  -32.8849 C   0  0  0  0  0  0  0  0  0  0  0  0
   -7.2553   10.1921  -30.2706 C   0  0  0  0  0  0  0  0  0  0  0  0
   -4.7216   12.1091  -30.3012 C   0  0  0  0  0  0  0  0  0  0  0  0
   -2.3782   12.4796  -31.4043 C   0  0  0  0  0  0  0  0  0  0  0  0
   -3.0182   14.8666  -31.8535 C   0  0  0  0  0  0  0  0  0  0  0  0
   -2.4385   14.1454  -29.5186 C   0  0  0  0  0  0  0  0  0  0  0  0
   -6.0633   10.2138  -31.2004 C   0  0  2  0  0  0  0  0  0  0  0  0
   -3.0696   13.7218  -30.8441 C   0  0  0  0  0  0  0  0  0  0  0  0
   -5.5762   11.5734  -31.2416 N   0  0  0  0  0  0  0  0  0  0  0  0
   -7.1600   10.1130  -29.0481 O   0  0  0  0  0  0  0  0  0  0  0  0
   -4.2694   11.5192  -29.3255 O   0  0  0  0  0  0  0  0  0  0  0  0
   -6.3609    6.5495  -34.5118 O   0  0  0  0  0  0  0  0  0  0  0  0
   -4.4446   13.4119  -30.6146 O   0  0  0  0  0  0  0  0  0  0  0  0
   -5.5979    7.0909  -31.5662 Br  0  0  0  0  0  0  0  0  0  0  0  0
   -7.4570   10.8011  -35.5877 H   0  0  0  0  0  0  0  0  0  0  0  0
   -6.9404   11.6171  -33.3130 H   0  0  0  0  0  0  0  0  0  0  0  0
   -7.1809    8.4065  -36.1459 H   0  0  0  0  0  0  0  0  0  0  0  0
   -8.2459   10.3446  -30.7343 H   0  0  0  0  0  0  0  0  0  0  0  0
   -2.4129   11.6555  -30.6827 H   0  0  0  0  0  0  0  0  0  0  0  0
   -2.8438   12.1449  -32.3370 H   0  0  0  0  0  0  0  0  0  0  0  0
   -1.3175   12.6763  -31.5980 H   0  0  0  0  0  0  0  0  0  0  0  0
   -3.5131   15.7599  -31.4558 H   0  0  0  0  0  0  0  0  0  0  0  0
   -3.5530   14.6009  -32.7726 H   0  0  0  0  0  0  0  0  0  0  0  0
   -1.9880   15.1285  -32.1153 H   0  0  0  0  0  0  0  0  0  0  0  0
   -2.9343   15.0364  -29.1166 H   0  0  0  0  0  0  0  0  0  0  0  0
   -2.4994   13.3488  -28.7701 H   0  0  0  0  0  0  0  0  0  0  0  0
   -1.3849   14.4137  -29.6568 H   0  0  0  0  0  0  0  0  0  0  0  0
   -5.2724    9.6332  -30.7119 H   0  0  0  0  0  0  0  0  0  0  0  0
   -5.8804   12.1681  -32.0062 H   0  0  0  0  0  0  0  0  0  0  0  0
   -6.0441    6.0383  -33.7511 H   0  0  0  0  0  0  0  0  0  0  0  0
  1  2  1  0  0  0  0
  1  3  2  0  0  0  0
  2  4  2  0  0  0  0
  3  5  1  0  0  0  0
  4  6  1  0  0  0  0
  4 12  1  0  0  0  0
  5  6  2  0  0  0  0
  5 17  1  0  0  0  0
  6 19  1  0  0  0  0
  7 12  1  0  0  0  0
  7 15  2  0  0  0  0
  8 14  1  0  0  0  0
  8 16  2  0  0  0  0
  8 18  1  0  0  0  0
  9 13  1  0  0  0  0
 10 13  1  0  0  0  0
 11 13  1  0  0  0  0
 12 14  1  0  0  0  0
 13 18  1  0  0  0  0
  1 20  1  0  0  0  0
  2 21  1  0  0  0  0
  3 22  1  0  0  0  0
  7 23  1  0  0  0  0
  9 24  1  0  0  0  0
  9 25  1  0  0  0  0
  9 26  1  0  0  0  0
 10 27  1  0  0  0  0
 10 28  1  0  0  0  0
 10 29  1  0  0  0  0
 11 30  1  0  0  0  0
 11 31  1  0  0  0  0
 11 32  1  0  0  0  0
 12 33  1  0  0  0  0
 14 34  1  0  0  0  0
 17 35  1  0  0  0  0
M  END
> <id>
EN300-1874430

> <smiles>
CC(C)(C)OC(=O)NC(C=O)C=1C=CC=C(O)C1Br

> <IUPAC Name>
tert-butyl N-[1-(2-bromo-3-hydroxyphenyl)-2-oxoethyl]carbamate

> <CAS>
2229539-24-4

> <URL>
https://www.enaminestore.com/catalog/EN300-1874430

> <ROCS_ShapeQuery>
_x1604L0AP1_x0771L0AP1

> <ROCS_TanimotoCombo>
0.895 

> <ROCS_ShapeTanimoto>
0.643 

> <ROCS_ColorTanimoto>
0.252 

> <ROCS_RefTversky>
0.589 

> <ROCS_RefColorTversky>
0.344 

> <ROCS_RefTverskyCombo>
0.933 

> <ROCS_FitTversky>
1.166 

> <ROCS_FitColorTversky>
0.484 

> <ROCS_FitTverskyCombo>
1.650 

> <ROCS_ColorScore>
-3.959

> <ROCS_Overlap>
1007.046

> <ROCS_Rank>
326                 

$$$$
untitled-dbase-235_160
  -OEChem-06042309053D

 22 22  0     1  0  0  0  0  0999 V2000
   -4.3619   11.9025  -31.7486 C   0  0  0  0  0  0  0  0  0  0  0  0
   -4.3893   12.3924  -30.4429 C   0  0  0  0  0  0  0  0  0  0  0  0
   -5.2270   10.8756  -32.1265 C   0  0  0  0  0  0  0  0  0  0  0  0
   -5.2816   11.8553  -29.5151 C   0  0  0  0  0  0  0  0  0  0  0  0
   -6.1466   10.8284  -29.8930 C   0  0  0  0  0  0  0  0  0  0  0  0
   -6.1193   10.3385  -31.1987 C   0  0  0  0  0  0  0  0  0  0  0  0
   -6.3392   11.7180  -27.2180 C   0  0  0  0  0  0  0  0  0  0  0  0
   -5.2934   12.3938  -28.1222 C   0  0  2  0  0  0  0  0  0  0  0  0
   -5.5054   13.8327  -28.1015 N   0  0  0  0  0  0  0  0  0  0  0  0
   -7.0128   10.3121  -28.9733 O   0  0  0  0  0  0  0  0  0  0  0  0
   -6.3116   12.3062  -25.9215 O   0  0  0  0  0  0  0  0  0  0  0  0
   -7.2793    8.9447  -31.7515 Br  0  0  0  0  0  0  0  0  0  0  0  0
   -3.6675   12.3210  -32.4713 H   0  0  0  0  0  0  0  0  0  0  0  0
   -3.7135   13.1943  -30.1577 H   0  0  0  0  0  0  0  0  0  0  0  0
   -5.1915   10.5071  -33.1487 H   0  0  0  0  0  0  0  0  0  0  0  0
   -7.3464   11.8605  -27.6249 H   0  0  0  0  0  0  0  0  0  0  0  0
   -6.1520   10.6439  -27.1123 H   0  0  0  0  0  0  0  0  0  0  0  0
   -4.3053   12.2578  -27.6484 H   0  0  0  0  0  0  0  0  0  0  0  0
   -5.4922   14.1409  -27.1563 H   0  0  0  0  0  0  0  0  0  0  0  0
   -4.7749   14.2670  -28.6178 H   0  0  0  0  0  0  0  0  0  0  0  0
   -7.5470    9.6109  -29.3764 H   0  0  0  0  0  0  0  0  0  0  0  0
   -6.9846   11.8476  -25.3944 H   0  0  0  0  0  0  0  0  0  0  0  0
  1  2  1  0  0  0  0
  1  3  2  0  0  0  0
  2  4  2  0  0  0  0
  3  6  1  0  0  0  0
  4  5  1  0  0  0  0
  4  8  1  0  0  0  0
  5  6  2  0  0  0  0
  5 10  1  0  0  0  0
  6 12  1  0  0  0  0
  7  8  1  0  0  0  0
  7 11  1  0  0  0  0
  8  9  1  6  0  0  0
  1 13  1  0  0  0  0
  2 14  1  0  0  0  0
  3 15  1  0  0  0  0
  7 16  1  0  0  0  0
  7 17  1  0  0  0  0
  8 18  1  0  0  0  0
  9 19  1  0  0  0  0
  9 20  1  0  0  0  0
 10 21  1  0  0  0  0
 11 22  1  0  0  0  0
M  END
> <id>
EN300-1896265

> <smiles>
N[C@@H](CO)C=1C=CC=C(Br)C1O

> <MDLNUMBER>
MFCD11009586

> <IUPAC Name>
2-[(1R)-1-amino-2-hydroxyethyl]-6-bromophenol

> <CAS>
1213450-87-3

> <URL>
https://www.enaminestore.com/catalog/EN300-1896265

> <ROCS_ShapeQuery>
_x1604L0AP1_x0771L0AP1

> <ROCS_TanimotoCombo>
0.895 

> <ROCS_ShapeTanimoto>
0.431 

> <ROCS_ColorTanimoto>
0.463 

> <ROCS_RefTversky>
0.402 

> <ROCS_RefColorTversky>
0.542 

> <ROCS_RefTverskyCombo>
0.944 

> <ROCS_FitTversky>
1.205 

> <ROCS_FitColorTversky>
0.762 

> <ROCS_FitTverskyCombo>
1.967 

> <ROCS_ColorScore>
-6.239

> <ROCS_Overlap>
680.309

> <ROCS_Rank>
327                 

$$$$
untitled-dbase-553_106
  -OEChem-06042309053D

 24 24  0     0  0  0  0  0  0999 V2000
   -4.5675   12.4567  -29.8126 C   0  0  0  0  0  0  0  0  0  0  0  0
   -5.0398   11.1276  -31.7741 C   0  0  0  0  0  0  0  0  0  0  0  0
   -4.3090   12.1357  -31.1452 C   0  0  0  0  0  0  0  0  0  0  0  0
   -5.5567   11.7696  -29.1089 C   0  0  0  0  0  0  0  0  0  0  0  0
   -6.2874   10.7615  -29.7378 C   0  0  0  0  0  0  0  0  0  0  0  0
   -6.0289   10.4405  -31.0704 C   0  0  0  0  0  0  0  0  0  0  0  0
   -6.7729   13.1065  -27.5633 C   0  0  0  0  0  0  0  0  0  0  0  0
   -3.2521   12.8712  -31.8974 C   0  0  0  0  0  0  0  0  0  0  0  0
   -3.0276   14.3251  -31.4494 C   0  0  0  0  0  0  0  0  0  0  0  0
   -7.2515   10.1015  -29.0331 O   0  0  0  0  0  0  0  0  0  0  0  0
   -5.7979   12.0949  -27.8081 O   0  0  0  0  0  0  0  0  0  0  0  0
   -1.7386   15.1623  -32.4232 S   0  0  0  0  0  0  0  0  0  0  0  0
   -7.0012    9.0769  -31.9589 Br  0  0  0  0  0  0  0  0  0  0  0  0
   -3.9994   13.2423  -29.3202 H   0  0  0  0  0  0  0  0  0  0  0  0
   -4.8311   10.8848  -32.8138 H   0  0  0  0  0  0  0  0  0  0  0  0
   -6.8681   13.2690  -26.4869 H   0  0  0  0  0  0  0  0  0  0  0  0
   -7.7337   12.7969  -27.9822 H   0  0  0  0  0  0  0  0  0  0  0  0
   -6.4508   14.0341  -28.0424 H   0  0  0  0  0  0  0  0  0  0  0  0
   -2.2903   12.3293  -31.8694 H   0  0  0  0  0  0  0  0  0  0  0  0
   -3.5299   12.8858  -32.9656 H   0  0  0  0  0  0  0  0  0  0  0  0
   -3.9527   14.8973  -31.5739 H   0  0  0  0  0  0  0  0  0  0  0  0
   -2.7495   14.3735  -30.3918 H   0  0  0  0  0  0  0  0  0  0  0  0
   -7.2993   10.4482  -28.1292 H   0  0  0  0  0  0  0  0  0  0  0  0
   -2.3501   15.0262  -33.6071 H   0  0  0  0  0  0  0  0  0  0  0  0
  1  3  1  0  0  0  0
  1  4  2  0  0  0  0
  2  3  2  0  0  0  0
  2  6  1  0  0  0  0
  3  8  1  0  0  0  0
  4  5  1  0  0  0  0
  4 11  1  0  0  0  0
  5  6  2  0  0  0  0
  5 10  1  0  0  0  0
  6 13  1  0  0  0  0
  7 11  1  0  0  0  0
  8  9  1  0  0  0  0
  9 12  1  0  0  0  0
  1 14  1  0  0  0  0
  2 15  1  0  0  0  0
  7 16  1  0  0  0  0
  7 17  1  0  0  0  0
  7 18  1  0  0  0  0
  8 19  1  0  0  0  0
  8 20  1  0  0  0  0
  9 21  1  0  0  0  0
  9 22  1  0  0  0  0
 10 23  1  0  0  0  0
 12 24  1  0  0  0  0
M  END
> <id>
EN300-1925669

> <smiles>
COC=1C=C(CCS)C=C(Br)C1O

> <IUPAC Name>
2-bromo-6-methoxy-4-(2-sulfanylethyl)phenol

> <CAS>
2229006-81-7

> <URL>
https://www.enaminestore.com/catalog/EN300-1925669

> <ROCS_ShapeQuery>
_x1604L0AP1_x0771L0AP1

> <ROCS_TanimotoCombo>
0.894 

> <ROCS_ShapeTanimoto>
0.479 

> <ROCS_ColorTanimoto>
0.415 

> <ROCS_RefTversky>
0.438 

> <ROCS_RefColorTversky>
0.431 

> <ROCS_RefTverskyCombo>
0.869 

> <ROCS_FitTversky>
1.248 

> <ROCS_FitColorTversky>
0.918 

> <ROCS_FitTverskyCombo>
2.166 

> <ROCS_ColorScore>
-4.898

> <ROCS_Overlap>
741.630

> <ROCS_Rank>
328                 

$$$$
untitled-dbase-560_22
  -OEChem-06042309053D

 19 19  0     0  0  0  0  0  0999 V2000
   -4.5618   12.4455  -29.8186 C   0  0  0  0  0  0  0  0  0  0  0  0
   -5.5537   11.7609  -29.1164 C   0  0  0  0  0  0  0  0  0  0  0  0
   -5.0370   11.1202  -31.7820 C   0  0  0  0  0  0  0  0  0  0  0  0
   -4.3035   12.1252  -31.1514 C   0  0  0  0  0  0  0  0  0  0  0  0
   -6.2872   10.7559  -29.7470 C   0  0  0  0  0  0  0  0  0  0  0  0
   -6.0289   10.4355  -31.0798 C   0  0  0  0  0  0  0  0  0  0  0  0
   -3.2427   12.8577  -31.9010 C   0  0  0  0  0  0  0  0  0  0  0  0
   -3.0766   14.2879  -31.3972 C   0  0  0  0  0  0  0  0  0  0  0  0
   -7.2485   10.1047  -29.0326 O   0  0  0  0  0  0  0  0  0  0  0  0
   -7.0048    9.0748  -31.9678 Br  0  0  0  0  0  0  0  0  0  0  0  0
   -4.7545   15.2609  -31.5616 Br  0  0  0  0  0  0  0  0  0  0  0  0
   -3.9958   13.2269  -29.3182 H   0  0  0  0  0  0  0  0  0  0  0  0
   -5.7494   12.0160  -28.0783 H   0  0  0  0  0  0  0  0  0  0  0  0
   -4.8289   10.8775  -32.8219 H   0  0  0  0  0  0  0  0  0  0  0  0
   -3.4757   12.8640  -32.9794 H   0  0  0  0  0  0  0  0  0  0  0  0
   -2.2830   12.3188  -31.8242 H   0  0  0  0  0  0  0  0  0  0  0  0
   -2.7989   14.3201  -30.3394 H   0  0  0  0  0  0  0  0  0  0  0  0
   -2.3349   14.8438  -31.9784 H   0  0  0  0  0  0  0  0  0  0  0  0
   -7.6798    9.4350  -29.5857 H   0  0  0  0  0  0  0  0  0  0  0  0
  1  2  1  0  0  0  0
  1  4  2  0  0  0  0
  2  5  2  0  0  0  0
  3  4  1  0  0  0  0
  3  6  2  0  0  0  0
  4  7  1  0  0  0  0
  5  6  1  0  0  0  0
  5  9  1  0  0  0  0
  6 10  1  0  0  0  0
  7  8  1  0  0  0  0
  8 11  1  0  0  0  0
  1 12  1  0  0  0  0
  2 13  1  0  0  0  0
  3 14  1  0  0  0  0
  7 15  1  0  0  0  0
  7 16  1  0  0  0  0
  8 17  1  0  0  0  0
  8 18  1  0  0  0  0
  9 19  1  0  0  0  0
M  END
> <id>
EN300-1906332

> <smiles>
OC=1C=CC(CCBr)=CC1Br

> <MDLNUMBER>
MFCD33501282

> <IUPAC Name>
2-bromo-4-(2-bromoethyl)phenol

> <CAS>
2229475-72-1

> <URL>
https://www.enaminestore.com/catalog/EN300-1906332

> <ROCS_ShapeQuery>
_x1604L0AP1_x0771L0AP1

> <ROCS_TanimotoCombo>
0.894 

> <ROCS_ShapeTanimoto>
0.482 

> <ROCS_ColorTanimoto>
0.413 

> <ROCS_RefTversky>
0.423 

> <ROCS_RefColorTversky>
0.429 

> <ROCS_RefTverskyCombo>
0.852 

> <ROCS_FitTversky>
1.408 

> <ROCS_FitColorTversky>
0.914 

> <ROCS_FitTverskyCombo>
2.323 

> <ROCS_ColorScore>
-4.878

> <ROCS_Overlap>
714.200

> <ROCS_Rank>
329                 

$$$$
untitled-dbase-1744_525
  -OEChem-06042309053D

 24 24  0     0  0  0  0  0  0999 V2000
   -4.5817   12.4663  -29.7956 C   0  0  0  0  0  0  0  0  0  0  0  0
   -5.0422   11.1420  -31.7631 C   0  0  0  0  0  0  0  0  0  0  0  0
   -4.3180   12.1512  -31.1285 C   0  0  0  0  0  0  0  0  0  0  0  0
   -5.5695   11.7719  -29.0971 C   0  0  0  0  0  0  0  0  0  0  0  0
   -6.2936   10.7626  -29.7316 C   0  0  0  0  0  0  0  0  0  0  0  0
   -6.0300   10.4476  -31.0646 C   0  0  0  0  0  0  0  0  0  0  0  0
   -5.0698   11.3894  -26.8037 C   0  0  0  0  0  0  0  0  0  0  0  0
   -2.5935   13.9553  -30.9981 C   0  0  0  0  0  0  0  0  0  0  0  0
   -3.2625   12.8945  -31.8752 C   0  0  0  0  0  0  0  0  0  0  0  0
   -7.2565   10.0955  -29.0319 O   0  0  0  0  0  0  0  0  0  0  0  0
   -3.5678   14.8998  -30.5699 O   0  0  0  0  0  0  0  0  0  0  0  0
   -5.8159   12.0915  -27.7958 O   0  0  0  0  0  0  0  0  0  0  0  0
   -2.2721   12.0745  -32.3539 F   0  0  0  0  0  0  0  0  0  0  0  0
   -3.7478   13.5310  -32.9896 F   0  0  0  0  0  0  0  0  0  0  0  0
   -6.9932    9.0826  -31.9606 Br  0  0  0  0  0  0  0  0  0  0  0  0
   -4.0188   13.2529  -29.2988 H   0  0  0  0  0  0  0  0  0  0  0  0
   -4.8295   10.9038  -32.8030 H   0  0  0  0  0  0  0  0  0  0  0  0
   -5.3627   11.7395  -25.8108 H   0  0  0  0  0  0  0  0  0  0  0  0
   -4.0018   11.5597  -26.9613 H   0  0  0  0  0  0  0  0  0  0  0  0
   -5.2828   10.3212  -26.8884 H   0  0  0  0  0  0  0  0  0  0  0  0
   -1.8209   14.4944  -31.5561 H   0  0  0  0  0  0  0  0  0  0  0  0
   -2.1468   13.5018  -30.1074 H   0  0  0  0  0  0  0  0  0  0  0  0
   -7.3085   10.4388  -28.1269 H   0  0  0  0  0  0  0  0  0  0  0  0
   -3.9398   15.2994  -31.3722 H   0  0  0  0  0  0  0  0  0  0  0  0
  1  3  1  0  0  0  0
  1  4  2  0  0  0  0
  2  3  2  0  0  0  0
  2  6  1  0  0  0  0
  3  9  1  0  0  0  0
  4  5  1  0  0  0  0
  4 12  1  0  0  0  0
  5  6  2  0  0  0  0
  5 10  1  0  0  0  0
  6 15  1  0  0  0  0
  7 12  1  0  0  0  0
  8  9  1  0  0  0  0
  8 11  1  0  0  0  0
  9 13  1  0  0  0  0
  9 14  1  0  0  0  0
  1 16  1  0  0  0  0
  2 17  1  0  0  0  0
  7 18  1  0  0  0  0
  7 19  1  0  0  0  0
  7 20  1  0  0  0  0
  8 21  1  0  0  0  0
  8 22  1  0  0  0  0
 10 23  1  0  0  0  0
 11 24  1  0  0  0  0
M  END
> <id>
EN300-1959358

> <smiles>
COC=1C=C(C=C(Br)C1O)C(F)(F)CO

> <IUPAC Name>
2-bromo-4-(1,1-difluoro-2-hydroxyethyl)-6-methoxyphenol

> <CAS>
2228626-31-9

> <URL>
https://www.enaminestore.com/catalog/EN300-1959358

> <ROCS_ShapeQuery>
_x1604L0AP1_x0771L0AP1

> <ROCS_TanimotoCombo>
0.894 

> <ROCS_ShapeTanimoto>
0.539 

> <ROCS_ColorTanimoto>
0.355 

> <ROCS_RefTversky>
0.496 

> <ROCS_RefColorTversky>
0.427 

> <ROCS_RefTverskyCombo>
0.923 

> <ROCS_FitTversky>
1.196 

> <ROCS_FitColorTversky>
0.677 

> <ROCS_FitTverskyCombo>
1.873 

> <ROCS_ColorScore>
-4.897

> <ROCS_Overlap>
842.507

> <ROCS_Rank>
330                 

$$$$
untitled-dbase-492_60
  -OEChem-06042309053D

 20 20  0     0  0  0  0  0  0999 V2000
   -5.0718   11.2086  -31.7902 C   0  0  0  0  0  0  0  0  0  0  0  0
   -4.5204   12.4482  -29.7911 C   0  0  0  0  0  0  0  0  0  0  0  0
   -6.0565   10.5139  -31.0879 C   0  0  0  0  0  0  0  0  0  0  0  0
   -6.2733   10.7864  -29.7372 C   0  0  0  0  0  0  0  0  0  0  0  0
   -4.3037   12.1758  -31.1418 C   0  0  0  0  0  0  0  0  0  0  0  0
   -5.5052   11.7536  -29.0888 C   0  0  0  0  0  0  0  0  0  0  0  0
   -6.6934    9.5332  -33.3100 C   0  0  0  0  0  0  0  0  0  0  0  0
   -6.8675    9.4825  -31.8014 C   0  0  0  0  0  0  0  0  0  0  0  0
   -6.1294    8.4186  -33.8723 N   0  0  0  0  0  0  0  0  0  0  0  0
   -7.2404   10.0981  -29.0638 O   0  0  0  0  0  0  0  0  0  0  0  0
   -7.1365   10.8594  -34.2275 S   0  0  0  0  0  0  0  0  0  0  0  0
   -3.0885   13.0326  -32.0089 Cl  0  0  0  0  0  0  0  0  0  0  0  0
   -5.7700   12.1519  -27.2541 Br  0  0  0  0  0  0  0  0  0  0  0  0
   -4.9061   10.9935  -32.8438 H   0  0  0  0  0  0  0  0  0  0  0  0
   -3.9190   13.2029  -29.2891 H   0  0  0  0  0  0  0  0  0  0  0  0
   -7.9379    9.5865  -31.5554 H   0  0  0  0  0  0  0  0  0  0  0  0
   -6.5866    8.4778  -31.4425 H   0  0  0  0  0  0  0  0  0  0  0  0
   -5.8460    7.6156  -33.3200 H   0  0  0  0  0  0  0  0  0  0  0  0
   -5.9718    8.3604  -34.8727 H   0  0  0  0  0  0  0  0  0  0  0  0
   -7.2763   10.3920  -28.1408 H   0  0  0  0  0  0  0  0  0  0  0  0
  1  3  2  0  0  0  0
  1  5  1  0  0  0  0
  2  5  2  0  0  0  0
  2  6  1  0  0  0  0
  3  4  1  0  0  0  0
  3  8  1  0  0  0  0
  4  6  2  0  0  0  0
  4 10  1  0  0  0  0
  5 12  1  0  0  0  0
  6 13  1  0  0  0  0
  7  8  1  0  0  0  0
  7  9  1  0  0  0  0
  7 11  2  0  0  0  0
  1 14  1  0  0  0  0
  2 15  1  0  0  0  0
  8 16  1  0  0  0  0
  8 17  1  0  0  0  0
  9 18  1  0  0  0  0
  9 19  1  0  0  0  0
 10 20  1  0  0  0  0
M  END
> <id>
EN300-1922937

> <smiles>
NC(=S)CC=1C=C(Cl)C=C(Br)C1O

> <IUPAC Name>
2-(3-bromo-5-chloro-2-hydroxyphenyl)ethanethioamide

> <CAS>
2229584-60-3

> <URL>
https://www.enaminestore.com/catalog/EN300-1922937

> <ROCS_ShapeQuery>
_x1604L0AP1_x0771L0AP1

> <ROCS_TanimotoCombo>
0.894 

> <ROCS_ShapeTanimoto>
0.591 

> <ROCS_ColorTanimoto>
0.303 

> <ROCS_RefTversky>
0.501 

> <ROCS_RefColorTversky>
0.342 

> <ROCS_RefTverskyCombo>
0.843 

> <ROCS_FitTversky>
1.437 

> <ROCS_FitColorTversky>
0.729 

> <ROCS_FitTverskyCombo>
2.165 

> <ROCS_ColorScore>
-3.887

> <ROCS_Overlap>
848.360

> <ROCS_Rank>
331                 

$$$$
untitled-dbase-1175_80
  -OEChem-06042309053D

 25 25  0     1  0  0  0  0  0999 V2000
   -4.9710   12.6768  -29.8678 C   0  0  0  0  0  0  0  0  0  0  0  0
   -4.9626   11.1131  -31.7094 C   0  0  0  0  0  0  0  0  0  0  0  0
   -5.9738   11.9356  -29.2429 C   0  0  0  0  0  0  0  0  0  0  0  0
   -6.4710   10.7831  -29.8512 C   0  0  0  0  0  0  0  0  0  0  0  0
   -4.4654   12.2656  -31.1011 C   0  0  0  0  0  0  0  0  0  0  0  0
   -5.9654   10.3718  -31.0845 C   0  0  0  0  0  0  0  0  0  0  0  0
   -6.5071   12.3990  -27.9072 C   0  0  0  0  0  0  0  0  0  0  0  0
   -6.1629   10.3728  -26.3909 C   0  0  0  0  0  0  0  0  0  0  0  0
   -5.7226   11.7991  -26.7320 C   0  0  2  0  0  0  0  0  0  0  0  0
   -7.5595   10.3282  -26.0227 N   0  0  0  0  0  0  0  0  0  0  0  0
   -7.4523   10.0686  -29.2273 O   0  0  0  0  0  0  0  0  0  0  0  0
   -5.8899   12.6316  -25.5843 O   0  0  0  0  0  0  0  0  0  0  0  0
   -3.2281   13.1808  -31.8718 Cl  0  0  0  0  0  0  0  0  0  0  0  0
   -6.6157    8.8112  -31.9428 Br  0  0  0  0  0  0  0  0  0  0  0  0
   -4.5855   13.5750  -29.3897 H   0  0  0  0  0  0  0  0  0  0  0  0
   -4.5660   10.7961  -32.6714 H   0  0  0  0  0  0  0  0  0  0  0  0
   -6.4715   13.4955  -27.8760 H   0  0  0  0  0  0  0  0  0  0  0  0
   -7.5659   12.1178  -27.8414 H   0  0  0  0  0  0  0  0  0  0  0  0
   -5.5750    9.9915  -25.5491 H   0  0  0  0  0  0  0  0  0  0  0  0
   -5.9945    9.7091  -27.2454 H   0  0  0  0  0  0  0  0  0  0  0  0
   -4.6510   11.7818  -26.9655 H   0  0  0  0  0  0  0  0  0  0  0  0
   -7.8137    9.3849  -25.8216 H   0  0  0  0  0  0  0  0  0  0  0  0
   -7.7016   10.8971  -25.2158 H   0  0  0  0  0  0  0  0  0  0  0  0
   -7.6962    9.2994  -29.7641 H   0  0  0  0  0  0  0  0  0  0  0  0
   -6.8404   12.6509  -25.3964 H   0  0  0  0  0  0  0  0  0  0  0  0
  1  3  2  0  0  0  0
  1  5  1  0  0  0  0
  2  5  2  0  0  0  0
  2  6  1  0  0  0  0
  3  4  1  0  0  0  0
  3  7  1  0  0  0  0
  4  6  2  0  0  0  0
  4 11  1  0  0  0  0
  5 13  1  0  0  0  0
  6 14  1  0  0  0  0
  7  9  1  0  0  0  0
  8  9  1  0  0  0  0
  8 10  1  0  0  0  0
  9 12  1  0  0  0  0
  1 15  1  0  0  0  0
  2 16  1  0  0  0  0
  7 17  1  0  0  0  0
  7 18  1  0  0  0  0
  8 19  1  0  0  0  0
  8 20  1  0  0  0  0
  9 21  1  0  0  0  0
 10 22  1  0  0  0  0
 10 23  1  0  0  0  0
 11 24  1  0  0  0  0
 12 25  1  0  0  0  0
M  END
> <id>
EN300-1922904

> <smiles>
NCC(O)CC=1C=C(Cl)C=C(Br)C1O

> <IUPAC Name>
2-(3-amino-2-hydroxypropyl)-6-bromo-4-chlorophenol

> <CAS>
2228853-41-4

> <URL>
https://www.enaminestore.com/catalog/EN300-1922904

> <ROCS_ShapeQuery>
_x1604L0AP1_x0771L0AP1

> <ROCS_TanimotoCombo>
0.894 

> <ROCS_ShapeTanimoto>
0.439 

> <ROCS_ColorTanimoto>
0.455 

> <ROCS_RefTversky>
0.418 

> <ROCS_RefColorTversky>
0.535 

> <ROCS_RefTverskyCombo>
0.954 

> <ROCS_FitTversky>
1.123 

> <ROCS_FitColorTversky>
0.753 

> <ROCS_FitTverskyCombo>
1.876 

> <ROCS_ColorScore>
-6.163

> <ROCS_Overlap>
709.792

> <ROCS_Rank>
332                 

$$$$
untitled-dbase-22_0
  -OEChem-06042309053D

 17 17  0     0  0  0  0  0  0999 V2000
   -4.5874   12.4710  -29.8452 C   0  0  0  0  0  0  0  0  0  0  0  0
   -5.5668   11.7784  -29.1335 C   0  0  0  0  0  0  0  0  0  0  0  0
   -5.0597   11.1310  -31.7993 C   0  0  0  0  0  0  0  0  0  0  0  0
   -4.3339   12.1474  -31.1782 C   0  0  0  0  0  0  0  0  0  0  0  0
   -6.2926   10.7620  -29.7546 C   0  0  0  0  0  0  0  0  0  0  0  0
   -6.0391   10.4383  -31.0875 C   0  0  0  0  0  0  0  0  0  0  0  0
   -2.6744   13.8509  -31.1756 C   0  0  0  0  0  0  0  0  0  0  0  0
   -7.2426   10.1042  -29.0312 O   0  0  0  0  0  0  0  0  0  0  0  0
   -3.3782   12.8238  -31.8723 O   0  0  0  0  0  0  0  0  0  0  0  0
   -7.0056    9.0634  -31.9639 Br  0  0  0  0  0  0  0  0  0  0  0  0
   -4.0255   13.2619  -29.3559 H   0  0  0  0  0  0  0  0  0  0  0  0
   -5.7588   12.0360  -28.0954 H   0  0  0  0  0  0  0  0  0  0  0  0
   -4.8529   10.8878  -32.8390 H   0  0  0  0  0  0  0  0  0  0  0  0
   -1.9418   14.3096  -31.8442 H   0  0  0  0  0  0  0  0  0  0  0  0
   -2.1712   13.4228  -30.3050 H   0  0  0  0  0  0  0  0  0  0  0  0
   -3.3879   14.6094  -30.8452 H   0  0  0  0  0  0  0  0  0  0  0  0
   -7.6696    9.4268  -29.5781 H   0  0  0  0  0  0  0  0  0  0  0  0
  1  2  1  0  0  0  0
  1  4  2  0  0  0  0
  2  5  2  0  0  0  0
  3  4  1  0  0  0  0
  3  6  2  0  0  0  0
  4  9  1  0  0  0  0
  5  6  1  0  0  0  0
  5  8  1  0  0  0  0
  6 10  1  0  0  0  0
  7  9  1  0  0  0  0
  1 11  1  0  0  0  0
  2 12  1  0  0  0  0
  3 13  1  0  0  0  0
  7 14  1  0  0  0  0
  7 15  1  0  0  0  0
  7 16  1  0  0  0  0
  8 17  1  0  0  0  0
M  END
> <id>
EN300-103076

> <smiles>
COC=1C=CC(O)=C(Br)C1

> <MDLNUMBER>
MFCD02113712

> <IUPAC Name>
2-bromo-4-methoxyphenol

> <CAS>
17332-11-5

> <Purity>
95

> <URL>
https://www.enaminestore.com/catalog/EN300-103076

> <MP>
40-45

> <ROCS_ShapeQuery>
_x1604L0AP1_x0771L0AP1

> <ROCS_TanimotoCombo>
0.894 

> <ROCS_ShapeTanimoto>
0.481 

> <ROCS_ColorTanimoto>
0.413 

> <ROCS_RefTversky>
0.418 

> <ROCS_RefColorTversky>
0.429 

> <ROCS_RefTverskyCombo>
0.848 

> <ROCS_FitTversky>
1.451 

> <ROCS_FitColorTversky>
0.914 

> <ROCS_FitTverskyCombo>
2.366 

> <ROCS_ColorScore>
-4.879

> <ROCS_Overlap>
706.643

> <ROCS_Rank>
333                 

$$$$
untitled-dbase-1181_59
  -OEChem-06042309053D

 24 24  0     0  0  0  0  0  0999 V2000
   -4.6062   12.5621  -30.3625 C   0  0  0  0  0  0  0  0  0  0  0  0
   -5.1431   10.9105  -32.0422 C   0  0  0  0  0  0  0  0  0  0  0  0
   -5.5296   11.9795  -29.4945 C   0  0  0  0  0  0  0  0  0  0  0  0
   -6.2597   10.8624  -29.9003 C   0  0  0  0  0  0  0  0  0  0  0  0
   -4.4130   12.0276  -31.6364 C   0  0  0  0  0  0  0  0  0  0  0  0
   -6.0665   10.3279  -31.1741 C   0  0  0  0  0  0  0  0  0  0  0  0
   -5.0262   12.4065  -25.1090 C   0  0  0  0  0  0  0  0  0  0  0  0
   -5.7209   12.5676  -28.1351 C   0  0  0  0  0  0  0  0  0  0  0  0
   -6.1002   11.5329  -27.0696 C   0  0  0  0  0  0  0  0  0  0  0  0
   -6.2989   12.1280  -25.7752 N   0  0  0  0  0  0  0  0  0  0  0  0
   -7.1595   10.3038  -29.0395 O   0  0  0  0  0  0  0  0  0  0  0  0
   -3.2736   12.7471  -32.7073 Cl  0  0  0  0  0  0  0  0  0  0  0  0
   -7.0399    8.8107  -31.7619 Br  0  0  0  0  0  0  0  0  0  0  0  0
   -4.0384   13.4330  -30.0421 H   0  0  0  0  0  0  0  0  0  0  0  0
   -4.9898   10.4971  -33.0366 H   0  0  0  0  0  0  0  0  0  0  0  0
   -4.4235   13.0805  -25.7356 H   0  0  0  0  0  0  0  0  0  0  0  0
   -5.2182   12.8838  -24.1368 H   0  0  0  0  0  0  0  0  0  0  0  0
   -4.4800   11.4645  -24.9535 H   0  0  0  0  0  0  0  0  0  0  0  0
   -6.5124   13.3336  -28.1785 H   0  0  0  0  0  0  0  0  0  0  0  0
   -4.8131   13.1062  -27.8157 H   0  0  0  0  0  0  0  0  0  0  0  0
   -7.0385   11.0361  -27.3359 H   0  0  0  0  0  0  0  0  0  0  0  0
   -5.3256   10.7662  -26.9653 H   0  0  0  0  0  0  0  0  0  0  0  0
   -6.8458   11.4993  -25.1771 H   0  0  0  0  0  0  0  0  0  0  0  0
   -7.5884    9.5407  -29.4556 H   0  0  0  0  0  0  0  0  0  0  0  0
  1  3  2  0  0  0  0
  1  5  1  0  0  0  0
  2  5  2  0  0  0  0
  2  6  1  0  0  0  0
  3  4  1  0  0  0  0
  3  8  1  0  0  0  0
  4  6  2  0  0  0  0
  4 11  1  0  0  0  0
  5 12  1  0  0  0  0
  6 13  1  0  0  0  0
  7 10  1  0  0  0  0
  8  9  1  0  0  0  0
  9 10  1  0  0  0  0
  1 14  1  0  0  0  0
  2 15  1  0  0  0  0
  7 16  1  0  0  0  0
  7 17  1  0  0  0  0
  7 18  1  0  0  0  0
  8 19  1  0  0  0  0
  8 20  1  0  0  0  0
  9 21  1  0  0  0  0
  9 22  1  0  0  0  0
 10 23  1  0  0  0  0
 11 24  1  0  0  0  0
M  END
> <id>
EN300-1922558

> <smiles>
CNCCC=1C=C(Cl)C=C(Br)C1O

> <IUPAC Name>
2-bromo-4-chloro-6-[2-(methylamino)ethyl]phenol

> <CAS>
1784349-28-5

> <URL>
https://www.enaminestore.com/catalog/EN300-1922558

> <ROCS_ShapeQuery>
_x1604L0AP1_x0771L0AP1

> <ROCS_TanimotoCombo>
0.894 

> <ROCS_ShapeTanimoto>
0.453 

> <ROCS_ColorTanimoto>
0.441 

> <ROCS_RefTversky>
0.421 

> <ROCS_RefColorTversky>
0.474 

> <ROCS_RefTverskyCombo>
0.895 

> <ROCS_FitTversky>
1.206 

> <ROCS_FitColorTversky>
0.861 

> <ROCS_FitTverskyCombo>
2.068 

> <ROCS_ColorScore>
-5.413

> <ROCS_Overlap>
712.430

> <ROCS_Rank>
334                 

$$$$
untitled-dbase-762_9
  -OEChem-06042309053D

 24 24  0     0  0  0  0  0  0999 V2000
   -5.0201   11.3404  -31.7650 C   0  0  0  0  0  0  0  0  0  0  0  0
   -4.5032   12.4652  -29.6902 C   0  0  0  0  0  0  0  0  0  0  0  0
   -6.0139   10.6052  -31.1189 C   0  0  0  0  0  0  0  0  0  0  0  0
   -6.2523   10.8000  -29.7584 C   0  0  0  0  0  0  0  0  0  0  0  0
   -4.2647   12.2704  -31.0507 C   0  0  0  0  0  0  0  0  0  0  0  0
   -5.4970   11.7300  -29.0440 C   0  0  0  0  0  0  0  0  0  0  0  0
   -6.1504    8.2076  -31.8862 C   0  0  0  0  0  0  0  0  0  0  0  0
   -8.2537    9.4692  -31.3422 C   0  0  0  0  0  0  0  0  0  0  0  0
   -6.8328    9.5875  -31.9239 C   0  0  0  0  0  0  0  0  0  0  0  0
   -6.9632    9.9738  -33.3235 N   0  0  0  0  0  0  0  0  0  0  0  0
   -7.2280   10.0729  -29.1404 O   0  0  0  0  0  0  0  0  0  0  0  0
   -3.0384   13.1772  -31.8484 Cl  0  0  0  0  0  0  0  0  0  0  0  0
   -5.7913   12.0228  -27.1941 Br  0  0  0  0  0  0  0  0  0  0  0  0
   -4.8375   11.1858  -32.8264 H   0  0  0  0  0  0  0  0  0  0  0  0
   -3.9116   13.1911  -29.1367 H   0  0  0  0  0  0  0  0  0  0  0  0
   -6.7250    7.4690  -32.4581 H   0  0  0  0  0  0  0  0  0  0  0  0
   -5.1472    8.2507  -32.3281 H   0  0  0  0  0  0  0  0  0  0  0  0
   -6.0463    7.8225  -30.8661 H   0  0  0  0  0  0  0  0  0  0  0  0
   -8.8513    8.7444  -31.9083 H   0  0  0  0  0  0  0  0  0  0  0  0
   -8.7808   10.4301  -31.3882 H   0  0  0  0  0  0  0  0  0  0  0  0
   -8.2496    9.1440  -30.2962 H   0  0  0  0  0  0  0  0  0  0  0  0
   -7.4197   10.8550  -33.3641 H   0  0  0  0  0  0  0  0  0  0  0  0
   -6.0532   10.0339  -33.7174 H   0  0  0  0  0  0  0  0  0  0  0  0
   -7.2790   10.3137  -28.2030 H   0  0  0  0  0  0  0  0  0  0  0  0
  1  3  2  0  0  0  0
  1  5  1  0  0  0  0
  2  5  2  0  0  0  0
  2  6  1  0  0  0  0
  3  4  1  0  0  0  0
  3  9  1  0  0  0  0
  4  6  2  0  0  0  0
  4 11  1  0  0  0  0
  5 12  1  0  0  0  0
  6 13  1  0  0  0  0
  7  9  1  0  0  0  0
  8  9  1  0  0  0  0
  9 10  1  0  0  0  0
  1 14  1  0  0  0  0
  2 15  1  0  0  0  0
  7 16  1  0  0  0  0
  7 17  1  0  0  0  0
  7 18  1  0  0  0  0
  8 19  1  0  0  0  0
  8 20  1  0  0  0  0
  8 21  1  0  0  0  0
 10 22  1  0  0  0  0
 10 23  1  0  0  0  0
 11 24  1  0  0  0  0
M  END
> <id>
EN300-1896882

> <smiles>
CC(C)(N)C=1C=C(Cl)C=C(Br)C1O

> <MDLNUMBER>
MFCD19696996

> <IUPAC Name>
2-(2-aminopropan-2-yl)-6-bromo-4-chlorophenol

> <CAS>
1314785-80-2

> <URL>
https://www.enaminestore.com/catalog/EN300-1896882

> <ROCS_ShapeQuery>
_x1604L0AP1_x0771L0AP1

> <ROCS_TanimotoCombo>
0.894 

> <ROCS_ShapeTanimoto>
0.546 

> <ROCS_ColorTanimoto>
0.348 

> <ROCS_RefTversky>
0.478 

> <ROCS_RefColorTversky>
0.421 

> <ROCS_RefTverskyCombo>
0.899 

> <ROCS_FitTversky>
1.349 

> <ROCS_FitColorTversky>
0.667 

> <ROCS_FitTverskyCombo>
2.016 

> <ROCS_ColorScore>
-4.826

> <ROCS_Overlap>
810.583

> <ROCS_Rank>
335                 

$$$$
untitled-dbase-1179_476
  -OEChem-06042309053D

 33 33  0     0  0  0  0  0  0999 V2000
   -4.4687   11.3655  -31.8773 C   0  0  0  0  0  0  0  0  0  0  0  0
   -4.2810   11.7253  -30.5428 C   0  0  0  0  0  0  0  0  0  0  0  0
   -5.5768   10.6021  -32.2446 C   0  0  0  0  0  0  0  0  0  0  0  0
   -5.2013   11.3214  -29.5755 C   0  0  0  0  0  0  0  0  0  0  0  0
   -6.3094   10.5579  -29.9428 C   0  0  0  0  0  0  0  0  0  0  0  0
   -6.4971   10.1982  -31.2773 C   0  0  0  0  0  0  0  0  0  0  0  0
   -4.0421    8.4381  -33.3356 C   0  0  0  0  0  0  0  0  0  0  0  0
   -5.0085    8.7075  -35.6200 C   0  0  0  0  0  0  0  0  0  0  0  0
   -4.2417   10.7887  -27.4657 C   0  0  0  0  0  0  0  0  0  0  0  0
   -5.7343   10.2406  -33.7035 C   0  0  0  0  0  0  0  0  0  0  0  0
   -6.4189    7.7533  -33.7818 C   0  0  0  0  0  0  0  0  0  0  0  0
   -5.3277    8.7941  -34.1163 C   0  0  0  0  0  0  0  0  0  0  0  0
   -7.1958   10.1753  -28.9782 O   0  0  0  0  0  0  0  0  0  0  0  0
   -6.2432    6.5661  -34.5437 O   0  0  0  0  0  0  0  0  0  0  0  0
   -5.0041   11.6808  -28.2762 O   0  0  0  0  0  0  0  0  0  0  0  0
   -8.0168    9.1640  -31.7711 Br  0  0  0  0  0  0  0  0  0  0  0  0
   -3.7456   11.6860  -32.6228 H   0  0  0  0  0  0  0  0  0  0  0  0
   -3.4162   12.3211  -30.2638 H   0  0  0  0  0  0  0  0  0  0  0  0
   -4.2101    8.4834  -32.2536 H   0  0  0  0  0  0  0  0  0  0  0  0
   -3.2229    9.1255  -33.5739 H   0  0  0  0  0  0  0  0  0  0  0  0
   -3.7031    7.4238  -33.5756 H   0  0  0  0  0  0  0  0  0  0  0  0
   -5.8877    8.9510  -36.2267 H   0  0  0  0  0  0  0  0  0  0  0  0
   -4.6652    7.7075  -35.9045 H   0  0  0  0  0  0  0  0  0  0  0  0
   -4.2132    9.4104  -35.8942 H   0  0  0  0  0  0  0  0  0  0  0  0
   -4.1600   11.1938  -26.4542 H   0  0  0  0  0  0  0  0  0  0  0  0
   -3.2469   10.6606  -27.8998 H   0  0  0  0  0  0  0  0  0  0  0  0
   -4.7482    9.8213  -27.4286 H   0  0  0  0  0  0  0  0  0  0  0  0
   -6.7833   10.4144  -33.9831 H   0  0  0  0  0  0  0  0  0  0  0  0
   -5.1677   10.9692  -34.3000 H   0  0  0  0  0  0  0  0  0  0  0  0
   -6.4032    7.4870  -32.7199 H   0  0  0  0  0  0  0  0  0  0  0  0
   -7.4145    8.1532  -34.0070 H   0  0  0  0  0  0  0  0  0  0  0  0
   -6.9122   10.5103  -28.1140 H   0  0  0  0  0  0  0  0  0  0  0  0
   -6.9566    5.9601  -34.2861 H   0  0  0  0  0  0  0  0  0  0  0  0
  1  2  1  0  0  0  0
  1  3  2  0  0  0  0
  2  4  2  0  0  0  0
  3  6  1  0  0  0  0
  3 10  1  0  0  0  0
  4  5  1  0  0  0  0
  4 15  1  0  0  0  0
  5  6  2  0  0  0  0
  5 13  1  0  0  0  0
  6 16  1  0  0  0  0
  7 12  1  0  0  0  0
  8 12  1  0  0  0  0
  9 15  1  0  0  0  0
 10 12  1  0  0  0  0
 11 12  1  0  0  0  0
 11 14  1  0  0  0  0
  1 17  1  0  0  0  0
  2 18  1  0  0  0  0
  7 19  1  0  0  0  0
  7 20  1  0  0  0  0
  7 21  1  0  0  0  0
  8 22  1  0  0  0  0
  8 23  1  0  0  0  0
  8 24  1  0  0  0  0
  9 25  1  0  0  0  0
  9 26  1  0  0  0  0
  9 27  1  0  0  0  0
 10 28  1  0  0  0  0
 10 29  1  0  0  0  0
 11 30  1  0  0  0  0
 11 31  1  0  0  0  0
 13 32  1  0  0  0  0
 14 33  1  0  0  0  0
M  END
> <id>
EN300-1936273

> <smiles>
COC=1C=CC(CC(C)(C)CO)=C(Br)C1O

> <IUPAC Name>
2-bromo-3-(3-hydroxy-2,2-dimethylpropyl)-6-methoxyphenol

> <CAS>
2229032-71-5

> <URL>
https://www.enaminestore.com/catalog/EN300-1936273

> <ROCS_ShapeQuery>
_x1604L0AP1_x0771L0AP1

> <ROCS_TanimotoCombo>
0.894 

> <ROCS_ShapeTanimoto>
0.475 

> <ROCS_ColorTanimoto>
0.419 

> <ROCS_RefTversky>
0.459 

> <ROCS_RefColorTversky>
0.505 

> <ROCS_RefTverskyCombo>
0.964 

> <ROCS_FitTversky>
1.079 

> <ROCS_FitColorTversky>
0.711 

> <ROCS_FitTverskyCombo>
1.789 

> <ROCS_ColorScore>
-5.817

> <ROCS_Overlap>
780.321

> <ROCS_Rank>
336                 

$$$$
untitled-dbase-277_163
  -OEChem-06042309053D

 22 22  0     1  0  0  0  0  0999 V2000
   -4.3782   11.9201  -31.7562 C   0  0  0  0  0  0  0  0  0  0  0  0
   -4.4091   12.4143  -30.4522 C   0  0  0  0  0  0  0  0  0  0  0  0
   -5.2343   10.8841  -32.1299 C   0  0  0  0  0  0  0  0  0  0  0  0
   -5.2959   11.8725  -29.5218 C   0  0  0  0  0  0  0  0  0  0  0  0
   -6.1520   10.8364  -29.8955 C   0  0  0  0  0  0  0  0  0  0  0  0
   -6.1211   10.3423  -31.1995 C   0  0  0  0  0  0  0  0  0  0  0  0
   -6.3310   11.7119  -27.2179 C   0  0  0  0  0  0  0  0  0  0  0  0
   -5.3116   12.4157  -28.1308 C   0  0  1  0  0  0  0  0  0  0  0  0
   -3.9902   12.3679  -27.5246 N   0  0  0  0  0  0  0  0  0  0  0  0
   -7.0128   10.3156  -28.9734 O   0  0  0  0  0  0  0  0  0  0  0  0
   -6.3116   12.3037  -25.9229 O   0  0  0  0  0  0  0  0  0  0  0  0
   -7.2689    8.9361  -31.7466 Br  0  0  0  0  0  0  0  0  0  0  0  0
   -3.6881   12.3422  -32.4808 H   0  0  0  0  0  0  0  0  0  0  0  0
   -3.7404   13.2232  -30.1702 H   0  0  0  0  0  0  0  0  0  0  0  0
   -5.1962   10.5123  -33.1507 H   0  0  0  0  0  0  0  0  0  0  0  0
   -7.3446   11.8239  -27.6181 H   0  0  0  0  0  0  0  0  0  0  0  0
   -6.1118   10.6439  -27.1111 H   0  0  0  0  0  0  0  0  0  0  0  0
   -5.5622   13.4911  -28.1402 H   0  0  0  0  0  0  0  0  0  0  0  0
   -3.3653   12.9002  -28.0857 H   0  0  0  0  0  0  0  0  0  0  0  0
   -4.0483   12.7531  -26.6098 H   0  0  0  0  0  0  0  0  0  0  0  0
   -7.5410    9.6083  -29.3736 H   0  0  0  0  0  0  0  0  0  0  0  0
   -6.9673   11.8270  -25.3901 H   0  0  0  0  0  0  0  0  0  0  0  0
  1  2  1  0  0  0  0
  1  3  2  0  0  0  0
  2  4  2  0  0  0  0
  3  6  1  0  0  0  0
  4  5  1  0  0  0  0
  4  8  1  0  0  0  0
  5  6  2  0  0  0  0
  5 10  1  0  0  0  0
  6 12  1  0  0  0  0
  7  8  1  0  0  0  0
  7 11  1  0  0  0  0
  8  9  1  0  0  0  0
  1 13  1  0  0  0  0
  2 14  1  0  0  0  0
  3 15  1  0  0  0  0
  7 16  1  0  0  0  0
  7 17  1  0  0  0  0
  8 18  1  0  0  0  0
  9 19  1  0  0  0  0
  9 20  1  0  0  0  0
 10 21  1  0  0  0  0
 11 22  1  0  0  0  0
M  END
> <id>
EN300-1894830

> <smiles>
NC(CO)C=1C=CC=C(Br)C1O

> <MDLNUMBER>
MFCD24522396

> <IUPAC Name>
2-(1-amino-2-hydroxyethyl)-6-bromophenol

> <CAS>
1337268-77-5

> <URL>
https://www.enaminestore.com/catalog/EN300-1894830

> <ROCS_ShapeQuery>
_x1604L0AP1_x0771L0AP1

> <ROCS_TanimotoCombo>
0.894 

> <ROCS_ShapeTanimoto>
0.431 

> <ROCS_ColorTanimoto>
0.463 

> <ROCS_RefTversky>
0.401 

> <ROCS_RefColorTversky>
0.541 

> <ROCS_RefTverskyCombo>
0.943 

> <ROCS_FitTversky>
1.204 

> <ROCS_FitColorTversky>
0.762 

> <ROCS_FitTverskyCombo>
1.965 

> <ROCS_ColorScore>
-6.234

> <ROCS_Overlap>
679.441

> <ROCS_Rank>
337                 

$$$$
untitled-dbase-1376_163
  -OEChem-06042309053D

 22 22  0     1  0  0  0  0  0999 V2000
   -4.3782   11.9201  -31.7562 C   0  0  0  0  0  0  0  0  0  0  0  0
   -4.4091   12.4143  -30.4522 C   0  0  0  0  0  0  0  0  0  0  0  0
   -5.2343   10.8841  -32.1299 C   0  0  0  0  0  0  0  0  0  0  0  0
   -5.2959   11.8725  -29.5218 C   0  0  0  0  0  0  0  0  0  0  0  0
   -6.1520   10.8364  -29.8955 C   0  0  0  0  0  0  0  0  0  0  0  0
   -6.1211   10.3423  -31.1995 C   0  0  0  0  0  0  0  0  0  0  0  0
   -6.3310   11.7119  -27.2179 C   0  0  0  0  0  0  0  0  0  0  0  0
   -5.3116   12.4157  -28.1308 C   0  0  1  0  0  0  0  0  0  0  0  0
   -3.9902   12.3679  -27.5246 N   0  0  0  0  0  0  0  0  0  0  0  0
   -7.0128   10.3156  -28.9734 O   0  0  0  0  0  0  0  0  0  0  0  0
   -6.3116   12.3037  -25.9229 O   0  0  0  0  0  0  0  0  0  0  0  0
   -7.2689    8.9361  -31.7466 Br  0  0  0  0  0  0  0  0  0  0  0  0
   -3.6881   12.3422  -32.4808 H   0  0  0  0  0  0  0  0  0  0  0  0
   -3.7404   13.2232  -30.1702 H   0  0  0  0  0  0  0  0  0  0  0  0
   -5.1962   10.5123  -33.1507 H   0  0  0  0  0  0  0  0  0  0  0  0
   -7.3446   11.8239  -27.6181 H   0  0  0  0  0  0  0  0  0  0  0  0
   -6.1118   10.6439  -27.1111 H   0  0  0  0  0  0  0  0  0  0  0  0
   -5.5622   13.4911  -28.1402 H   0  0  0  0  0  0  0  0  0  0  0  0
   -3.3653   12.9002  -28.0857 H   0  0  0  0  0  0  0  0  0  0  0  0
   -4.0483   12.7531  -26.6098 H   0  0  0  0  0  0  0  0  0  0  0  0
   -7.5410    9.6083  -29.3736 H   0  0  0  0  0  0  0  0  0  0  0  0
   -6.9673   11.8270  -25.3901 H   0  0  0  0  0  0  0  0  0  0  0  0
  1  2  1  0  0  0  0
  1  3  2  0  0  0  0
  2  4  2  0  0  0  0
  3  6  1  0  0  0  0
  4  5  1  0  0  0  0
  4  8  1  0  0  0  0
  5  6  2  0  0  0  0
  5 10  1  0  0  0  0
  6 12  1  0  0  0  0
  7  8  1  0  0  0  0
  7 11  1  0  0  0  0
  8  9  1  1  0  0  0
  1 13  1  0  0  0  0
  2 14  1  0  0  0  0
  3 15  1  0  0  0  0
  7 16  1  0  0  0  0
  7 17  1  0  0  0  0
  8 18  1  0  0  0  0
  9 19  1  0  0  0  0
  9 20  1  0  0  0  0
 10 21  1  0  0  0  0
 11 22  1  0  0  0  0
M  END
> <id>
EN300-1911057

> <smiles>
N[C@H](CO)C=1C=CC=C(Br)C1O

> <MDLNUMBER>
MFCD11009585

> <IUPAC Name>
2-[(1S)-1-amino-2-hydroxyethyl]-6-bromophenol

> <CAS>
1213907-93-7

> <URL>
https://www.enaminestore.com/catalog/EN300-1911057

> <ROCS_ShapeQuery>
_x1604L0AP1_x0771L0AP1

> <ROCS_TanimotoCombo>
0.894 

> <ROCS_ShapeTanimoto>
0.431 

> <ROCS_ColorTanimoto>
0.463 

> <ROCS_RefTversky>
0.401 

> <ROCS_RefColorTversky>
0.541 

> <ROCS_RefTverskyCombo>
0.943 

> <ROCS_FitTversky>
1.204 

> <ROCS_FitColorTversky>
0.762 

> <ROCS_FitTverskyCombo>
1.965 

> <ROCS_ColorScore>
-6.234

> <ROCS_Overlap>
679.441

> <ROCS_Rank>
338                 

$$$$
untitled-dbase-96_0
  -OEChem-06042309053D

 14 14  0     0  0  0  0  0  0999 V2000
   -3.3134   12.8375  -31.9074 C   0  0  0  0  0  0  0  0  0  0  0  0
   -4.5757   12.4610  -29.8473 C   0  0  0  0  0  0  0  0  0  0  0  0
   -5.0515   11.1198  -31.7997 C   0  0  0  0  0  0  0  0  0  0  0  0
   -4.3218   12.1339  -31.1793 C   0  0  0  0  0  0  0  0  0  0  0  0
   -6.2888   10.7599  -29.7560 C   0  0  0  0  0  0  0  0  0  0  0  0
   -5.5591   11.7739  -29.1357 C   0  0  0  0  0  0  0  0  0  0  0  0
   -6.0351   10.4328  -31.0881 C   0  0  0  0  0  0  0  0  0  0  0  0
   -2.4944   13.4090  -32.4985 N   0  0  0  0  0  0  0  0  0  0  0  0
   -7.2430   10.1063  -29.0343 O   0  0  0  0  0  0  0  0  0  0  0  0
   -5.7979   12.0940  -27.8563 F   0  0  0  0  0  0  0  0  0  0  0  0
   -7.0093    9.0626  -31.9635 Br  0  0  0  0  0  0  0  0  0  0  0  0
   -4.0142   13.2474  -29.3489 H   0  0  0  0  0  0  0  0  0  0  0  0
   -4.8511   10.8677  -32.8392 H   0  0  0  0  0  0  0  0  0  0  0  0
   -7.2821   10.4619  -28.1329 H   0  0  0  0  0  0  0  0  0  0  0  0
  1  4  1  0  0  0  0
  1  8  3  0  0  0  0
  2  4  2  0  0  0  0
  2  6  1  0  0  0  0
  3  4  1  0  0  0  0
  3  7  2  0  0  0  0
  5  6  2  0  0  0  0
  5  7  1  0  0  0  0
  5  9  1  0  0  0  0
  6 10  1  0  0  0  0
  7 11  1  0  0  0  0
  2 12  1  0  0  0  0
  3 13  1  0  0  0  0
  9 14  1  0  0  0  0
M  END
> <id>
EN300-310748

> <smiles>
OC=1C(F)=CC(C#N)=CC1Br

> <MDLNUMBER>
MFCD24729720

> <IUPAC Name>
3-bromo-5-fluoro-4-hydroxybenzonitrile

> <CAS>
1235841-38-9

> <Purity>
95

> <URL>
https://www.enaminestore.com/catalog/EN300-310748

> <ROCS_ShapeQuery>
_x1604L0AP1_x0771L0AP1

> <ROCS_TanimotoCombo>
0.893 

> <ROCS_ShapeTanimoto>
0.481 

> <ROCS_ColorTanimoto>
0.413 

> <ROCS_RefTversky>
0.427 

> <ROCS_RefColorTversky>
0.429 

> <ROCS_RefTverskyCombo>
0.856 

> <ROCS_FitTversky>
1.353 

> <ROCS_FitColorTversky>
0.915 

> <ROCS_FitTverskyCombo>
2.268 

> <ROCS_ColorScore>
-4.879

> <ROCS_Overlap>
722.213

> <ROCS_Rank>
339                 

$$$$
untitled-dbase-480_12
  -OEChem-06042309053D

 16 16  0     0  0  0  0  0  0999 V2000
   -4.5804   12.4627  -29.8337 C   0  0  0  0  0  0  0  0  0  0  0  0
   -5.5643   11.7722  -29.1261 C   0  0  0  0  0  0  0  0  0  0  0  0
   -5.0519   11.1281  -31.7917 C   0  0  0  0  0  0  0  0  0  0  0  0
   -4.3242   12.1407  -31.1665 C   0  0  0  0  0  0  0  0  0  0  0  0
   -6.2920   10.7596  -29.7513 C   0  0  0  0  0  0  0  0  0  0  0  0
   -6.0358   10.4375  -31.0841 C   0  0  0  0  0  0  0  0  0  0  0  0
   -3.2719   12.8794  -31.9220 C   0  0  0  0  0  0  0  0  0  0  0  0
   -7.2455   10.1028  -29.0316 O   0  0  0  0  0  0  0  0  0  0  0  0
   -7.0040    9.0665  -31.9648 Br  0  0  0  0  0  0  0  0  0  0  0  0
   -2.8164   14.5154  -30.9729 Br  0  0  0  0  0  0  0  0  0  0  0  0
   -4.0188   13.2499  -29.3375 H   0  0  0  0  0  0  0  0  0  0  0  0
   -5.7583   12.0287  -28.0880 H   0  0  0  0  0  0  0  0  0  0  0  0
   -4.8456   10.8841  -32.8317 H   0  0  0  0  0  0  0  0  0  0  0  0
   -3.6068   13.1706  -32.9241 H   0  0  0  0  0  0  0  0  0  0  0  0
   -2.3482   12.2981  -32.0241 H   0  0  0  0  0  0  0  0  0  0  0  0
   -7.6734    9.4281  -29.5813 H   0  0  0  0  0  0  0  0  0  0  0  0
  1  2  1  0  0  0  0
  1  4  2  0  0  0  0
  2  5  2  0  0  0  0
  3  4  1  0  0  0  0
  3  6  2  0  0  0  0
  4  7  1  0  0  0  0
  5  6  1  0  0  0  0
  5  8  1  0  0  0  0
  6  9  1  0  0  0  0
  7 10  1  0  0  0  0
  1 11  1  0  0  0  0
  2 12  1  0  0  0  0
  3 13  1  0  0  0  0
  7 14  1  0  0  0  0
  7 15  1  0  0  0  0
  8 16  1  0  0  0  0
M  END
> <id>
EN300-1912153

> <smiles>
OC=1C=CC(CBr)=CC1Br

> <MDLNUMBER>
MFCD18390265

> <IUPAC Name>
2-bromo-4-(bromomethyl)phenol

> <CAS>
52703-21-6

> <URL>
https://www.enaminestore.com/catalog/EN300-1912153

> <ROCS_ShapeQuery>
_x1604L0AP1_x0771L0AP1

> <ROCS_TanimotoCombo>
0.893 

> <ROCS_ShapeTanimoto>
0.481 

> <ROCS_ColorTanimoto>
0.413 

> <ROCS_RefTversky>
0.415 

> <ROCS_RefColorTversky>
0.429 

> <ROCS_RefTverskyCombo>
0.844 

> <ROCS_FitTversky>
1.489 

> <ROCS_FitColorTversky>
0.914 

> <ROCS_FitTverskyCombo>
2.403 

> <ROCS_ColorScore>
-4.879

> <ROCS_Overlap>
700.725

> <ROCS_Rank>
340                 

$$$$
untitled-dbase-1318_1
  -OEChem-06042309053D

 16 16  0     0  0  0  0  0  0999 V2000
   -4.6076   12.4970  -29.8402 C   0  0  0  0  0  0  0  0  0  0  0  0
   -5.5785   11.7870  -29.1339 C   0  0  0  0  0  0  0  0  0  0  0  0
   -4.3524   12.1889  -31.1765 C   0  0  0  0  0  0  0  0  0  0  0  0
   -6.2942   10.7689  -29.7638 C   0  0  0  0  0  0  0  0  0  0  0  0
   -5.0681   11.1708  -31.8065 C   0  0  0  0  0  0  0  0  0  0  0  0
   -6.0390   10.4607  -31.1001 C   0  0  0  0  0  0  0  0  0  0  0  0
   -5.9459   10.6508  -34.1855 O   0  0  0  0  0  0  0  0  0  0  0  0
   -3.6982   11.8056  -33.9091 O   0  0  0  0  0  0  0  0  0  0  0  0
   -7.2353   10.0982  -29.0398 O   0  0  0  0  0  0  0  0  0  0  0  0
   -3.9626    9.4336  -33.5374 F   0  0  0  0  0  0  0  0  0  0  0  0
   -4.6921   10.8413  -33.4872 S   0  0  0  0  0  0  0  0  0  0  0  0
   -7.0347    9.0661  -31.9323 Br  0  0  0  0  0  0  0  0  0  0  0  0
   -4.0501   13.2900  -29.3498 H   0  0  0  0  0  0  0  0  0  0  0  0
   -5.7720   12.0332  -28.0933 H   0  0  0  0  0  0  0  0  0  0  0  0
   -3.5931   12.7506  -31.7141 H   0  0  0  0  0  0  0  0  0  0  0  0
   -7.6583    9.4203  -29.5890 H   0  0  0  0  0  0  0  0  0  0  0  0
  1  2  1  0  0  0  0
  1  3  2  0  0  0  0
  2  4  2  0  0  0  0
  3  5  1  0  0  0  0
  4  6  1  0  0  0  0
  4  9  1  0  0  0  0
  5  6  2  0  0  0  0
  5 11  1  0  0  0  0
  6 12  1  0  0  0  0
  7 11  2  0  0  0  0
  8 11  2  0  0  0  0
 10 11  1  0  0  0  0
  1 13  1  0  0  0  0
  2 14  1  0  0  0  0
  3 15  1  0  0  0  0
  9 16  1  0  0  0  0
M  END
> <id>
EN300-6493391

> <smiles>
OC=1C=CC=C(C1Br)S(=O)(=O)F

> <IUPAC Name>
2-bromo-3-hydroxybenzene-1-sulfonyl fluoride

> <CAS>
2247102-65-2

> <URL>
https://www.enaminestore.com/catalog/EN300-6493391

> <ROCS_ShapeQuery>
_x1604L0AP1_x0771L0AP1

> <ROCS_TanimotoCombo>
0.893 

> <ROCS_ShapeTanimoto>
0.442 

> <ROCS_ColorTanimoto>
0.451 

> <ROCS_RefTversky>
0.407 

> <ROCS_RefColorTversky>
0.432 

> <ROCS_RefTverskyCombo>
0.839 

> <ROCS_FitTversky>
1.236 

> <ROCS_FitColorTversky>
1.114 

> <ROCS_FitTverskyCombo>
2.350 

> <ROCS_ColorScore>
-4.884

> <ROCS_Overlap>
689.571

> <ROCS_Rank>
341                 

$$$$
untitled-dbase-1357_0
  -OEChem-06042309053D

 13 13  0     0  0  0  0  0  0999 V2000
   -5.5620   11.7802  -29.1461 C   0  0  0  0  0  0  0  0  0  0  0  0
   -5.0627   11.1234  -31.8111 C   0  0  0  0  0  0  0  0  0  0  0  0
   -6.2910   10.7630  -29.7621 C   0  0  0  0  0  0  0  0  0  0  0  0
   -4.5834   12.4691  -29.8627 C   0  0  0  0  0  0  0  0  0  0  0  0
   -6.0414   10.4346  -31.0945 C   0  0  0  0  0  0  0  0  0  0  0  0
   -4.3337   12.1407  -31.1951 C   0  0  0  0  0  0  0  0  0  0  0  0
   -7.2393   10.1078  -29.0341 O   0  0  0  0  0  0  0  0  0  0  0  0
   -3.7189   13.7180  -29.0364 Cl  0  0  0  0  0  0  0  0  0  0  0  0
   -7.0128    9.0583  -31.9626 Br  0  0  0  0  0  0  0  0  0  0  0  0
   -3.0183   13.0309  -32.2388 Br  0  0  0  0  0  0  0  0  0  0  0  0
   -5.7652   12.0286  -28.1068 H   0  0  0  0  0  0  0  0  0  0  0  0
   -4.8705   10.8661  -32.8508 H   0  0  0  0  0  0  0  0  0  0  0  0
   -7.6687    9.4295  -29.5781 H   0  0  0  0  0  0  0  0  0  0  0  0
  1  3  2  0  0  0  0
  1  4  1  0  0  0  0
  2  5  2  0  0  0  0
  2  6  1  0  0  0  0
  3  5  1  0  0  0  0
  3  7  1  0  0  0  0
  4  6  2  0  0  0  0
  4  8  1  0  0  0  0
  5  9  1  0  0  0  0
  6 10  1  0  0  0  0
  1 11  1  0  0  0  0
  2 12  1  0  0  0  0
  7 13  1  0  0  0  0
M  END
> <id>
EN300-1588091

> <smiles>
OC=1C=C(Cl)C(Br)=CC1Br

> <MDLNUMBER>
MFCD30661265

> <IUPAC Name>
2,4-dibromo-5-chlorophenol

> <CAS>
89284-48-0

> <Purity>
95

> <URL>
https://www.enaminestore.com/catalog/EN300-1588091

> <ROCS_ShapeQuery>
_x1604L0AP1_x0771L0AP1

> <ROCS_TanimotoCombo>
0.893 

> <ROCS_ShapeTanimoto>
0.481 

> <ROCS_ColorTanimoto>
0.413 

> <ROCS_RefTversky>
0.414 

> <ROCS_RefColorTversky>
0.429 

> <ROCS_RefTverskyCombo>
0.844 

> <ROCS_FitTversky>
1.499 

> <ROCS_FitColorTversky>
0.915 

> <ROCS_FitTverskyCombo>
2.414 

> <ROCS_ColorScore>
-4.879

> <ROCS_Overlap>
699.018

> <ROCS_Rank>
342                 

$$$$
untitled-dbase-258_6
  -OEChem-06042309053D

 24 24  0     0  0  0  0  0  0999 V2000
   -4.8039   12.5804  -29.3973 C   0  0  0  0  0  0  0  0  0  0  0  0
   -4.9572   11.3174  -31.4511 C   0  0  0  0  0  0  0  0  0  0  0  0
   -4.3719   12.3376  -30.7012 C   0  0  0  0  0  0  0  0  0  0  0  0
   -5.8209   11.8030  -28.8433 C   0  0  0  0  0  0  0  0  0  0  0  0
   -6.4062   10.7828  -29.5932 C   0  0  0  0  0  0  0  0  0  0  0  0
   -5.9743   10.5400  -30.8972 C   0  0  0  0  0  0  0  0  0  0  0  0
   -6.2534   12.0759  -27.4793 C   0  0  0  0  0  0  0  0  0  0  0  0
   -3.3109   13.1484  -31.2775 C   0  0  0  0  0  0  0  0  0  0  0  0
   -7.6835   11.7813  -27.1357 C   0  0  0  0  0  0  0  0  0  0  0  0
   -2.4573   14.0395  -33.3193 C   0  0  0  0  0  0  0  0  0  0  0  0
   -5.5340   12.5341  -26.5910 O   0  0  0  0  0  0  0  0  0  0  0  0
   -2.3967   13.6709  -30.6262 O   0  0  0  0  0  0  0  0  0  0  0  0
   -7.4005   10.0289  -29.0398 O   0  0  0  0  0  0  0  0  0  0  0  0
   -3.4459   13.2630  -32.6342 O   0  0  0  0  0  0  0  0  0  0  0  0
   -6.7431    9.1610  -31.9471 Br  0  0  0  0  0  0  0  0  0  0  0  0
   -4.3456   13.3755  -28.8128 H   0  0  0  0  0  0  0  0  0  0  0  0
   -4.6143   11.1336  -32.4671 H   0  0  0  0  0  0  0  0  0  0  0  0
   -7.8531   10.7582  -26.7645 H   0  0  0  0  0  0  0  0  0  0  0  0
   -8.3743   11.9460  -27.9771 H   0  0  0  0  0  0  0  0  0  0  0  0
   -8.0766   12.4225  -26.3267 H   0  0  0  0  0  0  0  0  0  0  0  0
   -2.6793   14.0513  -34.3892 H   0  0  0  0  0  0  0  0  0  0  0  0
   -1.4687   13.6069  -33.1462 H   0  0  0  0  0  0  0  0  0  0  0  0
   -2.4782   15.0616  -32.9339 H   0  0  0  0  0  0  0  0  0  0  0  0
   -7.7069    9.3646  -29.6754 H   0  0  0  0  0  0  0  0  0  0  0  0
  1  3  1  0  0  0  0
  1  4  2  0  0  0  0
  2  3  2  0  0  0  0
  2  6  1  0  0  0  0
  3  8  1  0  0  0  0
  4  5  1  0  0  0  0
  4  7  1  0  0  0  0
  5  6  2  0  0  0  0
  5 13  1  0  0  0  0
  6 15  1  0  0  0  0
  7  9  1  0  0  0  0
  7 11  2  0  0  0  0
  8 12  2  0  0  0  0
  8 14  1  0  0  0  0
 10 14  1  0  0  0  0
  1 16  1  0  0  0  0
  2 17  1  0  0  0  0
  9 18  1  0  0  0  0
  9 19  1  0  0  0  0
  9 20  1  0  0  0  0
 10 21  1  0  0  0  0
 10 22  1  0  0  0  0
 10 23  1  0  0  0  0
 13 24  1  0  0  0  0
M  END
> <id>
EN300-132508

> <smiles>
COC(=O)C=1C=C(Br)C(O)=C(C1)C(=O)C

> <MDLNUMBER>
MFCD22690183

> <IUPAC Name>
methyl 3-acetyl-5-bromo-4-hydroxybenzoate

> <CAS>
160753-84-4

> <Purity>
95

> <URL>
https://www.enaminestore.com/catalog/EN300-132508

> <ROCS_ShapeQuery>
_x1604L0AP1_x0771L0AP1

> <ROCS_TanimotoCombo>
0.893 

> <ROCS_ShapeTanimoto>
0.496 

> <ROCS_ColorTanimoto>
0.398 

> <ROCS_RefTversky>
0.469 

> <ROCS_RefColorTversky>
0.441 

> <ROCS_RefTverskyCombo>
0.910 

> <ROCS_FitTversky>
1.132 

> <ROCS_FitColorTversky>
0.801 

> <ROCS_FitTverskyCombo>
1.933 

> <ROCS_ColorScore>
-5.035

> <ROCS_Overlap>
796.492

> <ROCS_Rank>
343                 

$$$$
untitled-dbase-2010_0
  -OEChem-06042309053D

 21 22  0     0  0  0  0  0  0999 V2000
   -5.5305   11.2551  -33.3750 C   0  0  0  0  0  0  0  0  0  0  0  0
   -6.5254   10.4853  -33.9603 C   0  0  0  0  0  0  0  0  0  0  0  0
   -4.3951   12.2167  -29.9684 C   0  0  0  0  0  0  0  0  0  0  0  0
   -5.4488   11.3592  -31.9798 C   0  0  0  0  0  0  0  0  0  0  0  0
   -6.4004   10.6633  -31.2052 C   0  0  0  0  0  0  0  0  0  0  0  0
   -6.3186   10.7668  -29.8192 C   0  0  0  0  0  0  0  0  0  0  0  0
   -4.4534   12.1306  -31.3564 C   0  0  0  0  0  0  0  0  0  0  0  0
   -5.3291   11.5338  -29.1992 C   0  0  0  0  0  0  0  0  0  0  0  0
   -7.4111    9.8413  -33.1203 C   0  0  0  0  0  0  0  0  0  0  0  0
   -8.4971    9.0021  -33.7059 C   0  0  0  0  0  0  0  0  0  0  0  0
   -7.3669    9.9154  -31.7704 N   0  0  0  0  0  0  0  0  0  0  0  0
   -7.2367   10.0958  -29.0562 O   0  0  0  0  0  0  0  0  0  0  0  0
   -3.1199   13.1096  -32.3066 Br  0  0  0  0  0  0  0  0  0  0  0  0
   -5.2272   11.6679  -27.3100 Br  0  0  0  0  0  0  0  0  0  0  0  0
   -4.8373   11.7589  -34.0415 H   0  0  0  0  0  0  0  0  0  0  0  0
   -6.5953   10.3997  -35.0392 H   0  0  0  0  0  0  0  0  0  0  0  0
   -3.6250   12.8135  -29.4845 H   0  0  0  0  0  0  0  0  0  0  0  0
   -8.1546    7.9679  -33.8305 H   0  0  0  0  0  0  0  0  0  0  0  0
   -9.3875    8.9995  -33.0643 H   0  0  0  0  0  0  0  0  0  0  0  0
   -8.8117    9.3855  -34.6851 H   0  0  0  0  0  0  0  0  0  0  0  0
   -7.8504    9.6146  -29.6291 H   0  0  0  0  0  0  0  0  0  0  0  0
  1  2  1  0  0  0  0
  1  4  2  0  0  0  0
  2  9  2  0  0  0  0
  3  7  2  0  0  0  0
  3  8  1  0  0  0  0
  4  5  1  0  0  0  0
  4  7  1  0  0  0  0
  5  6  1  0  0  0  0
  5 11  2  0  0  0  0
  6  8  2  0  0  0  0
  6 12  1  0  0  0  0
  7 13  1  0  0  0  0
  8 14  1  0  0  0  0
  9 10  1  0  0  0  0
  9 11  1  0  0  0  0
  1 15  1  0  0  0  0
  2 16  1  0  0  0  0
  3 17  1  0  0  0  0
 10 18  1  0  0  0  0
 10 19  1  0  0  0  0
 10 20  1  0  0  0  0
 12 21  1  0  0  0  0
M  END
> <id>
EN300-25999819

> <smiles>
CC=1C=CC=2C(Br)=CC(Br)=C(O)C2N1

> <MDLNUMBER>
MFCD00023983

> <IUPAC Name>
5,7-dibromo-2-methylquinolin-8-ol

> <CAS>
15599-52-7

> <Purity>
95

> <URL>
https://www.enaminestore.com/catalog/EN300-25999819

> <MP>
126-130

> <ROCS_ShapeQuery>
_x1604L0AP1_x0771L0AP1

> <ROCS_TanimotoCombo>
0.893 

> <ROCS_ShapeTanimoto>
0.545 

> <ROCS_ColorTanimoto>
0.348 

> <ROCS_RefTversky>
0.492 

> <ROCS_RefColorTversky>
0.421 

> <ROCS_RefTverskyCombo>
0.913 

> <ROCS_FitTversky>
1.245 

> <ROCS_FitColorTversky>
0.667 

> <ROCS_FitTverskyCombo>
1.912 

> <ROCS_ColorScore>
-4.828

> <ROCS_Overlap>
836.240

> <ROCS_Rank>
344                 

$$$$
untitled-dbase-1053_60
  -OEChem-06042309053D

 21 21  0     0  0  0  0  0  0999 V2000
   -4.5733   12.4571  -29.8370 C   0  0  0  0  0  0  0  0  0  0  0  0
   -5.5608   11.7723  -29.1288 C   0  0  0  0  0  0  0  0  0  0  0  0
   -5.0424   11.1141  -31.7898 C   0  0  0  0  0  0  0  0  0  0  0  0
   -4.3141   12.1280  -31.1675 C   0  0  0  0  0  0  0  0  0  0  0  0
   -6.2891   10.7584  -29.7511 C   0  0  0  0  0  0  0  0  0  0  0  0
   -6.0299   10.4293  -31.0816 C   0  0  0  0  0  0  0  0  0  0  0  0
   -3.2580   12.8606  -31.9235 C   0  0  0  0  0  0  0  0  0  0  0  0
   -3.5360   12.9572  -33.4282 C   0  0  0  0  0  0  0  0  0  0  0  0
   -6.5018   12.4747  -34.7930 N   0  5  0  0  0  0  0  0  0  0  0  0
   -4.7899   13.6813  -33.6539 N   0  0  0  0  0  0  0  0  0  0  0  0
   -5.6800   13.0483  -34.2484 N   0  3  0  0  0  0  0  0  0  0  0  0
   -7.2461   10.1073  -29.0310 O   0  0  0  0  0  0  0  0  0  0  0  0
   -6.9987    9.0562  -31.9583 Br  0  0  0  0  0  0  0  0  0  0  0  0
   -4.0113   13.2455  -29.3431 H   0  0  0  0  0  0  0  0  0  0  0  0
   -5.7572   12.0343  -28.0925 H   0  0  0  0  0  0  0  0  0  0  0  0
   -4.8337   10.8645  -32.8279 H   0  0  0  0  0  0  0  0  0  0  0  0
   -3.1191   13.8758  -31.5136 H   0  0  0  0  0  0  0  0  0  0  0  0
   -2.2880   12.3555  -31.7781 H   0  0  0  0  0  0  0  0  0  0  0  0
   -2.7289   13.5036  -33.9268 H   0  0  0  0  0  0  0  0  0  0  0  0
   -3.5978   11.9641  -33.8860 H   0  0  0  0  0  0  0  0  0  0  0  0
   -7.6740    9.4310  -29.5785 H   0  0  0  0  0  0  0  0  0  0  0  0
  1  2  1  0  0  0  0
  1  4  2  0  0  0  0
  2  5  2  0  0  0  0
  3  4  1  0  0  0  0
  3  6  2  0  0  0  0
  4  7  1  0  0  0  0
  5  6  1  0  0  0  0
  5 12  1  0  0  0  0
  6 13  1  0  0  0  0
  7  8  1  0  0  0  0
  8 10  1  0  0  0  0
  9 11  2  0  0  0  0
 10 11  2  0  0  0  0
  1 14  1  0  0  0  0
  2 15  1  0  0  0  0
  3 16  1  0  0  0  0
  7 17  1  0  0  0  0
  7 18  1  0  0  0  0
  8 19  1  0  0  0  0
  8 20  1  0  0  0  0
 12 21  1  0  0  0  0
M  CHG  2   9  -1  11   1
M  END
> <id>
EN300-1904767

> <smiles>
OC=1C=CC(CCN=[N+]=[N-])=CC1Br

> <IUPAC Name>
4-(2-azidoethyl)-2-bromophenol

> <CAS>
1826824-07-0

> <URL>
https://www.enaminestore.com/catalog/EN300-1904767

> <ROCS_ShapeQuery>
_x1604L0AP1_x0771L0AP1

> <ROCS_TanimotoCombo>
0.893 

> <ROCS_ShapeTanimoto>
0.442 

> <ROCS_ColorTanimoto>
0.451 

> <ROCS_RefTversky>
0.416 

> <ROCS_RefColorTversky>
0.431 

> <ROCS_RefTverskyCombo>
0.847 

> <ROCS_FitTversky>
1.167 

> <ROCS_FitColorTversky>
1.113 

> <ROCS_FitTverskyCombo>
2.279 

> <ROCS_ColorScore>
-4.879

> <ROCS_Overlap>
704.997

> <ROCS_Rank>
345                 

$$$$
untitled-dbase-255_0
  -OEChem-06042309053D

 18 19  0     0  0  0  0  0  0999 V2000
   -6.5417   10.4920  -33.9610 C   0  0  0  0  0  0  0  0  0  0  0  0
   -5.5404   11.2552  -33.3780 C   0  0  0  0  0  0  0  0  0  0  0  0
   -4.3875   12.2044  -29.9738 C   0  0  0  0  0  0  0  0  0  0  0  0
   -7.4279    9.8514  -33.1190 C   0  0  0  0  0  0  0  0  0  0  0  0
   -5.4531   11.3563  -31.9829 C   0  0  0  0  0  0  0  0  0  0  0  0
   -6.4058   10.6644  -31.2061 C   0  0  0  0  0  0  0  0  0  0  0  0
   -6.3185   10.7650  -29.8203 C   0  0  0  0  0  0  0  0  0  0  0  0
   -4.4512   12.1211  -31.3617 C   0  0  0  0  0  0  0  0  0  0  0  0
   -5.3225   11.5253  -29.2024 C   0  0  0  0  0  0  0  0  0  0  0  0
   -7.3786    9.9230  -31.7691 N   0  0  0  0  0  0  0  0  0  0  0  0
   -7.2369   10.0971  -29.0549 O   0  0  0  0  0  0  0  0  0  0  0  0
   -3.1167   13.0955  -32.3150 Br  0  0  0  0  0  0  0  0  0  0  0  0
   -5.2137   11.6546  -27.3136 Br  0  0  0  0  0  0  0  0  0  0  0  0
   -6.6244   10.4027  -35.0376 H   0  0  0  0  0  0  0  0  0  0  0  0
   -4.8468   11.7564  -34.0460 H   0  0  0  0  0  0  0  0  0  0  0  0
   -3.6123   12.7959  -29.4915 H   0  0  0  0  0  0  0  0  0  0  0  0
   -8.2313    9.2407  -33.5182 H   0  0  0  0  0  0  0  0  0  0  0  0
   -7.8551    9.6199  -29.6263 H   0  0  0  0  0  0  0  0  0  0  0  0
  1  2  1  0  0  0  0
  1  4  2  0  0  0  0
  2  5  2  0  0  0  0
  3  8  2  0  0  0  0
  3  9  1  0  0  0  0
  4 10  1  0  0  0  0
  5  6  1  0  0  0  0
  5  8  1  0  0  0  0
  6  7  1  0  0  0  0
  6 10  2  0  0  0  0
  7  9  2  0  0  0  0
  7 11  1  0  0  0  0
  8 12  1  0  0  0  0
  9 13  1  0  0  0  0
  1 14  1  0  0  0  0
  2 15  1  0  0  0  0
  3 16  1  0  0  0  0
  4 17  1  0  0  0  0
 11 18  1  0  0  0  0
M  END
> <id>
EN300-21309

> <smiles>
OC=1C(Br)=CC(Br)=C2C=CC=NC12

> <MDLNUMBER>
MFCD00006785

> <IUPAC Name>
5,7-dibromoquinolin-8-ol

> <CAS>
521-74-4

> <Purity>
95

> <URL>
https://www.enaminestore.com/catalog/EN300-21309

> <MP>
199-201

> <ROCS_ShapeQuery>
_x1604L0AP1_x0771L0AP1

> <ROCS_TanimotoCombo>
0.893 

> <ROCS_ShapeTanimoto>
0.545 

> <ROCS_ColorTanimoto>
0.348 

> <ROCS_RefTversky>
0.484 

> <ROCS_RefColorTversky>
0.421 

> <ROCS_RefTverskyCombo>
0.905 

> <ROCS_FitTversky>
1.301 

> <ROCS_FitColorTversky>
0.667 

> <ROCS_FitTverskyCombo>
1.968 

> <ROCS_ColorScore>
-4.829

> <ROCS_Overlap>
820.926

> <ROCS_Rank>
346                 

$$$$
untitled-dbase-365_451
  -OEChem-06042309053D

 26 26  0     1  0  0  0  0  0999 V2000
   -7.0734   11.0178  -33.5328 C   0  0  0  0  0  0  0  0  0  0  0  0
   -6.7735   11.2059  -32.1837 C   0  0  0  0  0  0  0  0  0  0  0  0
   -6.9444    9.7528  -34.1062 C   0  0  0  0  0  0  0  0  0  0  0  0
   -6.3444   10.1290  -31.4079 C   0  0  0  0  0  0  0  0  0  0  0  0
   -6.5153    8.6759  -33.3304 C   0  0  0  0  0  0  0  0  0  0  0  0
   -6.2153    8.8640  -31.9812 C   0  0  0  0  0  0  0  0  0  0  0  0
   -4.3723   12.1742  -30.5191 C   0  0  0  0  0  0  0  0  0  0  0  0
   -2.3869   13.4560  -30.4849 C   0  0  0  0  0  0  0  0  0  0  0  0
   -5.6043   11.8356  -29.7147 C   0  0  0  0  0  0  0  0  0  0  0  0
   -6.0319   10.3859  -29.9517 C   0  0  1  0  0  0  0  0  0  0  0  0
   -4.1180   11.6861  -31.6126 O   0  0  0  0  0  0  0  0  0  0  0  0
   -6.4004    7.4545  -33.9254 O   0  0  0  0  0  0  0  0  0  0  0  0
   -7.2005   10.0942  -29.1843 O   0  0  0  0  0  0  0  0  0  0  0  0
   -3.6023   13.0690  -29.8363 O   0  0  0  0  0  0  0  0  0  0  0  0
   -5.6311    7.3873  -30.9328 Br  0  0  0  0  0  0  0  0  0  0  0  0
   -7.4071   11.8564  -34.1370 H   0  0  0  0  0  0  0  0  0  0  0  0
   -6.8775   12.1960  -31.7472 H   0  0  0  0  0  0  0  0  0  0  0  0
   -7.1794    9.6143  -35.1582 H   0  0  0  0  0  0  0  0  0  0  0  0
   -1.8494   14.1707  -29.8568 H   0  0  0  0  0  0  0  0  0  0  0  0
   -2.6172   13.9071  -31.4534 H   0  0  0  0  0  0  0  0  0  0  0  0
   -1.7669   12.5693  -30.6364 H   0  0  0  0  0  0  0  0  0  0  0  0
   -6.3915   12.5409  -30.0087 H   0  0  0  0  0  0  0  0  0  0  0  0
   -5.3840   12.0294  -28.6574 H   0  0  0  0  0  0  0  0  0  0  0  0
   -5.2523    9.6931  -29.6128 H   0  0  0  0  0  0  0  0  0  0  0  0
   -6.0954    6.7967  -33.2815 H   0  0  0  0  0  0  0  0  0  0  0  0
   -6.9703   10.2676  -28.2593 H   0  0  0  0  0  0  0  0  0  0  0  0
  1  2  1  0  0  0  0
  1  3  2  0  0  0  0
  2  4  2  0  0  0  0
  3  5  1  0  0  0  0
  4  6  1  0  0  0  0
  4 10  1  0  0  0  0
  5  6  2  0  0  0  0
  5 12  1  0  0  0  0
  6 15  1  0  0  0  0
  7  9  1  0  0  0  0
  7 11  2  0  0  0  0
  7 14  1  0  0  0  0
  8 14  1  0  0  0  0
  9 10  1  0  0  0  0
 10 13  1  1  0  0  0
  1 16  1  0  0  0  0
  2 17  1  0  0  0  0
  3 18  1  0  0  0  0
  8 19  1  0  0  0  0
  8 20  1  0  0  0  0
  8 21  1  0  0  0  0
  9 22  1  0  0  0  0
  9 23  1  0  0  0  0
 10 24  1  0  0  0  0
 12 25  1  0  0  0  0
 13 26  1  0  0  0  0
M  END
> <id>
EN300-1904574

> <smiles>
COC(=O)C[C@@H](O)C=1C=CC=C(O)C1Br

> <IUPAC Name>
methyl (3R)-3-(2-bromo-3-hydroxyphenyl)-3-hydroxypropanoate

> <CAS>
2227872-65-1

> <URL>
https://www.enaminestore.com/catalog/EN300-1904574

> <ROCS_ShapeQuery>
_x1604L0AP1_x0771L0AP1

> <ROCS_TanimotoCombo>
0.893 

> <ROCS_ShapeTanimoto>
0.612 

> <ROCS_ColorTanimoto>
0.281 

> <ROCS_RefTversky>
0.534 

> <ROCS_RefColorTversky>
0.358 

> <ROCS_RefTverskyCombo>
0.892 

> <ROCS_FitTversky>
1.313 

> <ROCS_FitColorTversky>
0.567 

> <ROCS_FitTverskyCombo>
1.880 

> <ROCS_ColorScore>
-4.102

> <ROCS_Overlap>
907.285

> <ROCS_Rank>
347                 

$$$$
untitled-dbase-458_147
  -OEChem-06042309053D

 29 29  0     1  0  0  0  0  0999 V2000
   -4.3478   12.1832  -31.1607 C   0  0  0  0  0  0  0  0  0  0  0  0
   -4.6116   12.5028  -29.8289 C   0  0  0  0  0  0  0  0  0  0  0  0
   -5.0580   11.1582  -31.7859 C   0  0  0  0  0  0  0  0  0  0  0  0
   -5.5854   11.7974  -29.1221 C   0  0  0  0  0  0  0  0  0  0  0  0
   -6.2956   10.7724  -29.7471 C   0  0  0  0  0  0  0  0  0  0  0  0
   -6.0319   10.4528  -31.0790 C   0  0  0  0  0  0  0  0  0  0  0  0
   -3.2530   11.1067  -33.5380 C   0  0  0  0  0  0  0  0  0  0  0  0
   -5.0602   13.1818  -27.2610 C   0  0  0  0  0  0  0  0  0  0  0  0
   -5.6256   11.6394  -34.2071 C   0  0  0  0  0  0  0  0  0  0  0  0
   -4.7383   10.8562  -33.2147 C   0  0  2  0  0  0  0  0  0  0  0  0
   -6.6807    9.8644  -35.2620 N   0  0  0  0  0  0  0  0  0  0  0  0
   -7.2437   10.0971  -29.0346 O   0  0  0  0  0  0  0  0  0  0  0  0
   -5.8316   12.1214  -27.8218 O   0  0  0  0  0  0  0  0  0  0  0  0
   -6.8763   10.9738  -34.3430 O   0  0  0  0  0  0  0  0  0  0  0  0
   -7.0121    9.0588  -31.9269 Br  0  0  0  0  0  0  0  0  0  0  0  0
   -3.5872   12.7396  -31.7022 H   0  0  0  0  0  0  0  0  0  0  0  0
   -4.0554   13.3032  -29.3484 H   0  0  0  0  0  0  0  0  0  0  0  0
   -2.9782   12.1540  -33.3713 H   0  0  0  0  0  0  0  0  0  0  0  0
   -2.5951   10.4886  -32.9175 H   0  0  0  0  0  0  0  0  0  0  0  0
   -3.0437   10.8694  -34.5870 H   0  0  0  0  0  0  0  0  0  0  0  0
   -5.3557   13.3376  -26.2206 H   0  0  0  0  0  0  0  0  0  0  0  0
   -5.2222   14.0959  -27.8378 H   0  0  0  0  0  0  0  0  0  0  0  0
   -4.0024   12.9112  -27.3003 H   0  0  0  0  0  0  0  0  0  0  0  0
   -5.1645   11.6845  -35.1997 H   0  0  0  0  0  0  0  0  0  0  0  0
   -5.8101   12.6637  -33.8670 H   0  0  0  0  0  0  0  0  0  0  0  0
   -4.9225    9.7825  -33.4105 H   0  0  0  0  0  0  0  0  0  0  0  0
   -7.4051   10.0647  -35.9500 H   0  0  0  0  0  0  0  0  0  0  0  0
   -7.0246    9.0914  -34.6945 H   0  0  0  0  0  0  0  0  0  0  0  0
   -7.2945   10.4478  -28.1325 H   0  0  0  0  0  0  0  0  0  0  0  0
  1  2  1  0  0  0  0
  1  3  2  0  0  0  0
  2  4  2  0  0  0  0
  3  6  1  0  0  0  0
  3 10  1  0  0  0  0
  4  5  1  0  0  0  0
  4 13  1  0  0  0  0
  5  6  2  0  0  0  0
  5 12  1  0  0  0  0
  6 15  1  0  0  0  0
  7 10  1  0  0  0  0
  8 13  1  0  0  0  0
  9 10  1  0  0  0  0
  9 14  1  0  0  0  0
 11 14  1  0  0  0  0
  1 16  1  0  0  0  0
  2 17  1  0  0  0  0
  7 18  1  0  0  0  0
  7 19  1  0  0  0  0
  7 20  1  0  0  0  0
  8 21  1  0  0  0  0
  8 22  1  0  0  0  0
  8 23  1  0  0  0  0
  9 24  1  0  0  0  0
  9 25  1  0  0  0  0
 10 26  1  0  0  0  0
 11 27  1  0  0  0  0
 11 28  1  0  0  0  0
 12 29  1  0  0  0  0
M  END
> <id>
EN300-1935611

> <smiles>
COC=1C=CC(C(C)CON)=C(Br)C1O

> <IUPAC Name>
3-[1-(aminooxy)propan-2-yl]-2-bromo-6-methoxyphenol

> <CAS>
2228167-06-2

> <URL>
https://www.enaminestore.com/catalog/EN300-1935611

> <ROCS_ShapeQuery>
_x1604L0AP1_x0771L0AP1

> <ROCS_TanimotoCombo>
0.893 

> <ROCS_ShapeTanimoto>
0.510 

> <ROCS_ColorTanimoto>
0.383 

> <ROCS_RefTversky>
0.474 

> <ROCS_RefColorTversky>
0.429 

> <ROCS_RefTverskyCombo>
0.903 

> <ROCS_FitTversky>
1.176 

> <ROCS_FitColorTversky>
0.780 

> <ROCS_FitTverskyCombo>
1.955 

> <ROCS_ColorScore>
-4.902

> <ROCS_Overlap>
804.843

> <ROCS_Rank>
348                 

$$$$
untitled-dbase-2212_639
  -OEChem-06042309053D

 31 32  0     0  0  0  0  0  0999 V2000
   -6.4312   10.1639  -30.9708 C   0  0  0  0  0  0  0  0  0  0  0  0
   -4.6012   11.5462  -31.7303 C   0  0  0  0  0  0  0  0  0  0  0  0
   -5.5626   10.5681  -31.9845 C   0  0  0  0  0  0  0  0  0  0  0  0
   -6.3385   10.7379  -29.7028 C   0  0  0  0  0  0  0  0  0  0  0  0
   -5.3771   11.7160  -29.4487 C   0  0  0  0  0  0  0  0  0  0  0  0
   -4.5084   12.1202  -30.4624 C   0  0  0  0  0  0  0  0  0  0  0  0
   -7.2452    8.5589  -35.6713 C   0  0  0  0  0  0  0  0  0  0  0  0
   -5.7554    8.5981  -35.8699 C   0  0  0  0  0  0  0  0  0  0  0  0
   -6.3355    7.9030  -34.6681 C   0  0  0  0  0  0  0  0  0  0  0  0
   -8.1454    9.3278  -29.0683 C   0  0  0  0  0  0  0  0  0  0  0  0
   -5.6625    9.9466  -33.3547 C   0  0  0  0  0  0  0  0  0  0  0  0
   -6.1736    8.4935  -33.3085 C   0  0  0  0  0  0  0  0  0  0  0  0
   -5.3014   12.2649  -28.2018 O   0  0  0  0  0  0  0  0  0  0  0  0
   -6.3062    6.4662  -34.6901 O   0  0  0  0  0  0  0  0  0  0  0  0
   -7.1936   10.3322  -28.7229 O   0  0  0  0  0  0  0  0  0  0  0  0
   -3.1891   13.4465  -30.1549 Br  0  0  0  0  0  0  0  0  0  0  0  0
   -7.1813    9.4013  -31.1664 H   0  0  0  0  0  0  0  0  0  0  0  0
   -3.9280   11.8546  -32.5273 H   0  0  0  0  0  0  0  0  0  0  0  0
   -7.7394    9.4828  -35.3962 H   0  0  0  0  0  0  0  0  0  0  0  0
   -7.8242    7.9235  -36.3306 H   0  0  0  0  0  0  0  0  0  0  0  0
   -5.3369    7.9893  -36.6624 H   0  0  0  0  0  0  0  0  0  0  0  0
   -5.2548    9.5482  -35.7269 H   0  0  0  0  0  0  0  0  0  0  0  0
   -8.7641    9.0963  -28.1978 H   0  0  0  0  0  0  0  0  0  0  0  0
   -7.6222    8.4296  -29.4060 H   0  0  0  0  0  0  0  0  0  0  0  0
   -8.7804    9.7021  -29.8747 H   0  0  0  0  0  0  0  0  0  0  0  0
   -6.3317   10.5460  -33.9856 H   0  0  0  0  0  0  0  0  0  0  0  0
   -4.6805    9.9695  -33.8449 H   0  0  0  0  0  0  0  0  0  0  0  0
   -5.4726    7.8877  -32.7030 H   0  0  0  0  0  0  0  0  0  0  0  0
   -7.1336    8.4699  -32.7582 H   0  0  0  0  0  0  0  0  0  0  0  0
   -5.9732   11.8721  -27.6237 H   0  0  0  0  0  0  0  0  0  0  0  0
   -7.2115    6.1807  -34.5090 H   0  0  0  0  0  0  0  0  0  0  0  0
  1  3  1  0  0  0  0
  1  4  2  0  0  0  0
  2  3  2  0  0  0  0
  2  6  1  0  0  0  0
  3 11  1  0  0  0  0
  4  5  1  0  0  0  0
  4 15  1  0  0  0  0
  5  6  2  0  0  0  0
  5 13  1  0  0  0  0
  6 16  1  0  0  0  0
  7  8  1  0  0  0  0
  7  9  1  0  0  0  0
  8  9  1  0  0  0  0
  9 12  1  0  0  0  0
  9 14  1  0  0  0  0
 10 15  1  0  0  0  0
 11 12  1  0  0  0  0
  1 17  1  0  0  0  0
  2 18  1  0  0  0  0
  7 19  1  0  0  0  0
  7 20  1  0  0  0  0
  8 21  1  0  0  0  0
  8 22  1  0  0  0  0
 10 23  1  0  0  0  0
 10 24  1  0  0  0  0
 10 25  1  0  0  0  0
 11 26  1  0  0  0  0
 11 27  1  0  0  0  0
 12 28  1  0  0  0  0
 12 29  1  0  0  0  0
 13 30  1  0  0  0  0
 14 31  1  0  0  0  0
M  END
> <id>
EN300-1925712

> <smiles>
COC=1C=C(CCC2(O)CC2)C=C(Br)C1O

> <IUPAC Name>
2-bromo-4-[2-(1-hydroxycyclopropyl)ethyl]-6-methoxyphenol

> <CAS>
2229581-00-2

> <URL>
https://www.enaminestore.com/catalog/EN300-1925712

> <ROCS_ShapeQuery>
_x1604L0AP1_x0771L0AP1

> <ROCS_TanimotoCombo>
0.893 

> <ROCS_ShapeTanimoto>
0.587 

> <ROCS_ColorTanimoto>
0.305 

> <ROCS_RefTversky>
0.529 

> <ROCS_RefColorTversky>
0.382 

> <ROCS_RefTverskyCombo>
0.911 

> <ROCS_FitTversky>
1.229 

> <ROCS_FitColorTversky>
0.605 

> <ROCS_FitTverskyCombo>
1.834 

> <ROCS_ColorScore>
-4.375

> <ROCS_Overlap>
900.898

> <ROCS_Rank>
349                 

$$$$
untitled-dbase-2091_570
  -OEChem-06042309053D

 25 25  0     0  0  0  0  0  0999 V2000
   -4.3591   12.1201  -30.1459 C   0  0  0  0  0  0  0  0  0  0  0  0
   -5.3281   11.5646  -29.3104 C   0  0  0  0  0  0  0  0  0  0  0  0
   -4.3296   11.7841  -31.4995 C   0  0  0  0  0  0  0  0  0  0  0  0
   -6.2675   10.6731  -29.8283 C   0  0  0  0  0  0  0  0  0  0  0  0
   -5.2691   10.8926  -32.0174 C   0  0  0  0  0  0  0  0  0  0  0  0
   -6.2381   10.3371  -31.1818 C   0  0  0  0  0  0  0  0  0  0  0  0
   -5.6587    8.9441  -35.0373 C   0  0  0  0  0  0  0  0  0  0  0  0
   -5.5131    7.4938  -35.4787 C   0  0  0  0  0  0  0  0  0  0  0  0
   -5.0089    9.2186  -33.6864 C   0  0  0  0  0  0  0  0  0  0  0  0
   -6.1308    6.5747  -34.5622 N   0  0  0  0  0  0  0  0  0  0  0  0
   -7.2000   10.1500  -28.9823 O   0  0  0  0  0  0  0  0  0  0  0  0
   -5.2095   10.5854  -33.3517 O   0  0  0  0  0  0  0  0  0  0  0  0
   -7.5189    9.1217  -31.8879 Br  0  0  0  0  0  0  0  0  0  0  0  0
   -3.6276   12.8142  -29.7427 H   0  0  0  0  0  0  0  0  0  0  0  0
   -5.3449   11.8313  -28.2571 H   0  0  0  0  0  0  0  0  0  0  0  0
   -3.5716   12.2208  -32.1442 H   0  0  0  0  0  0  0  0  0  0  0  0
   -5.2032    9.5993  -35.7903 H   0  0  0  0  0  0  0  0  0  0  0  0
   -6.7181    9.2272  -34.9951 H   0  0  0  0  0  0  0  0  0  0  0  0
   -5.9939    7.3464  -36.4507 H   0  0  0  0  0  0  0  0  0  0  0  0
   -4.4587    7.2149  -35.5726 H   0  0  0  0  0  0  0  0  0  0  0  0
   -5.4541    8.6023  -32.8992 H   0  0  0  0  0  0  0  0  0  0  0  0
   -3.9322    9.0249  -33.7253 H   0  0  0  0  0  0  0  0  0  0  0  0
   -7.1103    6.7676  -34.5057 H   0  0  0  0  0  0  0  0  0  0  0  0
   -5.9935    5.6387  -34.8862 H   0  0  0  0  0  0  0  0  0  0  0  0
   -7.7889    9.5492  -29.4646 H   0  0  0  0  0  0  0  0  0  0  0  0
  1  2  2  0  0  0  0
  1  3  1  0  0  0  0
  2  4  1  0  0  0  0
  3  5  2  0  0  0  0
  4  6  2  0  0  0  0
  4 11  1  0  0  0  0
  5  6  1  0  0  0  0
  5 12  1  0  0  0  0
  6 13  1  0  0  0  0
  7  8  1  0  0  0  0
  7  9  1  0  0  0  0
  8 10  1  0  0  0  0
  9 12  1  0  0  0  0
  1 14  1  0  0  0  0
  2 15  1  0  0  0  0
  3 16  1  0  0  0  0
  7 17  1  0  0  0  0
  7 18  1  0  0  0  0
  8 19  1  0  0  0  0
  8 20  1  0  0  0  0
  9 21  1  0  0  0  0
  9 22  1  0  0  0  0
 10 23  1  0  0  0  0
 10 24  1  0  0  0  0
 11 25  1  0  0  0  0
M  END
> <id>
EN300-1904617

> <smiles>
NCCCOC=1C=CC=C(O)C1Br

> <IUPAC Name>
3-(3-aminopropoxy)-2-bromophenol

> <CAS>
2228863-00-9

> <URL>
https://www.enaminestore.com/catalog/EN300-1904617

> <ROCS_ShapeQuery>
_x1604L0AP1_x0771L0AP1

> <ROCS_TanimotoCombo>
0.893 

> <ROCS_ShapeTanimoto>
0.477 

> <ROCS_ColorTanimoto>
0.416 

> <ROCS_RefTversky>
0.437 

> <ROCS_RefColorTversky>
0.479 

> <ROCS_RefTverskyCombo>
0.916 

> <ROCS_FitTversky>
1.238 

> <ROCS_FitColorTversky>
0.759 

> <ROCS_FitTverskyCombo>
1.997 

> <ROCS_ColorScore>
-5.489

> <ROCS_Overlap>
740.516

> <ROCS_Rank>
350                 

$$$$
untitled-dbase-1587_42
  -OEChem-06042309053D

 25 26  0     0  0  0  0  0  0999 V2000
   -4.6073   12.4910  -29.8685 C   0  0  0  0  0  0  0  0  0  0  0  0
   -4.3596   12.1679  -31.2026 C   0  0  0  0  0  0  0  0  0  0  0  0
   -5.5752   11.7899  -29.1492 C   0  0  0  0  0  0  0  0  0  0  0  0
   -5.0798   11.1437  -31.8175 C   0  0  0  0  0  0  0  0  0  0  0  0
   -6.2954   10.7658  -29.7641 C   0  0  0  0  0  0  0  0  0  0  0  0
   -6.0478   10.4427  -31.0983 C   0  0  0  0  0  0  0  0  0  0  0  0
   -6.4130   12.3256  -34.5862 C   0  0  0  0  0  0  0  0  0  0  0  0
   -7.2238   11.5901  -33.5595 C   0  0  0  0  0  0  0  0  0  0  0  0
   -5.9890   10.9422  -34.1454 C   0  0  0  0  0  0  0  0  0  0  0  0
   -4.7733   10.8331  -33.2656 C   0  0  0  0  0  0  0  0  0  0  0  0
   -6.1622    9.8169  -35.0885 N   0  0  0  0  0  0  0  0  0  0  0  0
   -7.2340   10.1032  -29.0298 O   0  0  0  0  0  0  0  0  0  0  0  0
   -7.0364    9.0434  -31.9263 Br  0  0  0  0  0  0  0  0  0  0  0  0
   -4.0468   13.2887  -29.3899 H   0  0  0  0  0  0  0  0  0  0  0  0
   -3.6031   12.7208  -31.7537 H   0  0  0  0  0  0  0  0  0  0  0  0
   -5.7629   12.0479  -28.1104 H   0  0  0  0  0  0  0  0  0  0  0  0
   -6.8441   12.4481  -35.5731 H   0  0  0  0  0  0  0  0  0  0  0  0
   -5.8326   13.1779  -34.2527 H   0  0  0  0  0  0  0  0  0  0  0  0
   -7.1871   11.9490  -32.5377 H   0  0  0  0  0  0  0  0  0  0  0  0
   -8.1973   11.2199  -33.8596 H   0  0  0  0  0  0  0  0  0  0  0  0
   -3.9795   11.5126  -33.6168 H   0  0  0  0  0  0  0  0  0  0  0  0
   -4.3388    9.8219  -33.3300 H   0  0  0  0  0  0  0  0  0  0  0  0
   -5.2680    9.4326  -35.2528 H   0  0  0  0  0  0  0  0  0  0  0  0
   -6.7648    9.1648  -34.6575 H   0  0  0  0  0  0  0  0  0  0  0  0
   -7.6599    9.4201  -29.5705 H   0  0  0  0  0  0  0  0  0  0  0  0
  1  2  1  0  0  0  0
  1  3  2  0  0  0  0
  2  4  2  0  0  0  0
  3  5  1  0  0  0  0
  4  6  1  0  0  0  0
  4 10  1  0  0  0  0
  5  6  2  0  0  0  0
  5 12  1  0  0  0  0
  6 13  1  0  0  0  0
  7  8  1  0  0  0  0
  7  9  1  0  0  0  0
  8  9  1  0  0  0  0
  9 10  1  0  0  0  0
  9 11  1  0  0  0  0
  1 14  1  0  0  0  0
  2 15  1  0  0  0  0
  3 16  1  0  0  0  0
  7 17  1  0  0  0  0
  7 18  1  0  0  0  0
  8 19  1  0  0  0  0
  8 20  1  0  0  0  0
 10 21  1  0  0  0  0
 10 22  1  0  0  0  0
 11 23  1  0  0  0  0
 11 24  1  0  0  0  0
 12 25  1  0  0  0  0
M  END
> <id>
EN300-1904509

> <smiles>
NC1(CC=2C=CC=C(O)C2Br)CC1

> <IUPAC Name>
3-[(1-aminocyclopropyl)methyl]-2-bromophenol

> <CAS>
2229143-38-6

> <URL>
https://www.enaminestore.com/catalog/EN300-1904509

> <ROCS_ShapeQuery>
_x1604L0AP1_x0771L0AP1

> <ROCS_TanimotoCombo>
0.892 

> <ROCS_ShapeTanimoto>
0.512 

> <ROCS_ColorTanimoto>
0.381 

> <ROCS_RefTversky>
0.460 

> <ROCS_RefColorTversky>
0.428 

> <ROCS_RefTverskyCombo>
0.888 

> <ROCS_FitTversky>
1.278 

> <ROCS_FitColorTversky>
0.777 

> <ROCS_FitTverskyCombo>
2.055 

> <ROCS_ColorScore>
-4.882

> <ROCS_Overlap>
780.449

> <ROCS_Rank>
351                 

$$$$
untitled-dbase-1782_29
  -OEChem-06042309053D

 25 26  0     1  0  0  0  0  0999 V2000
   -4.5889   12.5291  -29.7814 C   0  0  0  0  0  0  0  0  0  0  0  0
   -5.9816   10.4763  -31.0578 C   0  0  0  0  0  0  0  0  0  0  0  0
   -6.2707   10.7953  -29.7310 C   0  0  0  0  0  0  0  0  0  0  0  0
   -4.9961   11.1837  -31.7463 C   0  0  0  0  0  0  0  0  0  0  0  0
   -4.2997   12.2100  -31.1081 C   0  0  0  0  0  0  0  0  0  0  0  0
   -5.5744   11.8217  -29.0928 C   0  0  0  0  0  0  0  0  0  0  0  0
   -7.1789    8.5469  -34.2130 C   0  0  0  0  0  0  0  0  0  0  0  0
   -6.8257   10.0047  -34.3132 C   0  0  0  0  0  0  0  0  0  0  0  0
   -6.2530    9.1672  -33.2036 C   0  0  0  0  0  0  0  0  0  0  0  0
   -6.7176    9.3803  -31.7561 C   0  0  2  0  0  0  0  0  0  0  0  0
   -8.1552    9.5850  -31.7267 N   0  0  0  0  0  0  0  0  0  0  0  0
   -7.2377   10.0947  -29.0703 O   0  0  0  0  0  0  0  0  0  0  0  0
   -4.7213   10.8726  -33.0223 F   0  0  0  0  0  0  0  0  0  0  0  0
   -3.0821   13.0869  -31.9525 Cl  0  0  0  0  0  0  0  0  0  0  0  0
   -5.9389   12.2850  -27.2909 Br  0  0  0  0  0  0  0  0  0  0  0  0
   -4.0437   13.3303  -29.2869 H   0  0  0  0  0  0  0  0  0  0  0  0
   -8.1859    8.2928  -33.9061 H   0  0  0  0  0  0  0  0  0  0  0  0
   -6.7490    7.8728  -34.9436 H   0  0  0  0  0  0  0  0  0  0  0  0
   -6.1587   10.3081  -35.1108 H   0  0  0  0  0  0  0  0  0  0  0  0
   -7.5963   10.7270  -34.0736 H   0  0  0  0  0  0  0  0  0  0  0  0
   -5.2026    8.9082  -33.2597 H   0  0  0  0  0  0  0  0  0  0  0  0
   -6.5642    8.4235  -31.2278 H   0  0  0  0  0  0  0  0  0  0  0  0
   -8.5952    8.8230  -32.1912 H   0  0  0  0  0  0  0  0  0  0  0  0
   -8.4510    9.6275  -30.7776 H   0  0  0  0  0  0  0  0  0  0  0  0
   -7.3274   10.4253  -28.1637 H   0  0  0  0  0  0  0  0  0  0  0  0
  1  5  1  0  0  0  0
  1  6  2  0  0  0  0
  2  3  2  0  0  0  0
  2  4  1  0  0  0  0
  2 10  1  0  0  0  0
  3  6  1  0  0  0  0
  3 12  1  0  0  0  0
  4  5  2  0  0  0  0
  4 13  1  0  0  0  0
  5 14  1  0  0  0  0
  6 15  1  0  0  0  0
  7  8  1  0  0  0  0
  7  9  1  0  0  0  0
  8  9  1  0  0  0  0
  9 10  1  0  0  0  0
 10 11  1  0  0  0  0
  1 16  1  0  0  0  0
  7 17  1  0  0  0  0
  7 18  1  0  0  0  0
  8 19  1  0  0  0  0
  8 20  1  0  0  0  0
  9 21  1  0  0  0  0
 10 22  1  0  0  0  0
 11 23  1  0  0  0  0
 11 24  1  0  0  0  0
 12 25  1  0  0  0  0
M  END
> <id>
EN300-1276994

> <smiles>
NC(C1CC1)C=2C(O)=C(Br)C=C(Cl)C2F

> <IUPAC Name>
2-[amino(cyclopropyl)methyl]-6-bromo-4-chloro-3-fluorophenol

> <CAS>
2169481-22-3

> <URL>
https://www.enaminestore.com/catalog/EN300-1276994

> <ROCS_ShapeQuery>
_x1604L0AP1_x0771L0AP1

> <ROCS_TanimotoCombo>
0.892 

> <ROCS_ShapeTanimoto>
0.611 

> <ROCS_ColorTanimoto>
0.281 

> <ROCS_RefTversky>
0.535 

> <ROCS_RefColorTversky>
0.340 

> <ROCS_RefTverskyCombo>
0.875 

> <ROCS_FitTversky>
1.306 

> <ROCS_FitColorTversky>
0.618 

> <ROCS_FitTverskyCombo>
1.924 

> <ROCS_ColorScore>
-3.885

> <ROCS_Overlap>
908.477

> <ROCS_Rank>
352                 

$$$$
untitled-dbase-2285_132
  -OEChem-06042309053D

 34 34  0     0  0  0  0  0  0999 V2000
   -1.9356   13.3437  -29.9976 C   0  0  0  0  0  0  0  0  0  0  0  0
   -5.0880   11.1908  -31.7912 C   0  0  0  0  0  0  0  0  0  0  0  0
   -4.6317   12.5483  -29.8455 C   0  0  0  0  0  0  0  0  0  0  0  0
   -4.3808   12.2255  -31.1791 C   0  0  0  0  0  0  0  0  0  0  0  0
   -6.0464   10.4789  -31.0697 C   0  0  0  0  0  0  0  0  0  0  0  0
   -6.2973   10.8016  -29.7361 C   0  0  0  0  0  0  0  0  0  0  0  0
   -5.5900   11.8363  -29.1240 C   0  0  0  0  0  0  0  0  0  0  0  0
   -3.3806   12.9663  -31.9320 C   0  0  0  0  0  0  0  0  0  0  0  0
   -2.2749   13.4677  -31.3794 C   0  0  0  0  0  0  0  0  0  0  0  0
   -1.3062   14.1279  -32.3130 C   0  0  0  0  0  0  0  0  0  0  0  0
   -6.3390    9.2110  -33.2268 C   0  0  0  0  0  0  0  0  0  0  0  0
   -8.3284    9.6568  -31.7505 C   0  0  0  0  0  0  0  0  0  0  0  0
   -6.6307    7.9622  -31.0967 C   0  0  0  0  0  0  0  0  0  0  0  0
   -6.8165    9.3437  -31.7644 C   0  0  0  0  0  0  0  0  0  0  0  0
   -1.6572   13.2451  -28.8753 N   0  0  0  0  0  0  0  0  0  0  0  0
   -1.8910   14.7744  -33.3769 N   0  0  0  0  0  0  0  0  0  0  0  0
   -7.2386   10.0964  -29.0438 O   0  0  0  0  0  0  0  0  0  0  0  0
    0.3617   14.1623  -32.1180 S   0  0  0  0  0  0  0  0  0  0  0  0
   -5.9009   12.3032  -27.3127 Br  0  0  0  0  0  0  0  0  0  0  0  0
   -4.8984   10.9367  -32.8321 H   0  0  0  0  0  0  0  0  0  0  0  0
   -4.0768   13.3547  -29.3699 H   0  0  0  0  0  0  0  0  0  0  0  0
   -3.5746   13.0372  -32.9898 H   0  0  0  0  0  0  0  0  0  0  0  0
   -6.8735    8.4068  -33.7458 H   0  0  0  0  0  0  0  0  0  0  0  0
   -6.5048   10.1285  -33.8020 H   0  0  0  0  0  0  0  0  0  0  0  0
   -5.2674    8.9833  -33.2726 H   0  0  0  0  0  0  0  0  0  0  0  0
   -8.9188    8.8724  -32.2365 H   0  0  0  0  0  0  0  0  0  0  0  0
   -8.7033    9.7504  -30.7245 H   0  0  0  0  0  0  0  0  0  0  0  0
   -8.5410   10.5984  -32.2704 H   0  0  0  0  0  0  0  0  0  0  0  0
   -7.1979    7.1876  -31.6269 H   0  0  0  0  0  0  0  0  0  0  0  0
   -5.5797    7.6502  -31.1001 H   0  0  0  0  0  0  0  0  0  0  0  0
   -6.9829    7.9651  -30.0586 H   0  0  0  0  0  0  0  0  0  0  0  0
   -2.8957   14.8109  -33.5176 H   0  0  0  0  0  0  0  0  0  0  0  0
   -1.3233   15.2595  -34.0639 H   0  0  0  0  0  0  0  0  0  0  0  0
   -7.3034   10.4302  -28.1362 H   0  0  0  0  0  0  0  0  0  0  0  0
  1  9  1  0  0  0  0
  1 15  3  0  0  0  0
  2  4  1  0  0  0  0
  2  5  2  0  0  0  0
  3  4  2  0  0  0  0
  3  7  1  0  0  0  0
  4  8  1  0  0  0  0
  5  6  1  0  0  0  0
  5 14  1  0  0  0  0
  6  7  2  0  0  0  0
  6 17  1  0  0  0  0
  7 19  1  0  0  0  0
  8  9  2  0  0  0  0
  9 10  1  0  0  0  0
 10 16  1  0  0  0  0
 10 18  2  0  0  0  0
 11 14  1  0  0  0  0
 12 14  1  0  0  0  0
 13 14  1  0  0  0  0
  2 20  1  0  0  0  0
  3 21  1  0  0  0  0
  8 22  1  0  0  0  0
 11 23  1  0  0  0  0
 11 24  1  0  0  0  0
 11 25  1  0  0  0  0
 12 26  1  0  0  0  0
 12 27  1  0  0  0  0
 12 28  1  0  0  0  0
 13 29  1  0  0  0  0
 13 30  1  0  0  0  0
 13 31  1  0  0  0  0
 16 32  1  0  0  0  0
 16 33  1  0  0  0  0
 17 34  1  0  0  0  0
M  END
> <id>
EN300-43379293

> <smiles>
CC(C)(C)C=1C=C(/C=C(\C#N)/C(=S)N)C=C(Br)C1O

> <IUPAC Name>
(2E)-3-(3-bromo-5-tert-butyl-4-hydroxyphenyl)-2-cyanoprop-2-enethioamide

> <CAS>
906563-40-4

> <Purity>
95

> <URL>
https://www.enaminestore.com/catalog/EN300-43379293

> <ROCS_ShapeQuery>
_x1604L0AP1_x0771L0AP1

> <ROCS_TanimotoCombo>
0.892 

> <ROCS_ShapeTanimoto>
0.539 

> <ROCS_ColorTanimoto>
0.353 

> <ROCS_RefTversky>
0.523 

> <ROCS_RefColorTversky>
0.425 

> <ROCS_RefTverskyCombo>
0.949 

> <ROCS_FitTversky>
1.059 

> <ROCS_FitColorTversky>
0.674 

> <ROCS_FitTverskyCombo>
1.733 

> <ROCS_ColorScore>
-4.878

> <ROCS_Overlap>
893.767

> <ROCS_Rank>
353                 

$$$$
untitled-dbase-1241_35
  -OEChem-06042309053D

 22 22  0     1  0  0  0  0  0999 V2000
   -5.1087   11.2711  -31.7999 C   0  0  0  0  0  0  0  0  0  0  0  0
   -4.4888   12.4200  -29.7670 C   0  0  0  0  0  0  0  0  0  0  0  0
   -6.0913   10.5681  -31.1029 C   0  0  0  0  0  0  0  0  0  0  0  0
   -6.2728   10.7910  -29.7380 C   0  0  0  0  0  0  0  0  0  0  0  0
   -4.3074   12.1971  -31.1319 C   0  0  0  0  0  0  0  0  0  0  0  0
   -5.4715   11.7170  -29.0700 C   0  0  0  0  0  0  0  0  0  0  0  0
   -6.9294    7.9814  -33.6334 C   0  0  0  0  0  0  0  0  0  0  0  0
   -6.9383    9.5812  -31.8374 C   0  0  0  0  0  0  0  0  0  0  0  0
   -6.3934    9.2486  -33.1283 N   0  0  2  0  0  0  0  0  0  0  0  0
   -7.2383   10.0952  -29.0700 O   0  0  0  0  0  0  0  0  0  0  0  0
   -6.9324   10.2483  -34.0423 O   0  0  0  0  0  0  0  0  0  0  0  0
   -3.0948   13.0642  -31.9924 Cl  0  0  0  0  0  0  0  0  0  0  0  0
   -5.6877   12.0475  -27.2156 Br  0  0  0  0  0  0  0  0  0  0  0  0
   -4.9707   11.0946  -32.8646 H   0  0  0  0  0  0  0  0  0  0  0  0
   -3.8615   13.1427  -29.2497 H   0  0  0  0  0  0  0  0  0  0  0  0
   -6.4903    7.7634  -34.6181 H   0  0  0  0  0  0  0  0  0  0  0  0
   -6.6779    7.1717  -32.9325 H   0  0  0  0  0  0  0  0  0  0  0  0
   -8.0227    8.0577  -33.7284 H   0  0  0  0  0  0  0  0  0  0  0  0
   -7.0375    8.6469  -31.2687 H   0  0  0  0  0  0  0  0  0  0  0  0
   -7.9539    9.9659  -31.9982 H   0  0  0  0  0  0  0  0  0  0  0  0
   -7.2479   10.3530  -28.1358 H   0  0  0  0  0  0  0  0  0  0  0  0
   -6.5534    9.9307  -34.8795 H   0  0  0  0  0  0  0  0  0  0  0  0
  1  3  2  0  0  0  0
  1  5  1  0  0  0  0
  2  5  2  0  0  0  0
  2  6  1  0  0  0  0
  3  4  1  0  0  0  0
  3  8  1  0  0  0  0
  4  6  2  0  0  0  0
  4 10  1  0  0  0  0
  5 12  1  0  0  0  0
  6 13  1  0  0  0  0
  7  9  1  0  0  0  0
  8  9  1  0  0  0  0
  9 11  1  0  0  0  0
  1 14  1  0  0  0  0
  2 15  1  0  0  0  0
  7 16  1  0  0  0  0
  7 17  1  0  0  0  0
  7 18  1  0  0  0  0
  8 19  1  0  0  0  0
  8 20  1  0  0  0  0
 10 21  1  0  0  0  0
 11 22  1  0  0  0  0
M  END
> <id>
EN300-1922555

> <smiles>
CN(O)CC=1C=C(Cl)C=C(Br)C1O

> <IUPAC Name>
2-bromo-4-chloro-6-{[hydroxy(methyl)amino]methyl}phenol

> <CAS>
2229186-78-9

> <URL>
https://www.enaminestore.com/catalog/EN300-1922555

> <ROCS_ShapeQuery>
_x1604L0AP1_x0771L0AP1

> <ROCS_TanimotoCombo>
0.892 

> <ROCS_ShapeTanimoto>
0.589 

> <ROCS_ColorTanimoto>
0.303 

> <ROCS_RefTversky>
0.502 

> <ROCS_RefColorTversky>
0.342 

> <ROCS_RefTverskyCombo>
0.844 

> <ROCS_FitTversky>
1.418 

> <ROCS_FitColorTversky>
0.728 

> <ROCS_FitTverskyCombo>
2.147 

> <ROCS_ColorScore>
-3.886

> <ROCS_Overlap>
849.982

> <ROCS_Rank>
354                 

$$$$
untitled-dbase-494_3
  -OEChem-06042309053D

 21 22  0     0  0  0  0  0  0999 V2000
   -4.7463   11.8950  -31.3369 C   0  0  0  0  0  0  0  0  0  0  0  0
   -4.9391   12.8087  -29.1087 C   0  0  0  0  0  0  0  0  0  0  0  0
   -5.9673    8.5699  -32.1068 C   0  0  0  0  0  0  0  0  0  0  0  0
   -5.6770   10.9080  -31.0128 C   0  0  0  0  0  0  0  0  0  0  0  0
   -6.2389   10.8713  -29.7366 C   0  0  0  0  0  0  0  0  0  0  0  0
   -4.3773   12.8453  -30.3849 C   0  0  0  0  0  0  0  0  0  0  0  0
   -5.8699   11.8217  -28.7846 C   0  0  0  0  0  0  0  0  0  0  0  0
   -6.0443    9.9344  -32.0157 C   0  0  0  0  0  0  0  0  0  0  0  0
   -6.5122    8.2881  -33.3715 C   0  0  0  0  0  0  0  0  0  0  0  0
   -6.8977    9.3933  -34.0154 N   0  0  0  0  0  0  0  0  0  0  0  0
   -6.6110    7.0168  -33.8356 N   0  0  0  0  0  0  0  0  0  0  0  0
   -6.5978   10.4374  -33.1487 O   0  0  0  0  0  0  0  0  0  0  0  0
   -7.1499    9.9029  -29.4237 O   0  0  0  0  0  0  0  0  0  0  0  0
   -3.2280   14.0626  -30.7847 Cl  0  0  0  0  0  0  0  0  0  0  0  0
   -6.6103   11.8068  -27.0390 Br  0  0  0  0  0  0  0  0  0  0  0  0
   -4.3057   11.9252  -32.3318 H   0  0  0  0  0  0  0  0  0  0  0  0
   -4.6484   13.5514  -28.3688 H   0  0  0  0  0  0  0  0  0  0  0  0
   -5.5754    7.8855  -31.3678 H   0  0  0  0  0  0  0  0  0  0  0  0
   -6.2495    6.2165  -33.3030 H   0  0  0  0  0  0  0  0  0  0  0  0
   -6.9647    6.8107  -34.7776 H   0  0  0  0  0  0  0  0  0  0  0  0
   -7.4459   10.0099  -28.5074 H   0  0  0  0  0  0  0  0  0  0  0  0
  1  4  2  0  0  0  0
  1  6  1  0  0  0  0
  2  6  2  0  0  0  0
  2  7  1  0  0  0  0
  3  8  2  0  0  0  0
  3  9  1  0  0  0  0
  4  5  1  0  0  0  0
  4  8  1  0  0  0  0
  5  7  2  0  0  0  0
  5 13  1  0  0  0  0
  6 14  1  0  0  0  0
  7 15  1  0  0  0  0
  8 12  1  0  0  0  0
  9 10  2  0  0  0  0
  9 11  1  0  0  0  0
 10 12  1  0  0  0  0
  1 16  1  0  0  0  0
  2 17  1  0  0  0  0
  3 18  1  0  0  0  0
 11 19  1  0  0  0  0
 11 20  1  0  0  0  0
 13 21  1  0  0  0  0
M  END
> <id>
EN300-1922949

> <smiles>
NC=1C=C(ON1)C=2C=C(Cl)C=C(Br)C2O

> <IUPAC Name>
2-(3-amino-1,2-oxazol-5-yl)-6-bromo-4-chlorophenol

> <CAS>
2228867-79-4

> <URL>
https://www.enaminestore.com/catalog/EN300-1922949

> <ROCS_ShapeQuery>
_x1604L0AP1_x0771L0AP1

> <ROCS_TanimotoCombo>
0.892 

> <ROCS_ShapeTanimoto>
0.614 

> <ROCS_ColorTanimoto>
0.278 

> <ROCS_RefTversky>
0.542 

> <ROCS_RefColorTversky>
0.372 

> <ROCS_RefTverskyCombo>
0.914 

> <ROCS_FitTversky>
1.279 

> <ROCS_FitColorTversky>
0.523 

> <ROCS_FitTverskyCombo>
1.802 

> <ROCS_ColorScore>
-4.284

> <ROCS_Overlap>
921.192

> <ROCS_Rank>
355                 

$$$$
untitled-dbase-982_53
  -OEChem-06042309053D

 28 28  0     0  0  0  0  0  0999 V2000
   -4.6000   12.4849  -29.8493 C   0  0  0  0  0  0  0  0  0  0  0  0
   -4.3485   12.1670  -31.1840 C   0  0  0  0  0  0  0  0  0  0  0  0
   -5.5734   11.7843  -29.1369 C   0  0  0  0  0  0  0  0  0  0  0  0
   -5.0705   11.1487  -31.8063 C   0  0  0  0  0  0  0  0  0  0  0  0
   -6.2954   10.7660  -29.7593 C   0  0  0  0  0  0  0  0  0  0  0  0
   -6.0440   10.4481  -31.0940 C   0  0  0  0  0  0  0  0  0  0  0  0
   -3.6418   11.7326  -33.8793 C   0  0  0  0  0  0  0  0  0  0  0  0
   -4.2654    9.3757  -33.3960 C   0  0  0  0  0  0  0  0  0  0  0  0
   -6.0272   11.0047  -34.1506 C   0  0  0  0  0  0  0  0  0  0  0  0
   -4.7542   10.8379  -33.2813 C   0  0  0  0  0  0  0  0  0  0  0  0
   -7.2392   10.0826  -35.8991 N   0  0  0  0  0  0  0  0  0  0  0  0
   -7.2392   10.1037  -29.0316 O   0  0  0  0  0  0  0  0  0  0  0  0
   -5.8993   10.2864  -35.3731 O   0  0  0  0  0  0  0  0  0  0  0  0
   -7.0350    9.0567  -31.9323 Br  0  0  0  0  0  0  0  0  0  0  0  0
   -4.0381   13.2781  -29.3649 H   0  0  0  0  0  0  0  0  0  0  0  0
   -3.5879   12.7195  -31.7296 H   0  0  0  0  0  0  0  0  0  0  0  0
   -5.7639   12.0382  -28.0976 H   0  0  0  0  0  0  0  0  0  0  0  0
   -3.4455   11.4818  -34.9284 H   0  0  0  0  0  0  0  0  0  0  0  0
   -3.9310   12.7900  -33.8498 H   0  0  0  0  0  0  0  0  0  0  0  0
   -2.6987   11.6413  -33.3288 H   0  0  0  0  0  0  0  0  0  0  0  0
   -4.0299    9.1178  -34.4355 H   0  0  0  0  0  0  0  0  0  0  0  0
   -5.0314    8.6745  -33.0445 H   0  0  0  0  0  0  0  0  0  0  0  0
   -3.3652    9.1917  -32.7993 H   0  0  0  0  0  0  0  0  0  0  0  0
   -6.9048   10.6118  -33.6238 H   0  0  0  0  0  0  0  0  0  0  0  0
   -6.2304   12.0536  -34.3909 H   0  0  0  0  0  0  0  0  0  0  0  0
   -7.5779   11.0434  -35.9186 H   0  0  0  0  0  0  0  0  0  0  0  0
   -7.6848    9.6334  -35.1006 H   0  0  0  0  0  0  0  0  0  0  0  0
   -7.6658    9.4249  -29.5770 H   0  0  0  0  0  0  0  0  0  0  0  0
  1  2  1  0  0  0  0
  1  3  2  0  0  0  0
  2  4  2  0  0  0  0
  3  5  1  0  0  0  0
  4  6  1  0  0  0  0
  4 10  1  0  0  0  0
  5  6  2  0  0  0  0
  5 12  1  0  0  0  0
  6 14  1  0  0  0  0
  7 10  1  0  0  0  0
  8 10  1  0  0  0  0
  9 10  1  0  0  0  0
  9 13  1  0  0  0  0
 11 13  1  0  0  0  0
  1 15  1  0  0  0  0
  2 16  1  0  0  0  0
  3 17  1  0  0  0  0
  7 18  1  0  0  0  0
  7 19  1  0  0  0  0
  7 20  1  0  0  0  0
  8 21  1  0  0  0  0
  8 22  1  0  0  0  0
  8 23  1  0  0  0  0
  9 24  1  0  0  0  0
  9 25  1  0  0  0  0
 11 26  1  0  0  0  0
 11 27  1  0  0  0  0
 12 28  1  0  0  0  0
M  END
> <id>
EN300-1904524

> <smiles>
CC(C)(CON)C=1C=CC=C(O)C1Br

> <IUPAC Name>
3-[1-(aminooxy)-2-methylpropan-2-yl]-2-bromophenol

> <CAS>
2229558-55-6

> <URL>
https://www.enaminestore.com/catalog/EN300-1904524

> <ROCS_ShapeQuery>
_x1604L0AP1_x0771L0AP1

> <ROCS_TanimotoCombo>
0.892 

> <ROCS_ShapeTanimoto>
0.479 

> <ROCS_ColorTanimoto>
0.413 

> <ROCS_RefTversky>
0.446 

> <ROCS_RefColorTversky>
0.430 

> <ROCS_RefTverskyCombo>
0.876 

> <ROCS_FitTversky>
1.180 

> <ROCS_FitColorTversky>
0.915 

> <ROCS_FitTverskyCombo>
2.095 

> <ROCS_ColorScore>
-4.883

> <ROCS_Overlap>
756.955

> <ROCS_Rank>
356                 

$$$$
untitled-dbase-1098_111
  -OEChem-06042309053D

 26 27  0     0  0  0  0  0  0999 V2000
   -4.3110   12.2033  -31.1394 C   0  0  0  0  0  0  0  0  0  0  0  0
   -5.0669   11.2287  -31.7908 C   0  0  0  0  0  0  0  0  0  0  0  0
   -4.5352   12.4730  -29.7893 C   0  0  0  0  0  0  0  0  0  0  0  0
   -6.0472   10.5239  -31.0922 C   0  0  0  0  0  0  0  0  0  0  0  0
   -6.2715   10.7937  -29.7422 C   0  0  0  0  0  0  0  0  0  0  0  0
   -5.5155   11.7683  -29.0907 C   0  0  0  0  0  0  0  0  0  0  0  0
   -7.3587    8.3071  -31.0021 C   0  0  0  0  0  0  0  0  0  0  0  0
   -6.2326    8.1071  -31.9675 C   0  0  0  0  0  0  0  0  0  0  0  0
   -6.8456    9.4854  -31.8079 C   0  0  0  0  0  0  0  0  0  0  0  0
   -7.7086   10.0061  -32.9220 C   0  0  0  0  0  0  0  0  0  0  0  0
   -6.3045    9.6072  -34.7237 N   0  0  0  0  0  0  0  0  0  0  0  0
   -7.2353   10.0981  -29.0711 O   0  0  0  0  0  0  0  0  0  0  0  0
   -6.8909   10.6476  -33.8946 O   0  0  0  0  0  0  0  0  0  0  0  0
   -5.7911   12.1656  -27.2576 Br  0  0  0  0  0  0  0  0  0  0  0  0
   -3.5486   12.7536  -31.6830 H   0  0  0  0  0  0  0  0  0  0  0  0
   -4.8843   11.0272  -32.8432 H   0  0  0  0  0  0  0  0  0  0  0  0
   -3.9375   13.2372  -29.2987 H   0  0  0  0  0  0  0  0  0  0  0  0
   -8.3236    7.8859  -31.2597 H   0  0  0  0  0  0  0  0  0  0  0  0
   -7.1289    8.2574  -29.9439 H   0  0  0  0  0  0  0  0  0  0  0  0
   -5.2466    7.9218  -31.5570 H   0  0  0  0  0  0  0  0  0  0  0  0
   -6.4394    7.5521  -32.8753 H   0  0  0  0  0  0  0  0  0  0  0  0
   -8.4377   10.7373  -32.5484 H   0  0  0  0  0  0  0  0  0  0  0  0
   -8.2539    9.1899  -33.4143 H   0  0  0  0  0  0  0  0  0  0  0  0
   -5.3154    9.8344  -34.6329 H   0  0  0  0  0  0  0  0  0  0  0  0
   -6.5919    9.9238  -35.6484 H   0  0  0  0  0  0  0  0  0  0  0  0
   -7.2760   10.3921  -28.1485 H   0  0  0  0  0  0  0  0  0  0  0  0
  1  2  1  0  0  0  0
  1  3  2  0  0  0  0
  2  4  2  0  0  0  0
  3  6  1  0  0  0  0
  4  5  1  0  0  0  0
  4  9  1  0  0  0  0
  5  6  2  0  0  0  0
  5 12  1  0  0  0  0
  6 14  1  0  0  0  0
  7  8  1  0  0  0  0
  7  9  1  0  0  0  0
  8  9  1  0  0  0  0
  9 10  1  0  0  0  0
 10 13  1  0  0  0  0
 11 13  1  0  0  0  0
  1 15  1  0  0  0  0
  2 16  1  0  0  0  0
  3 17  1  0  0  0  0
  7 18  1  0  0  0  0
  7 19  1  0  0  0  0
  8 20  1  0  0  0  0
  8 21  1  0  0  0  0
 10 22  1  0  0  0  0
 10 23  1  0  0  0  0
 11 24  1  0  0  0  0
 11 25  1  0  0  0  0
 12 26  1  0  0  0  0
M  END
> <id>
EN300-1923142

> <smiles>
NOCC1(CC1)C=2C=CC=C(Br)C2O

> <IUPAC Name>
2-{1-[(aminooxy)methyl]cyclopropyl}-6-bromophenol

> <CAS>
2228188-50-7

> <URL>
https://www.enaminestore.com/catalog/EN300-1923142

> <ROCS_ShapeQuery>
_x1604L0AP1_x0771L0AP1

> <ROCS_TanimotoCombo>
0.892 

> <ROCS_ShapeTanimoto>
0.563 

> <ROCS_ColorTanimoto>
0.329 

> <ROCS_RefTversky>
0.499 

> <ROCS_RefColorTversky>
0.343 

> <ROCS_RefTverskyCombo>
0.842 

> <ROCS_FitTversky>
1.293 

> <ROCS_FitColorTversky>
0.886 

> <ROCS_FitTverskyCombo>
2.180 

> <ROCS_ColorScore>
-3.886

> <ROCS_Overlap>
847.178

> <ROCS_Rank>
357                 

$$$$
untitled-dbase-1632_155
  -OEChem-06042309053D

 25 25  0     0  0  0  0  0  0999 V2000
   -5.0637   11.2359  -31.7740 C   0  0  0  0  0  0  0  0  0  0  0  0
   -4.5146   12.4468  -29.7568 C   0  0  0  0  0  0  0  0  0  0  0  0
   -4.2948   12.1920  -31.1105 C   0  0  0  0  0  0  0  0  0  0  0  0
   -6.0525   10.5347  -31.0839 C   0  0  0  0  0  0  0  0  0  0  0  0
   -6.2723   10.7895  -29.7302 C   0  0  0  0  0  0  0  0  0  0  0  0
   -5.5034   11.7455  -29.0666 C   0  0  0  0  0  0  0  0  0  0  0  0
   -3.2619   12.9210  -31.8298 C   0  0  0  0  0  0  0  0  0  0  0  0
   -2.4678   13.9370  -31.0615 C   0  0  0  0  0  0  0  0  0  0  0  0
   -6.4287    8.6625  -33.9164 C   0  0  0  0  0  0  0  0  0  0  0  0
   -7.0151    9.8211  -33.1381 C   0  0  0  0  0  0  0  0  0  0  0  0
   -2.9926   12.7710  -33.0233 O   0  0  0  0  0  0  0  0  0  0  0  0
   -7.2435   10.0926  -29.0723 O   0  0  0  0  0  0  0  0  0  0  0  0
   -6.7953    9.6040  -31.7458 O   0  0  0  0  0  0  0  0  0  0  0  0
   -5.7709   12.1169  -27.2269 Br  0  0  0  0  0  0  0  0  0  0  0  0
   -4.8950   11.0337  -32.8293 H   0  0  0  0  0  0  0  0  0  0  0  0
   -3.9099   13.1932  -29.2459 H   0  0  0  0  0  0  0  0  0  0  0  0
   -1.5603   13.5300  -30.5882 H   0  0  0  0  0  0  0  0  0  0  0  0
   -3.0527   14.4400  -30.2759 H   0  0  0  0  0  0  0  0  0  0  0  0
   -2.0879   14.7604  -31.6923 H   0  0  0  0  0  0  0  0  0  0  0  0
   -5.3524    8.5801  -33.7417 H   0  0  0  0  0  0  0  0  0  0  0  0
   -6.9071    7.7212  -33.6264 H   0  0  0  0  0  0  0  0  0  0  0  0
   -6.6036    8.7909  -34.9898 H   0  0  0  0  0  0  0  0  0  0  0  0
   -8.0917    9.8979  -33.3172 H   0  0  0  0  0  0  0  0  0  0  0  0
   -6.5355   10.7606  -33.4284 H   0  0  0  0  0  0  0  0  0  0  0  0
   -7.6774    9.4731  -29.6785 H   0  0  0  0  0  0  0  0  0  0  0  0
  1  3  1  0  0  0  0
  1  4  2  0  0  0  0
  2  3  2  0  0  0  0
  2  6  1  0  0  0  0
  3  7  1  0  0  0  0
  4  5  1  0  0  0  0
  4 13  1  0  0  0  0
  5  6  2  0  0  0  0
  5 12  1  0  0  0  0
  6 14  1  0  0  0  0
  7  8  1  0  0  0  0
  7 11  2  0  0  0  0
  9 10  1  0  0  0  0
 10 13  1  0  0  0  0
  1 15  1  0  0  0  0
  2 16  1  0  0  0  0
  8 17  1  0  0  0  0
  8 18  1  0  0  0  0
  8 19  1  0  0  0  0
  9 20  1  0  0  0  0
  9 21  1  0  0  0  0
  9 22  1  0  0  0  0
 10 23  1  0  0  0  0
 10 24  1  0  0  0  0
 12 25  1  0  0  0  0
M  END
> <id>
EN300-1920019

> <smiles>
CCOC=1C=C(C=C(Br)C1O)C(=O)C

> <IUPAC Name>
1-(3-bromo-5-ethoxy-4-hydroxyphenyl)ethan-1-one

> <CAS>
1556173-17-1

> <URL>
https://www.enaminestore.com/catalog/EN300-1920019

> <ROCS_ShapeQuery>
_x1604L0AP1_x0771L0AP1

> <ROCS_TanimotoCombo>
0.892 

> <ROCS_ShapeTanimoto>
0.610 

> <ROCS_ColorTanimoto>
0.281 

> <ROCS_RefTversky>
0.525 

> <ROCS_RefColorTversky>
0.340 

> <ROCS_RefTverskyCombo>
0.865 

> <ROCS_FitTversky>
1.366 

> <ROCS_FitColorTversky>
0.618 

> <ROCS_FitTverskyCombo>
1.984 

> <ROCS_ColorScore>
-3.886

> <ROCS_Overlap>
890.513

> <ROCS_Rank>
358                 

$$$$
untitled-dbase-2242_1295
  -OEChem-06042309053D

 38 40  0     0  0  0  0  0  0999 V2000
   -1.9586   15.0011  -30.4034 C   0  0  0  0  0  0  0  0  0  0  0  0
   -2.0043   13.7137  -30.9382 C   0  0  0  0  0  0  0  0  0  0  0  0
   -2.8253   15.3584  -29.3705 C   0  0  0  0  0  0  0  0  0  0  0  0
   -5.8309    9.7539  -35.0784 C   0  0  0  0  0  0  0  0  0  0  0  0
   -2.9167   12.7835  -30.4402 C   0  0  0  0  0  0  0  0  0  0  0  0
   -3.7377   14.4283  -28.8725 C   0  0  0  0  0  0  0  0  0  0  0  0
   -5.8597    8.4380  -35.5388 C   0  0  0  0  0  0  0  0  0  0  0  0
   -6.2179   10.0549  -33.7654 C   0  0  0  0  0  0  0  0  0  0  0  0
   -6.6122    9.0182  -32.9008 C   0  0  0  0  0  0  0  0  0  0  0  0
   -3.7834   13.1409  -29.4074 C   0  0  0  0  0  0  0  0  0  0  0  0
   -6.2665    7.4120  -34.6899 C   0  0  0  0  0  0  0  0  0  0  0  0
   -6.6403    7.6995  -33.3774 C   0  0  0  0  0  0  0  0  0  0  0  0
   -6.7152   11.0856  -29.7324 C   0  0  0  0  0  0  0  0  0  0  0  0
   -6.1554   11.4763  -33.2713 C   0  0  0  0  0  0  0  0  0  0  0  0
   -7.0199    9.2916  -31.4739 C   0  0  0  0  0  0  0  0  0  0  0  0
   -7.1077   11.6994  -32.1030 C   0  0  0  0  0  0  0  0  0  0  0  0
   -4.7654   12.1409  -28.8713 C   0  0  0  0  0  0  0  0  0  0  0  0
   -6.8870   10.6956  -31.0651 N   0  0  0  0  0  0  0  0  0  0  0  0
   -7.1580   10.4688  -28.7654 O   0  0  0  0  0  0  0  0  0  0  0  0
   -6.2826    6.1402  -35.1824 O   0  0  0  0  0  0  0  0  0  0  0  0
   -5.9859   12.2397  -29.6141 O   0  0  0  0  0  0  0  0  0  0  0  0
   -7.1952    6.2427  -32.2695 Br  0  0  0  0  0  0  0  0  0  0  0  0
   -1.2472   15.7248  -30.7904 H   0  0  0  0  0  0  0  0  0  0  0  0
   -1.3287   13.4349  -31.7417 H   0  0  0  0  0  0  0  0  0  0  0  0
   -2.7893   16.3603  -28.9532 H   0  0  0  0  0  0  0  0  0  0  0  0
   -5.5062   10.5447  -35.7498 H   0  0  0  0  0  0  0  0  0  0  0  0
   -2.9453   11.7828  -30.8632 H   0  0  0  0  0  0  0  0  0  0  0  0
   -4.4092   14.7156  -28.0678 H   0  0  0  0  0  0  0  0  0  0  0  0
   -5.5617    8.2214  -36.5612 H   0  0  0  0  0  0  0  0  0  0  0  0
   -5.1256   11.6999  -32.9676 H   0  0  0  0  0  0  0  0  0  0  0  0
   -6.4241   12.1659  -34.0801 H   0  0  0  0  0  0  0  0  0  0  0  0
   -8.0773    9.0372  -31.3345 H   0  0  0  0  0  0  0  0  0  0  0  0
   -6.4134    8.6819  -30.7963 H   0  0  0  0  0  0  0  0  0  0  0  0
   -6.9775   12.7102  -31.7033 H   0  0  0  0  0  0  0  0  0  0  0  0
   -8.1523   11.6066  -32.4256 H   0  0  0  0  0  0  0  0  0  0  0  0
   -4.3746   11.1215  -28.9605 H   0  0  0  0  0  0  0  0  0  0  0  0
   -4.9728   12.3303  -27.8126 H   0  0  0  0  0  0  0  0  0  0  0  0
   -6.5822    5.5215  -34.4987 H   0  0  0  0  0  0  0  0  0  0  0  0
  1  2  2  0  0  0  0
  1  3  1  0  0  0  0
  2  5  1  0  0  0  0
  3  6  2  0  0  0  0
  4  7  1  0  0  0  0
  4  8  2  0  0  0  0
  5 10  2  0  0  0  0
  6 10  1  0  0  0  0
  7 11  2  0  0  0  0
  8  9  1  0  0  0  0
  8 14  1  0  0  0  0
  9 12  2  0  0  0  0
  9 15  1  0  0  0  0
 10 17  1  0  0  0  0
 11 12  1  0  0  0  0
 11 20  1  0  0  0  0
 12 22  1  0  0  0  0
 13 18  1  0  0  0  0
 13 19  2  0  0  0  0
 13 21  1  0  0  0  0
 14 16  1  0  0  0  0
 15 18  1  0  0  0  0
 16 18  1  0  0  0  0
 17 21  1  0  0  0  0
  1 23  1  0  0  0  0
  2 24  1  0  0  0  0
  3 25  1  0  0  0  0
  4 26  1  0  0  0  0
  5 27  1  0  0  0  0
  6 28  1  0  0  0  0
  7 29  1  0  0  0  0
 14 30  1  0  0  0  0
 14 31  1  0  0  0  0
 15 32  1  0  0  0  0
 15 33  1  0  0  0  0
 16 34  1  0  0  0  0
 16 35  1  0  0  0  0
 17 36  1  0  0  0  0
 17 37  1  0  0  0  0
 20 38  1  0  0  0  0
M  END
> <id>
EN300-37390304

> <smiles>
OC=1C=CC=2CCN(CC2C1Br)C(=O)OCC=3C=CC=CC3

> <IUPAC Name>
benzyl 8-bromo-7-hydroxy-1,2,3,4-tetrahydroisoquinoline-2-carboxylate

> <CAS>
2763920-56-3

> <URL>
https://www.enaminestore.com/catalog/EN300-37390304

> <ROCS_ShapeQuery>
_x1604L0AP1_x0771L0AP1

> <ROCS_TanimotoCombo>
0.892 

> <ROCS_ShapeTanimoto>
0.658 

> <ROCS_ColorTanimoto>
0.234 

> <ROCS_RefTversky>
0.633 

> <ROCS_RefColorTversky>
0.309 

> <ROCS_RefTverskyCombo>
0.941 

> <ROCS_FitTversky>
1.065 

> <ROCS_FitColorTversky>
0.489 

> <ROCS_FitTverskyCombo>
1.554 

> <ROCS_ColorScore>
-3.541

> <ROCS_Overlap>
1086.065

> <ROCS_Rank>
359                 

$$$$
untitled-dbase-1738_14
  -OEChem-06042309053D

 25 25  0     0  0  0  0  0  0999 V2000
   -4.3500   12.1704  -31.1863 C   0  0  0  0  0  0  0  0  0  0  0  0
   -4.6025   12.4937  -29.8532 C   0  0  0  0  0  0  0  0  0  0  0  0
   -5.0686   11.1468  -31.8039 C   0  0  0  0  0  0  0  0  0  0  0  0
   -5.5737   11.7934  -29.1376 C   0  0  0  0  0  0  0  0  0  0  0  0
   -6.2923   10.7697  -29.7552 C   0  0  0  0  0  0  0  0  0  0  0  0
   -6.0397   10.4464  -31.0884 C   0  0  0  0  0  0  0  0  0  0  0  0
   -5.9574   10.9796  -34.1630 C   0  0  0  0  0  0  0  0  0  0  0  0
   -6.0023   10.0432  -35.3430 C   0  0  0  0  0  0  0  0  0  0  0  0
   -5.0295   13.1796  -27.2834 C   0  0  0  0  0  0  0  0  0  0  0  0
   -4.7606   10.8406  -33.2345 C   0  0  0  0  0  0  0  0  0  0  0  0
   -6.8507   11.8051  -33.9780 O   0  0  0  0  0  0  0  0  0  0  0  0
   -7.2374   10.0993  -29.0342 O   0  0  0  0  0  0  0  0  0  0  0  0
   -5.8089   12.1209  -27.8362 O   0  0  0  0  0  0  0  0  0  0  0  0
   -7.0312    9.0542  -31.9260 Br  0  0  0  0  0  0  0  0  0  0  0  0
   -3.5914   12.7229  -31.7346 H   0  0  0  0  0  0  0  0  0  0  0  0
   -4.0399   13.2931  -29.3785 H   0  0  0  0  0  0  0  0  0  0  0  0
   -6.5313    9.1269  -35.0670 H   0  0  0  0  0  0  0  0  0  0  0  0
   -6.5326   10.5218  -36.1699 H   0  0  0  0  0  0  0  0  0  0  0  0
   -4.9843    9.7859  -35.6457 H   0  0  0  0  0  0  0  0  0  0  0  0
   -5.3167   13.3387  -26.2412 H   0  0  0  0  0  0  0  0  0  0  0  0
   -5.1925   14.0931  -27.8609 H   0  0  0  0  0  0  0  0  0  0  0  0
   -3.9730   12.9051  -27.3301 H   0  0  0  0  0  0  0  0  0  0  0  0
   -3.9679   11.5085  -33.6029 H   0  0  0  0  0  0  0  0  0  0  0  0
   -4.3775    9.8137  -33.3288 H   0  0  0  0  0  0  0  0  0  0  0  0
   -7.2802   10.4521  -28.1325 H   0  0  0  0  0  0  0  0  0  0  0  0
  1  2  1  0  0  0  0
  1  3  2  0  0  0  0
  2  4  2  0  0  0  0
  3  6  1  0  0  0  0
  3 10  1  0  0  0  0
  4  5  1  0  0  0  0
  4 13  1  0  0  0  0
  5  6  2  0  0  0  0
  5 12  1  0  0  0  0
  6 14  1  0  0  0  0
  7  8  1  0  0  0  0
  7 10  1  0  0  0  0
  7 11  2  0  0  0  0
  9 13  1  0  0  0  0
  1 15  1  0  0  0  0
  2 16  1  0  0  0  0
  8 17  1  0  0  0  0
  8 18  1  0  0  0  0
  8 19  1  0  0  0  0
  9 20  1  0  0  0  0
  9 21  1  0  0  0  0
  9 22  1  0  0  0  0
 10 23  1  0  0  0  0
 10 24  1  0  0  0  0
 12 25  1  0  0  0  0
M  END
> <id>
EN300-1893165

> <smiles>
COC=1C=CC(CC(=O)C)=C(Br)C1O

> <MDLNUMBER>
MFCD07783673

> <IUPAC Name>
1-(2-bromo-3-hydroxy-4-methoxyphenyl)propan-2-one

> <CAS>
1379312-63-6

> <URL>
https://www.enaminestore.com/catalog/EN300-1893165

> <ROCS_ShapeQuery>
_x1604L0AP1_x0771L0AP1

> <ROCS_TanimotoCombo>
0.892 

> <ROCS_ShapeTanimoto>
0.509 

> <ROCS_ColorTanimoto>
0.383 

> <ROCS_RefTversky>
0.466 

> <ROCS_RefColorTversky>
0.429 

> <ROCS_RefTverskyCombo>
0.896 

> <ROCS_FitTversky>
1.216 

> <ROCS_FitColorTversky>
0.780 

> <ROCS_FitTverskyCombo>
1.996 

> <ROCS_ColorScore>
-4.902

> <ROCS_Overlap>
791.714

> <ROCS_Rank>
360                 

$$$$
untitled-dbase-2128_14
  -OEChem-06042309053D

 27 27  0     0  0  0  0  0  0999 V2000
   -4.2326   12.2988  -29.1984 C   0  0  0  0  0  0  0  0  0  0  0  0
   -6.1007   11.1980  -30.9537 C   0  0  0  0  0  0  0  0  0  0  0  0
   -6.1870   10.9326  -29.5871 C   0  0  0  0  0  0  0  0  0  0  0  0
   -5.0804   12.0138  -31.4427 C   0  0  0  0  0  0  0  0  0  0  0  0
   -4.1463   12.5642  -30.5651 C   0  0  0  0  0  0  0  0  0  0  0  0
   -5.2530   11.4830  -28.7094 C   0  0  0  0  0  0  0  0  0  0  0  0
   -7.0688   10.6286  -31.8903 C   0  0  0  0  0  0  0  0  0  0  0  0
   -6.2706    8.2992  -31.0883 C   0  0  0  0  0  0  0  0  0  0  0  0
   -8.6698    8.6984  -31.7398 C   0  0  0  0  0  0  0  0  0  0  0  0
   -6.8609    8.7024  -33.4655 C   0  0  0  0  0  0  0  0  0  0  0  0
   -7.2109    9.0889  -32.0123 C   0  0  0  0  0  0  0  0  0  0  0  0
   -7.7724   11.3641  -32.5870 O   0  0  0  0  0  0  0  0  0  0  0  0
   -7.1888   10.1312  -29.1204 O   0  0  0  0  0  0  0  0  0  0  0  0
   -5.0009   12.2683  -32.7579 F   0  0  0  0  0  0  0  0  0  0  0  0
   -2.8847   13.5715  -31.1619 Cl  0  0  0  0  0  0  0  0  0  0  0  0
   -5.3363   11.1455  -26.8455 Br  0  0  0  0  0  0  0  0  0  0  0  0
   -3.5030   12.7304  -28.5165 H   0  0  0  0  0  0  0  0  0  0  0  0
   -6.3951    7.2177  -31.1981 H   0  0  0  0  0  0  0  0  0  0  0  0
   -5.2203    8.5179  -31.3144 H   0  0  0  0  0  0  0  0  0  0  0  0
   -6.4427    8.5514  -30.0357 H   0  0  0  0  0  0  0  0  0  0  0  0
   -8.8207    7.6174  -31.8145 H   0  0  0  0  0  0  0  0  0  0  0  0
   -9.3480    9.1761  -32.4558 H   0  0  0  0  0  0  0  0  0  0  0  0
   -8.9799    8.9989  -30.7323 H   0  0  0  0  0  0  0  0  0  0  0  0
   -6.9438    7.6193  -33.6140 H   0  0  0  0  0  0  0  0  0  0  0  0
   -7.5292    9.1937  -34.1819 H   0  0  0  0  0  0  0  0  0  0  0  0
   -5.8355    8.9905  -33.7248 H   0  0  0  0  0  0  0  0  0  0  0  0
   -7.1197   10.0392  -28.1582 H   0  0  0  0  0  0  0  0  0  0  0  0
  1  5  1  0  0  0  0
  1  6  2  0  0  0  0
  2  3  2  0  0  0  0
  2  4  1  0  0  0  0
  2  7  1  0  0  0  0
  3  6  1  0  0  0  0
  3 13  1  0  0  0  0
  4  5  2  0  0  0  0
  4 14  1  0  0  0  0
  5 15  1  0  0  0  0
  6 16  1  0  0  0  0
  7 11  1  0  0  0  0
  7 12  2  0  0  0  0
  8 11  1  0  0  0  0
  9 11  1  0  0  0  0
 10 11  1  0  0  0  0
  1 17  1  0  0  0  0
  8 18  1  0  0  0  0
  8 19  1  0  0  0  0
  8 20  1  0  0  0  0
  9 21  1  0  0  0  0
  9 22  1  0  0  0  0
  9 23  1  0  0  0  0
 10 24  1  0  0  0  0
 10 25  1  0  0  0  0
 10 26  1  0  0  0  0
 13 27  1  0  0  0  0
M  END
> <id>
EN300-1276807

> <smiles>
CC(C)(C)C(=O)C=1C(O)=C(Br)C=C(Cl)C1F

> <IUPAC Name>
1-(3-bromo-5-chloro-6-fluoro-2-hydroxyphenyl)-2,2-dimethylpropan-1-one

> <CAS>
1701971-60-9

> <URL>
https://www.enaminestore.com/catalog/EN300-1276807

> <ROCS_ShapeQuery>
_x1604L0AP1_x0771L0AP1

> <ROCS_TanimotoCombo>
0.891 

> <ROCS_ShapeTanimoto>
0.553 

> <ROCS_ColorTanimoto>
0.338 

> <ROCS_RefTversky>
0.509 

> <ROCS_RefColorTversky>
0.392 

> <ROCS_RefTverskyCombo>
0.901 

> <ROCS_FitTversky>
1.185 

> <ROCS_FitColorTversky>
0.712 

> <ROCS_FitTverskyCombo>
1.897 

> <ROCS_ColorScore>
-4.476

> <ROCS_Overlap>
866.381

> <ROCS_Rank>
361                 

$$$$
untitled-dbase-2292_5
  -OEChem-06042309053D

 15 15  0     0  0  0  0  0  0999 V2000
   -4.5975   12.4981  -29.8639 C   0  0  0  0  0  0  0  0  0  0  0  0
   -5.0809   11.1476  -31.8080 C   0  0  0  0  0  0  0  0  0  0  0  0
   -4.3550   12.1707  -31.1979 C   0  0  0  0  0  0  0  0  0  0  0  0
   -6.2915   10.7793  -29.7499 C   0  0  0  0  0  0  0  0  0  0  0  0
   -5.5656   11.8023  -29.1398 C   0  0  0  0  0  0  0  0  0  0  0  0
   -6.0491   10.4519  -31.0839 C   0  0  0  0  0  0  0  0  0  0  0  0
   -3.3461   12.8967  -31.9531 C   0  0  0  0  0  0  0  0  0  0  0  0
   -2.1632   12.5489  -32.0046 O   0  0  0  0  0  0  0  0  0  0  0  0
   -7.2382   10.1001  -29.0382 O   0  0  0  0  0  0  0  0  0  0  0  0
   -5.8401   12.2314  -27.4911 Cl  0  0  0  0  0  0  0  0  0  0  0  0
   -7.0135    9.0672  -31.9493 Br  0  0  0  0  0  0  0  0  0  0  0  0
   -4.0291   13.2975  -29.3932 H   0  0  0  0  0  0  0  0  0  0  0  0
   -4.8863   10.8977  -32.8488 H   0  0  0  0  0  0  0  0  0  0  0  0
   -3.6745   13.8054  -32.5031 H   0  0  0  0  0  0  0  0  0  0  0  0
   -7.2846   10.4449  -28.1337 H   0  0  0  0  0  0  0  0  0  0  0  0
  1  3  2  0  0  0  0
  1  5  1  0  0  0  0
  2  3  1  0  0  0  0
  2  6  2  0  0  0  0
  3  7  1  0  0  0  0
  4  5  2  0  0  0  0
  4  6  1  0  0  0  0
  4  9  1  0  0  0  0
  5 10  1  0  0  0  0
  6 11  1  0  0  0  0
  7  8  2  0  0  0  0
  1 12  1  0  0  0  0
  2 13  1  0  0  0  0
  7 14  1  0  0  0  0
  9 15  1  0  0  0  0
M  END
> <id>
EN300-7418405

> <smiles>
OC=1C(Cl)=CC(C=O)=CC1Br

> <MDLNUMBER>
MFCD04129026

> <IUPAC Name>
3-bromo-5-chloro-4-hydroxybenzaldehyde

> <URL>
https://www.enaminestore.com/catalog/EN300-7418405

> <ROCS_ShapeQuery>
_x1604L0AP1_x0771L0AP1

> <ROCS_TanimotoCombo>
0.891 

> <ROCS_ShapeTanimoto>
0.478 

> <ROCS_ColorTanimoto>
0.413 

> <ROCS_RefTversky>
0.424 

> <ROCS_RefColorTversky>
0.429 

> <ROCS_RefTverskyCombo>
0.853 

> <ROCS_FitTversky>
1.371 

> <ROCS_FitColorTversky>
0.915 

> <ROCS_FitTverskyCombo>
2.286 

> <ROCS_ColorScore>
-4.881

> <ROCS_Overlap>
716.007

> <ROCS_Rank>
362                 

$$$$
untitled-dbase-322_46
  -OEChem-06042309053D

 28 29  0     0  0  0  0  0  0999 V2000
   -4.6044   12.4875  -29.8702 C   0  0  0  0  0  0  0  0  0  0  0  0
   -4.3576   12.1632  -31.2042 C   0  0  0  0  0  0  0  0  0  0  0  0
   -5.5726   11.7879  -29.1500 C   0  0  0  0  0  0  0  0  0  0  0  0
   -5.0791   11.1393  -31.8180 C   0  0  0  0  0  0  0  0  0  0  0  0
   -6.2941   10.7640  -29.7637 C   0  0  0  0  0  0  0  0  0  0  0  0
   -6.0474   10.4397  -31.0977 C   0  0  0  0  0  0  0  0  0  0  0  0
   -6.4126   12.3203  -34.5869 C   0  0  0  0  0  0  0  0  0  0  0  0
   -7.2236   11.5864  -33.5592 C   0  0  0  0  0  0  0  0  0  0  0  0
   -5.9897   10.9369  -34.1453 C   0  0  0  0  0  0  0  0  0  0  0  0
   -5.0915    9.8043  -36.0613 C   0  0  0  0  0  0  0  0  0  0  0  0
   -4.7737   10.8272  -33.2660 C   0  0  0  0  0  0  0  0  0  0  0  0
   -6.1644    9.8110  -35.0875 N   0  0  0  0  0  0  0  0  0  0  0  0
   -7.2329   10.1028  -29.0285 O   0  0  0  0  0  0  0  0  0  0  0  0
   -7.0377    9.0407  -31.9242 Br  0  0  0  0  0  0  0  0  0  0  0  0
   -4.0429   13.2851  -29.3925 H   0  0  0  0  0  0  0  0  0  0  0  0
   -3.6009   12.7150  -31.7561 H   0  0  0  0  0  0  0  0  0  0  0  0
   -5.7595   12.0468  -28.1112 H   0  0  0  0  0  0  0  0  0  0  0  0
   -6.8441   12.4425  -35.5737 H   0  0  0  0  0  0  0  0  0  0  0  0
   -5.8312   13.1723  -34.2543 H   0  0  0  0  0  0  0  0  0  0  0  0
   -7.1860   11.9460  -32.5377 H   0  0  0  0  0  0  0  0  0  0  0  0
   -8.1976   11.2168  -33.8585 H   0  0  0  0  0  0  0  0  0  0  0  0
   -5.1100   10.7429  -36.6345 H   0  0  0  0  0  0  0  0  0  0  0  0
   -4.1261    9.7106  -35.5424 H   0  0  0  0  0  0  0  0  0  0  0  0
   -5.2236    8.9538  -36.7463 H   0  0  0  0  0  0  0  0  0  0  0  0
   -3.9794   11.5058  -33.6181 H   0  0  0  0  0  0  0  0  0  0  0  0
   -4.3401    9.8156  -33.3299 H   0  0  0  0  0  0  0  0  0  0  0  0
   -6.1572    8.9508  -34.5531 H   0  0  0  0  0  0  0  0  0  0  0  0
   -7.6597    9.4197  -29.5684 H   0  0  0  0  0  0  0  0  0  0  0  0
  1  2  1  0  0  0  0
  1  3  2  0  0  0  0
  2  4  2  0  0  0  0
  3  5  1  0  0  0  0
  4  6  1  0  0  0  0
  4 11  1  0  0  0  0
  5  6  2  0  0  0  0
  5 13  1  0  0  0  0
  6 14  1  0  0  0  0
  7  8  1  0  0  0  0
  7  9  1  0  0  0  0
  8  9  1  0  0  0  0
  9 11  1  0  0  0  0
  9 12  1  0  0  0  0
 10 12  1  0  0  0  0
  1 15  1  0  0  0  0
  2 16  1  0  0  0  0
  3 17  1  0  0  0  0
  7 18  1  0  0  0  0
  7 19  1  0  0  0  0
  8 20  1  0  0  0  0
  8 21  1  0  0  0  0
 10 22  1  0  0  0  0
 10 23  1  0  0  0  0
 10 24  1  0  0  0  0
 11 25  1  0  0  0  0
 11 26  1  0  0  0  0
 12 27  1  0  0  0  0
 13 28  1  0  0  0  0
M  END
> <id>
EN300-1904618

> <smiles>
CNC1(CC=2C=CC=C(O)C2Br)CC1

> <IUPAC Name>
2-bromo-3-{[1-(methylamino)cyclopropyl]methyl}phenol

> <CAS>
2229314-12-7

> <URL>
https://www.enaminestore.com/catalog/EN300-1904618

> <ROCS_ShapeQuery>
_x1604L0AP1_x0771L0AP1

> <ROCS_TanimotoCombo>
0.891 

> <ROCS_ShapeTanimoto>
0.511 

> <ROCS_ColorTanimoto>
0.381 

> <ROCS_RefTversky>
0.468 

> <ROCS_RefColorTversky>
0.428 

> <ROCS_RefTverskyCombo>
0.895 

> <ROCS_FitTversky>
1.219 

> <ROCS_FitColorTversky>
0.777 

> <ROCS_FitTverskyCombo>
1.996 

> <ROCS_ColorScore>
-4.881

> <ROCS_Overlap>
793.694

> <ROCS_Rank>
363                 

$$$$
untitled-dbase-930_1291
  -OEChem-06042309053D

 28 28  0     1  0  0  0  0  0999 V2000
   -5.0509   11.2464  -31.7571 C   0  0  0  0  0  0  0  0  0  0  0  0
   -4.4778   12.4100  -29.7189 C   0  0  0  0  0  0  0  0  0  0  0  0
   -4.2639   12.1758  -31.0772 C   0  0  0  0  0  0  0  0  0  0  0  0
   -6.0520   10.5511  -31.0787 C   0  0  0  0  0  0  0  0  0  0  0  0
   -6.2659   10.7853  -29.7204 C   0  0  0  0  0  0  0  0  0  0  0  0
   -5.4789   11.7148  -29.0404 C   0  0  0  0  0  0  0  0  0  0  0  0
   -2.8734   14.2808  -31.1918 C   0  0  0  0  0  0  0  0  0  0  0  0
   -6.4640    8.7366  -33.9435 C   0  0  0  0  0  0  0  0  0  0  0  0
   -3.4954   13.1127  -33.2987 C   0  0  0  0  0  0  0  0  0  0  0  0
   -7.0286    9.8917  -33.1444 C   0  0  0  0  0  0  0  0  0  0  0  0
   -3.1931   12.9182  -31.8027 C   0  0  2  0  0  0  0  0  0  0  0  0
   -3.6887   14.9729  -30.5899 O   0  0  0  0  0  0  0  0  0  0  0  0
   -7.2492   10.0946  -29.0740 O   0  0  0  0  0  0  0  0  0  0  0  0
   -6.8120    9.6460  -31.7563 O   0  0  0  0  0  0  0  0  0  0  0  0
   -5.7398   12.0599  -27.1947 Br  0  0  0  0  0  0  0  0  0  0  0  0
   -4.8858   11.0618  -32.8159 H   0  0  0  0  0  0  0  0  0  0  0  0
   -3.8586   13.1366  -29.1973 H   0  0  0  0  0  0  0  0  0  0  0  0
   -1.8213   14.6091  -31.2639 H   0  0  0  0  0  0  0  0  0  0  0  0
   -5.3892    8.6314  -33.7713 H   0  0  0  0  0  0  0  0  0  0  0  0
   -6.9593    7.7992  -33.6699 H   0  0  0  0  0  0  0  0  0  0  0  0
   -6.6371    8.8872  -35.0143 H   0  0  0  0  0  0  0  0  0  0  0  0
   -4.4334   13.6617  -33.4352 H   0  0  0  0  0  0  0  0  0  0  0  0
   -2.6985   13.6700  -33.8033 H   0  0  0  0  0  0  0  0  0  0  0  0
   -3.5894   12.1512  -33.8163 H   0  0  0  0  0  0  0  0  0  0  0  0
   -8.1037    9.9913  -33.3211 H   0  0  0  0  0  0  0  0  0  0  0  0
   -6.5321   10.8273  -33.4184 H   0  0  0  0  0  0  0  0  0  0  0  0
   -2.2392   12.3609  -31.7524 H   0  0  0  0  0  0  0  0  0  0  0  0
   -7.6950    9.4942  -29.6908 H   0  0  0  0  0  0  0  0  0  0  0  0
  1  3  1  0  0  0  0
  1  4  2  0  0  0  0
  2  3  2  0  0  0  0
  2  6  1  0  0  0  0
  3 11  1  0  0  0  0
  4  5  1  0  0  0  0
  4 14  1  0  0  0  0
  5  6  2  0  0  0  0
  5 13  1  0  0  0  0
  6 15  1  0  0  0  0
  7 11  1  0  0  0  0
  7 12  2  0  0  0  0
  8 10  1  0  0  0  0
  9 11  1  0  0  0  0
 10 14  1  0  0  0  0
  1 16  1  0  0  0  0
  2 17  1  0  0  0  0
  7 18  1  0  0  0  0
  8 19  1  0  0  0  0
  8 20  1  0  0  0  0
  8 21  1  0  0  0  0
  9 22  1  0  0  0  0
  9 23  1  0  0  0  0
  9 24  1  0  0  0  0
 10 25  1  0  0  0  0
 10 26  1  0  0  0  0
 11 27  1  0  0  0  0
 13 28  1  0  0  0  0
M  END
> <id>
EN300-1920253

> <smiles>
CCOC=1C=C(C=C(Br)C1O)C(C)C=O

> <IUPAC Name>
2-(3-bromo-5-ethoxy-4-hydroxyphenyl)propanal

> <CAS>
2228486-15-3

> <URL>
https://www.enaminestore.com/catalog/EN300-1920253

> <ROCS_ShapeQuery>
_x1604L0AP1_x0771L0AP1

> <ROCS_TanimotoCombo>
0.891 

> <ROCS_ShapeTanimoto>
0.629 

> <ROCS_ColorTanimoto>
0.262 

> <ROCS_RefTversky>
0.542 

> <ROCS_RefColorTversky>
0.339 

> <ROCS_RefTverskyCombo>
0.881 

> <ROCS_FitTversky>
1.342 

> <ROCS_FitColorTversky>
0.537 

> <ROCS_FitTverskyCombo>
1.878 

> <ROCS_ColorScore>
-3.884

> <ROCS_Overlap>
921.569

> <ROCS_Rank>
364                 

$$$$
untitled-dbase-2101_19
  -OEChem-06042309053D

 25 26  0     0  0  0  0  0  0999 V2000
   -4.9680   11.1472  -31.7378 C   0  0  0  0  0  0  0  0  0  0  0  0
   -4.5980   12.5361  -29.7959 C   0  0  0  0  0  0  0  0  0  0  0  0
   -5.9580   10.4471  -31.0485 C   0  0  0  0  0  0  0  0  0  0  0  0
   -6.2681   10.7915  -29.7329 C   0  0  0  0  0  0  0  0  0  0  0  0
   -4.2879   12.1917  -31.1115 C   0  0  0  0  0  0  0  0  0  0  0  0
   -5.5881   11.8360  -29.1065 C   0  0  0  0  0  0  0  0  0  0  0  0
   -7.5497    8.5044  -34.0371 C   0  0  0  0  0  0  0  0  0  0  0  0
   -6.0640    8.6722  -34.1681 C   0  0  0  0  0  0  0  0  0  0  0  0
   -6.8394    9.5628  -33.2228 C   0  0  0  0  0  0  0  0  0  0  0  0
   -6.6829    9.3181  -31.7465 C   0  0  0  0  0  0  0  0  0  0  0  0
   -7.0321   10.9822  -33.5886 N   0  0  0  0  0  0  0  0  0  0  0  0
   -7.2392   10.0969  -29.0717 O   0  0  0  0  0  0  0  0  0  0  0  0
   -3.0662   13.0552  -31.9626 Cl  0  0  0  0  0  0  0  0  0  0  0  0
   -5.9811   12.3335  -27.3197 Br  0  0  0  0  0  0  0  0  0  0  0  0
   -4.7294   10.8758  -32.7640 H   0  0  0  0  0  0  0  0  0  0  0  0
   -4.0650   13.3510  -29.3110 H   0  0  0  0  0  0  0  0  0  0  0  0
   -8.1660    8.8167  -34.8722 H   0  0  0  0  0  0  0  0  0  0  0  0
   -7.9131    7.6171  -33.5320 H   0  0  0  0  0  0  0  0  0  0  0  0
   -5.4313    7.8978  -33.7509 H   0  0  0  0  0  0  0  0  0  0  0  0
   -5.6862    9.0975  -35.0908 H   0  0  0  0  0  0  0  0  0  0  0  0
   -6.1372    8.3773  -31.5662 H   0  0  0  0  0  0  0  0  0  0  0  0
   -7.6677    9.1776  -31.2712 H   0  0  0  0  0  0  0  0  0  0  0  0
   -6.7151   11.0909  -34.5169 H   0  0  0  0  0  0  0  0  0  0  0  0
   -7.9966   11.1760  -33.5086 H   0  0  0  0  0  0  0  0  0  0  0  0
   -7.3444   10.4454  -28.1734 H   0  0  0  0  0  0  0  0  0  0  0  0
  1  3  2  0  0  0  0
  1  5  1  0  0  0  0
  2  5  2  0  0  0  0
  2  6  1  0  0  0  0
  3  4  1  0  0  0  0
  3 10  1  0  0  0  0
  4  6  2  0  0  0  0
  4 12  1  0  0  0  0
  5 13  1  0  0  0  0
  6 14  1  0  0  0  0
  7  8  1  0  0  0  0
  7  9  1  0  0  0  0
  8  9  1  0  0  0  0
  9 10  1  0  0  0  0
  9 11  1  0  0  0  0
  1 15  1  0  0  0  0
  2 16  1  0  0  0  0
  7 17  1  0  0  0  0
  7 18  1  0  0  0  0
  8 19  1  0  0  0  0
  8 20  1  0  0  0  0
 10 21  1  0  0  0  0
 10 22  1  0  0  0  0
 11 23  1  0  0  0  0
 11 24  1  0  0  0  0
 12 25  1  0  0  0  0
M  END
> <id>
EN300-1922576

> <smiles>
NC1(CC=2C=C(Cl)C=C(Br)C2O)CC1

> <IUPAC Name>
2-[(1-aminocyclopropyl)methyl]-6-bromo-4-chlorophenol

> <CAS>
2229280-31-1

> <URL>
https://www.enaminestore.com/catalog/EN300-1922576

> <ROCS_ShapeQuery>
_x1604L0AP1_x0771L0AP1

> <ROCS_TanimotoCombo>
0.891 

> <ROCS_ShapeTanimoto>
0.610 

> <ROCS_ColorTanimoto>
0.281 

> <ROCS_RefTversky>
0.523 

> <ROCS_RefColorTversky>
0.340 

> <ROCS_RefTverskyCombo>
0.863 

> <ROCS_FitTversky>
1.375 

> <ROCS_FitColorTversky>
0.618 

> <ROCS_FitTverskyCombo>
1.993 

> <ROCS_ColorScore>
-3.885

> <ROCS_Overlap>
887.406

> <ROCS_Rank>
365                 

$$$$
untitled-dbase-1265_398
  -OEChem-06042309053D

 24 24  0     0  0  0  0  0  0999 V2000
   -4.3823   12.0935  -30.2809 C   0  0  0  0  0  0  0  0  0  0  0  0
   -4.3119   11.6461  -31.6002 C   0  0  0  0  0  0  0  0  0  0  0  0
   -5.3601   11.5879  -29.4242 C   0  0  0  0  0  0  0  0  0  0  0  0
   -5.2194   10.6932  -32.0629 C   0  0  0  0  0  0  0  0  0  0  0  0
   -6.2676   10.6349  -29.8869 C   0  0  0  0  0  0  0  0  0  0  0  0
   -6.1972   10.1876  -31.2062 C   0  0  0  0  0  0  0  0  0  0  0  0
   -5.0981   10.2589  -33.4664 C   0  0  0  0  0  0  0  0  0  0  0  0
   -5.8574    8.0333  -34.5381 C   0  0  0  0  0  0  0  0  0  0  0  0
   -7.4231    8.3337  -36.2890 C   0  0  0  0  0  0  0  0  0  0  0  0
   -4.8216    8.7836  -33.7324 C   0  0  0  0  0  0  0  0  0  0  0  0
   -5.2018   11.0502  -34.4045 O   0  0  0  0  0  0  0  0  0  0  0  0
   -6.1223    6.8444  -34.4326 O   0  0  0  0  0  0  0  0  0  0  0  0
   -7.2095   10.1641  -29.0207 O   0  0  0  0  0  0  0  0  0  0  0  0
   -6.4320    8.9006  -35.4260 O   0  0  0  0  0  0  0  0  0  0  0  0
   -7.4436    8.8862  -31.8214 Br  0  0  0  0  0  0  0  0  0  0  0  0
   -3.6760   12.8360  -29.9210 H   0  0  0  0  0  0  0  0  0  0  0  0
   -3.5447   12.0487  -32.2571 H   0  0  0  0  0  0  0  0  0  0  0  0
   -5.4094   11.9425  -28.3981 H   0  0  0  0  0  0  0  0  0  0  0  0
   -7.8146    9.1079  -36.9534 H   0  0  0  0  0  0  0  0  0  0  0  0
   -8.2322    7.9110  -35.6880 H   0  0  0  0  0  0  0  0  0  0  0  0
   -6.9638    7.5424  -36.8862 H   0  0  0  0  0  0  0  0  0  0  0  0
   -3.8726    8.7218  -34.2775 H   0  0  0  0  0  0  0  0  0  0  0  0
   -4.7439    8.2668  -32.7692 H   0  0  0  0  0  0  0  0  0  0  0  0
   -7.7739    9.5117  -29.4635 H   0  0  0  0  0  0  0  0  0  0  0  0
  1  2  1  0  0  0  0
  1  3  2  0  0  0  0
  2  4  2  0  0  0  0
  3  5  1  0  0  0  0
  4  6  1  0  0  0  0
  4  7  1  0  0  0  0
  5  6  2  0  0  0  0
  5 13  1  0  0  0  0
  6 15  1  0  0  0  0
  7 10  1  0  0  0  0
  7 11  2  0  0  0  0
  8 10  1  0  0  0  0
  8 12  2  0  0  0  0
  8 14  1  0  0  0  0
  9 14  1  0  0  0  0
  1 16  1  0  0  0  0
  2 17  1  0  0  0  0
  3 18  1  0  0  0  0
  9 19  1  0  0  0  0
  9 20  1  0  0  0  0
  9 21  1  0  0  0  0
 10 22  1  0  0  0  0
 10 23  1  0  0  0  0
 13 24  1  0  0  0  0
M  END
> <id>
EN300-1904499

> <smiles>
COC(=O)CC(=O)C=1C=CC=C(O)C1Br

> <IUPAC Name>
methyl 3-(2-bromo-3-hydroxyphenyl)-3-oxopropanoate

> <CAS>
2229547-92-4

> <URL>
https://www.enaminestore.com/catalog/EN300-1904499

> <ROCS_ShapeQuery>
_x1604L0AP1_x0771L0AP1

> <ROCS_TanimotoCombo>
0.891 

> <ROCS_ShapeTanimoto>
0.491 

> <ROCS_ColorTanimoto>
0.400 

> <ROCS_RefTversky>
0.464 

> <ROCS_RefColorTversky>
0.466 

> <ROCS_RefTverskyCombo>
0.930 

> <ROCS_FitTversky>
1.132 

> <ROCS_FitColorTversky>
0.739 

> <ROCS_FitTverskyCombo>
1.871 

> <ROCS_ColorScore>
-5.346

> <ROCS_Overlap>
788.505

> <ROCS_Rank>
366                 

$$$$
untitled-dbase-57_5
  -OEChem-06042309053D

 21 22  0     0  0  0  0  0  0999 V2000
   -2.5707   13.8657  -31.2816 C   0  0  0  0  0  0  0  0  0  0  0  0
   -2.7456   14.1246  -29.9254 C   0  0  0  0  0  0  0  0  0  0  0  0
   -3.3620   12.9088  -31.9178 C   0  0  0  0  0  0  0  0  0  0  0  0
   -3.7124   13.4276  -29.2002 C   0  0  0  0  0  0  0  0  0  0  0  0
   -5.1452   11.2312  -31.8276 C   0  0  0  0  0  0  0  0  0  0  0  0
   -4.3399   12.1977  -31.2034 C   0  0  0  0  0  0  0  0  0  0  0  0
   -4.5177   12.4610  -29.8243 C   0  0  0  0  0  0  0  0  0  0  0  0
   -6.1120   10.5341  -31.1024 C   0  0  0  0  0  0  0  0  0  0  0  0
   -6.2868   10.7930  -29.7461 C   0  0  0  0  0  0  0  0  0  0  0  0
   -5.4956   11.7498  -29.1099 C   0  0  0  0  0  0  0  0  0  0  0  0
   -6.9255    9.5398  -31.7896 C   0  0  0  0  0  0  0  0  0  0  0  0
   -6.5189    8.8918  -32.7563 O   0  0  0  0  0  0  0  0  0  0  0  0
   -7.2410   10.0952  -29.0613 O   0  0  0  0  0  0  0  0  0  0  0  0
   -5.8138   12.0333  -27.2392 Br  0  0  0  0  0  0  0  0  0  0  0  0
   -1.8179   14.4087  -31.8456 H   0  0  0  0  0  0  0  0  0  0  0  0
   -2.1288   14.8698  -29.4314 H   0  0  0  0  0  0  0  0  0  0  0  0
   -3.2077   12.7230  -32.9787 H   0  0  0  0  0  0  0  0  0  0  0  0
   -3.8003   13.6744  -28.1467 H   0  0  0  0  0  0  0  0  0  0  0  0
   -5.0164   11.0213  -32.8884 H   0  0  0  0  0  0  0  0  0  0  0  0
   -7.9556    9.3741  -31.4093 H   0  0  0  0  0  0  0  0  0  0  0  0
   -7.6910    9.4776  -29.6567 H   0  0  0  0  0  0  0  0  0  0  0  0
  1  2  2  0  0  0  0
  1  3  1  0  0  0  0
  2  4  1  0  0  0  0
  3  6  2  0  0  0  0
  4  7  2  0  0  0  0
  5  6  1  0  0  0  0
  5  8  2  0  0  0  0
  6  7  1  0  0  0  0
  7 10  1  0  0  0  0
  8  9  1  0  0  0  0
  8 11  1  0  0  0  0
  9 10  2  0  0  0  0
  9 13  1  0  0  0  0
 10 14  1  0  0  0  0
 11 12  2  0  0  0  0
  1 15  1  0  0  0  0
  2 16  1  0  0  0  0
  3 17  1  0  0  0  0
  4 18  1  0  0  0  0
  5 19  1  0  0  0  0
 11 20  1  0  0  0  0
 13 21  1  0  0  0  0
M  END
> <id>
EN300-219026

> <smiles>
OC=1C(Br)=C2C=CC=CC2=CC1C=O

> <MDLNUMBER>
MFCD21233449

> <IUPAC Name>
4-bromo-3-hydroxynaphthalene-2-carbaldehyde

> <CAS>
75965-69-4

> <URL>
https://www.enaminestore.com/catalog/EN300-219026

> <ROCS_ShapeQuery>
_x1604L0AP1_x0771L0AP1

> <ROCS_TanimotoCombo>
0.891 

> <ROCS_ShapeTanimoto>
0.609 

> <ROCS_ColorTanimoto>
0.281 

> <ROCS_RefTversky>
0.530 

> <ROCS_RefColorTversky>
0.341 

> <ROCS_RefTverskyCombo>
0.871 

> <ROCS_FitTversky>
1.325 

> <ROCS_FitColorTversky>
0.618 

> <ROCS_FitTverskyCombo>
1.943 

> <ROCS_ColorScore>
-3.887

> <ROCS_Overlap>
900.764

> <ROCS_Rank>
367                 

$$$$
untitled-dbase-655_39
  -OEChem-06042309053D

 24 24  0     1  0  0  0  0  0999 V2000
   -4.5968   12.4804  -29.8429 C   0  0  0  0  0  0  0  0  0  0  0  0
   -4.3421   12.1636  -31.1772 C   0  0  0  0  0  0  0  0  0  0  0  0
   -5.5726   11.7799  -29.1337 C   0  0  0  0  0  0  0  0  0  0  0  0
   -5.0634   11.1466  -31.8024 C   0  0  0  0  0  0  0  0  0  0  0  0
   -6.2939   10.7629  -29.7590 C   0  0  0  0  0  0  0  0  0  0  0  0
   -6.0393   10.4462  -31.0934 C   0  0  0  0  0  0  0  0  0  0  0  0
   -4.2646    9.3903  -33.5130 C   0  0  0  0  0  0  0  0  0  0  0  0
   -5.9940   11.0809  -34.1386 C   0  0  0  0  0  0  0  0  0  0  0  0
   -4.7444   10.8380  -33.2726 C   0  0  1  0  0  0  0  0  0  0  0  0
   -3.6685   11.7192  -33.7653 N   0  0  0  0  0  0  0  0  0  0  0  0
   -7.2403   10.1007  -29.0344 O   0  0  0  0  0  0  0  0  0  0  0  0
   -7.0503   11.4690  -33.3809 F   0  0  0  0  0  0  0  0  0  0  0  0
   -6.3651    9.9304  -34.7583 F   0  0  0  0  0  0  0  0  0  0  0  0
   -7.0295    9.0565  -31.9356 Br  0  0  0  0  0  0  0  0  0  0  0  0
   -4.0355   13.2726  -29.3561 H   0  0  0  0  0  0  0  0  0  0  0  0
   -3.5795   12.7160  -31.7203 H   0  0  0  0  0  0  0  0  0  0  0  0
   -5.7656   12.0330  -28.0946 H   0  0  0  0  0  0  0  0  0  0  0  0
   -4.0466    9.2065  -34.5720 H   0  0  0  0  0  0  0  0  0  0  0  0
   -3.3610    9.1598  -32.9371 H   0  0  0  0  0  0  0  0  0  0  0  0
   -5.0239    8.6614  -33.2024 H   0  0  0  0  0  0  0  0  0  0  0  0
   -5.8311   11.8423  -34.9087 H   0  0  0  0  0  0  0  0  0  0  0  0
   -3.9855   12.6507  -33.6765 H   0  0  0  0  0  0  0  0  0  0  0  0
   -2.8717   11.5534  -33.2053 H   0  0  0  0  0  0  0  0  0  0  0  0
   -7.6661    9.4228  -29.5817 H   0  0  0  0  0  0  0  0  0  0  0  0
  1  2  1  0  0  0  0
  1  3  2  0  0  0  0
  2  4  2  0  0  0  0
  3  5  1  0  0  0  0
  4  6  1  0  0  0  0
  4  9  1  0  0  0  0
  5  6  2  0  0  0  0
  5 11  1  0  0  0  0
  6 14  1  0  0  0  0
  7  9  1  0  0  0  0
  8  9  1  0  0  0  0
  8 12  1  0  0  0  0
  8 13  1  0  0  0  0
  9 10  1  0  0  0  0
  1 15  1  0  0  0  0
  2 16  1  0  0  0  0
  3 17  1  0  0  0  0
  7 18  1  0  0  0  0
  7 19  1  0  0  0  0
  7 20  1  0  0  0  0
  8 21  1  0  0  0  0
 10 22  1  0  0  0  0
 10 23  1  0  0  0  0
 11 24  1  0  0  0  0
M  END
> <id>
EN300-1951057

> <smiles>
CC(N)(C(F)F)C=1C=CC=C(O)C1Br

> <IUPAC Name>
3-(2-amino-1,1-difluoropropan-2-yl)-2-bromophenol

> <CAS>
2228926-30-3

> <URL>
https://www.enaminestore.com/catalog/EN300-1951057

> <ROCS_ShapeQuery>
_x1604L0AP1_x0771L0AP1

> <ROCS_TanimotoCombo>
0.891 

> <ROCS_ShapeTanimoto>
0.510 

> <ROCS_ColorTanimoto>
0.381 

> <ROCS_RefTversky>
0.469 

> <ROCS_RefColorTversky>
0.428 

> <ROCS_RefTverskyCombo>
0.896 

> <ROCS_FitTversky>
1.209 

> <ROCS_FitColorTversky>
0.777 

> <ROCS_FitTverskyCombo>
1.986 

> <ROCS_ColorScore>
-4.883

> <ROCS_Overlap>
795.414

> <ROCS_Rank>
368                 

$$$$
untitled-dbase-939_34
  -OEChem-06042309053D

 20 20  0     0  0  0  0  0  0999 V2000
   -4.6086   12.4966  -29.8487 C   0  0  0  0  0  0  0  0  0  0  0  0
   -4.3593   12.1883  -31.1860 C   0  0  0  0  0  0  0  0  0  0  0  0
   -5.5766   11.7869  -29.1381 C   0  0  0  0  0  0  0  0  0  0  0  0
   -5.0781   11.1704  -31.8128 C   0  0  0  0  0  0  0  0  0  0  0  0
   -6.2954   10.7690  -29.7648 C   0  0  0  0  0  0  0  0  0  0  0  0
   -6.0461   10.4607  -31.1021 C   0  0  0  0  0  0  0  0  0  0  0  0
   -3.5224   10.5204  -33.5907 C   0  0  0  0  0  0  0  0  0  0  0  0
   -4.7691   10.8975  -33.2121 C   0  0  0  0  0  0  0  0  0  0  0  0
   -5.8662   10.9792  -34.2557 C   0  0  0  0  0  0  0  0  0  0  0  0
   -7.2329   10.0982  -29.0368 O   0  0  0  0  0  0  0  0  0  0  0  0
   -6.0869    9.4019  -35.0519 Cl  0  0  0  0  0  0  0  0  0  0  0  0
   -7.0435    9.0631  -31.9323 Br  0  0  0  0  0  0  0  0  0  0  0  0
   -4.0490   13.2893  -29.3601 H   0  0  0  0  0  0  0  0  0  0  0  0
   -3.6002   12.7520  -31.7234 H   0  0  0  0  0  0  0  0  0  0  0  0
   -5.7646   12.0324  -28.0963 H   0  0  0  0  0  0  0  0  0  0  0  0
   -3.2817   10.3150  -34.6288 H   0  0  0  0  0  0  0  0  0  0  0  0
   -2.7118   10.4178  -32.8759 H   0  0  0  0  0  0  0  0  0  0  0  0
   -6.8352   11.2510  -33.8239 H   0  0  0  0  0  0  0  0  0  0  0  0
   -5.6410   11.7232  -35.0249 H   0  0  0  0  0  0  0  0  0  0  0  0
   -7.6587    9.4204  -29.5841 H   0  0  0  0  0  0  0  0  0  0  0  0
  1  2  2  0  0  0  0
  1  3  1  0  0  0  0
  2  4  1  0  0  0  0
  3  5  2  0  0  0  0
  4  6  2  0  0  0  0
  4  8  1  0  0  0  0
  5  6  1  0  0  0  0
  5 10  1  0  0  0  0
  6 12  1  0  0  0  0
  7  8  2  0  0  0  0
  8  9  1  0  0  0  0
  9 11  1  0  0  0  0
  1 13  1  0  0  0  0
  2 14  1  0  0  0  0
  3 15  1  0  0  0  0
  7 16  1  0  0  0  0
  7 17  1  0  0  0  0
  9 18  1  0  0  0  0
  9 19  1  0  0  0  0
 10 20  1  0  0  0  0
M  END
> <id>
EN300-1904626

> <smiles>
OC=1C=CC=C(C(=C)CCl)C1Br

> <IUPAC Name>
2-bromo-3-(3-chloroprop-1-en-2-yl)phenol

> <CAS>
2229122-39-6

> <URL>
https://www.enaminestore.com/catalog/EN300-1904626

> <ROCS_ShapeQuery>
_x1604L0AP1_x0771L0AP1

> <ROCS_TanimotoCombo>
0.891 

> <ROCS_ShapeTanimoto>
0.478 

> <ROCS_ColorTanimoto>
0.413 

> <ROCS_RefTversky>
0.429 

> <ROCS_RefColorTversky>
0.430 

> <ROCS_RefTverskyCombo>
0.859 

> <ROCS_FitTversky>
1.308 

> <ROCS_FitColorTversky>
0.915 

> <ROCS_FitTverskyCombo>
2.223 

> <ROCS_ColorScore>
-4.883

> <ROCS_Overlap>
726.441

> <ROCS_Rank>
369                 

$$$$
untitled-dbase-1369_450
  -OEChem-06042309053D

 24 24  0     1  0  0  0  0  0999 V2000
   -4.6185   12.5021  -29.8261 C   0  0  0  0  0  0  0  0  0  0  0  0
   -5.0770   11.1657  -31.7859 C   0  0  0  0  0  0  0  0  0  0  0  0
   -4.3625   12.1876  -31.1607 C   0  0  0  0  0  0  0  0  0  0  0  0
   -5.5890   11.7945  -29.1166 C   0  0  0  0  0  0  0  0  0  0  0  0
   -6.3035   10.7726  -29.7418 C   0  0  0  0  0  0  0  0  0  0  0  0
   -6.0475   10.4582  -31.0765 C   0  0  0  0  0  0  0  0  0  0  0  0
   -5.0527   13.1712  -27.2531 C   0  0  0  0  0  0  0  0  0  0  0  0
   -2.1572   13.3928  -31.0300 C   0  0  0  0  0  0  0  0  0  0  0  0
   -3.3256   12.9449  -31.9192 C   0  0  1  0  0  0  0  0  0  0  0  0
   -7.2494   10.0927  -29.0314 O   0  0  0  0  0  0  0  0  0  0  0  0
   -2.8369   12.0918  -32.9608 O   0  0  0  0  0  0  0  0  0  0  0  0
   -5.8280   12.1137  -27.8139 O   0  0  0  0  0  0  0  0  0  0  0  0
   -2.5638   14.8757  -30.1256 Cl  0  0  0  0  0  0  0  0  0  0  0  0
   -6.9981    9.0762  -31.9600 Br  0  0  0  0  0  0  0  0  0  0  0  0
   -4.0631   13.2985  -29.3366 H   0  0  0  0  0  0  0  0  0  0  0  0
   -4.8705   10.9281  -32.8272 H   0  0  0  0  0  0  0  0  0  0  0  0
   -5.3427   13.3233  -26.2105 H   0  0  0  0  0  0  0  0  0  0  0  0
   -5.2168   14.0877  -27.8254 H   0  0  0  0  0  0  0  0  0  0  0  0
   -3.9954   12.8997  -27.2989 H   0  0  0  0  0  0  0  0  0  0  0  0
   -1.2659   13.6227  -31.6224 H   0  0  0  0  0  0  0  0  0  0  0  0
   -1.9046   12.6236  -30.2937 H   0  0  0  0  0  0  0  0  0  0  0  0
   -3.7656   13.8265  -32.4178 H   0  0  0  0  0  0  0  0  0  0  0  0
   -7.2982   10.4375  -28.1268 H   0  0  0  0  0  0  0  0  0  0  0  0
   -2.1680   12.6042  -33.4366 H   0  0  0  0  0  0  0  0  0  0  0  0
  1  3  1  0  0  0  0
  1  4  2  0  0  0  0
  2  3  2  0  0  0  0
  2  6  1  0  0  0  0
  3  9  1  0  0  0  0
  4  5  1  0  0  0  0
  4 12  1  0  0  0  0
  5  6  2  0  0  0  0
  5 10  1  0  0  0  0
  6 14  1  0  0  0  0
  7 12  1  0  0  0  0
  8  9  1  0  0  0  0
  8 13  1  0  0  0  0
  9 11  1  0  0  0  0
  1 15  1  0  0  0  0
  2 16  1  0  0  0  0
  7 17  1  0  0  0  0
  7 18  1  0  0  0  0
  7 19  1  0  0  0  0
  8 20  1  0  0  0  0
  8 21  1  0  0  0  0
  9 22  1  0  0  0  0
 10 23  1  0  0  0  0
 11 24  1  0  0  0  0
M  END
> <id>
EN300-1927034

> <smiles>
COC=1C=C(C=C(Br)C1O)C(O)CCl

> <IUPAC Name>
2-bromo-4-(2-chloro-1-hydroxyethyl)-6-methoxyphenol

> <CAS>
2229467-33-6

> <URL>
https://www.enaminestore.com/catalog/EN300-1927034

> <ROCS_ShapeQuery>
_x1604L0AP1_x0771L0AP1

> <ROCS_TanimotoCombo>
0.891 

> <ROCS_ShapeTanimoto>
0.536 

> <ROCS_ColorTanimoto>
0.355 

> <ROCS_RefTversky>
0.481 

> <ROCS_RefColorTversky>
0.427 

> <ROCS_RefTverskyCombo>
0.908 

> <ROCS_FitTversky>
1.272 

> <ROCS_FitColorTversky>
0.677 

> <ROCS_FitTverskyCombo>
1.949 

> <ROCS_ColorScore>
-4.897

> <ROCS_Overlap>
815.764

> <ROCS_Rank>
370                 

$$$$
untitled-dbase-8_12
  -OEChem-06042309053D

 19 19  0     0  0  0  0  0  0999 V2000
   -4.8177   12.6450  -29.5710 C   0  0  0  0  0  0  0  0  0  0  0  0
   -4.9693   11.2565  -31.5423 C   0  0  0  0  0  0  0  0  0  0  0  0
   -5.8231   11.8927  -28.9638 C   0  0  0  0  0  0  0  0  0  0  0  0
   -4.3908   12.3269  -30.8604 C   0  0  0  0  0  0  0  0  0  0  0  0
   -6.4016   10.8222  -29.6457 C   0  0  0  0  0  0  0  0  0  0  0  0
   -5.9747   10.5041  -30.9350 C   0  0  0  0  0  0  0  0  0  0  0  0
   -6.2517   12.2452  -27.6169 C   0  0  0  0  0  0  0  0  0  0  0  0
   -2.8630   14.1423  -30.6995 C   0  0  0  0  0  0  0  0  0  0  0  0
   -5.4895   12.2442  -26.6479 O   0  0  0  0  0  0  0  0  0  0  0  0
   -7.3856   10.0945  -29.0411 O   0  0  0  0  0  0  0  0  0  0  0  0
   -3.4102   13.0616  -31.4533 O   0  0  0  0  0  0  0  0  0  0  0  0
   -6.7344    9.0558  -31.8941 Br  0  0  0  0  0  0  0  0  0  0  0  0
   -4.3632   13.4807  -29.0438 H   0  0  0  0  0  0  0  0  0  0  0  0
   -4.6280   11.0182  -32.5471 H   0  0  0  0  0  0  0  0  0  0  0  0
   -7.3179   12.5240  -27.4785 H   0  0  0  0  0  0  0  0  0  0  0  0
   -2.0915   14.6444  -31.2884 H   0  0  0  0  0  0  0  0  0  0  0  0
   -2.4350   13.7592  -29.7697 H   0  0  0  0  0  0  0  0  0  0  0  0
   -3.6599   14.8523  -30.4662 H   0  0  0  0  0  0  0  0  0  0  0  0
   -7.5621   10.4458  -28.1552 H   0  0  0  0  0  0  0  0  0  0  0  0
  1  3  2  0  0  0  0
  1  4  1  0  0  0  0
  2  4  2  0  0  0  0
  2  6  1  0  0  0  0
  3  5  1  0  0  0  0
  3  7  1  0  0  0  0
  4 11  1  0  0  0  0
  5  6  2  0  0  0  0
  5 10  1  0  0  0  0
  6 12  1  0  0  0  0
  7  9  2  0  0  0  0
  8 11  1  0  0  0  0
  1 13  1  0  0  0  0
  2 14  1  0  0  0  0
  7 15  1  0  0  0  0
  8 16  1  0  0  0  0
  8 17  1  0  0  0  0
  8 18  1  0  0  0  0
 10 19  1  0  0  0  0
M  END
> <id>
EN300-68557

> <smiles>
COC=1C=C(Br)C(O)=C(C=O)C1

> <MDLNUMBER>
MFCD00091938

> <IUPAC Name>
3-bromo-2-hydroxy-5-methoxybenzaldehyde

> <CAS>
50343-02-7

> <Purity>
95

> <URL>
https://www.enaminestore.com/catalog/EN300-68557

> <MP>
108-109

> <ROCS_ShapeQuery>
_x1604L0AP1_x0771L0AP1

> <ROCS_TanimotoCombo>
0.891 

> <ROCS_ShapeTanimoto>
0.493 

> <ROCS_ColorTanimoto>
0.397 

> <ROCS_RefTversky>
0.442 

> <ROCS_RefColorTversky>
0.441 

> <ROCS_RefTverskyCombo>
0.883 

> <ROCS_FitTversky>
1.305 

> <ROCS_FitColorTversky>
0.801 

> <ROCS_FitTverskyCombo>
2.106 

> <ROCS_ColorScore>
-5.033

> <ROCS_Overlap>
748.914

> <ROCS_Rank>
371                 

$$$$
untitled-dbase-18_1
  -OEChem-06042309053D

 15 15  0     0  0  0  0  0  0999 V2000
   -4.5839   12.4673  -29.8424 C   0  0  0  0  0  0  0  0  0  0  0  0
   -5.5644   11.7753  -29.1315 C   0  0  0  0  0  0  0  0  0  0  0  0
   -5.0577   11.1297  -31.7978 C   0  0  0  0  0  0  0  0  0  0  0  0
   -4.3307   12.1445  -31.1756 C   0  0  0  0  0  0  0  0  0  0  0  0
   -6.2914   10.7604  -29.7536 C   0  0  0  0  0  0  0  0  0  0  0  0
   -6.0382   10.4376  -31.0868 C   0  0  0  0  0  0  0  0  0  0  0  0
   -3.3077   12.8659  -31.9161 C   0  0  0  0  0  0  0  0  0  0  0  0
   -2.6314   13.7723  -31.4221 O   0  0  0  0  0  0  0  0  0  0  0  0
   -7.2431   10.1041  -29.0312 O   0  0  0  0  0  0  0  0  0  0  0  0
   -7.0072    9.0653  -31.9645 Br  0  0  0  0  0  0  0  0  0  0  0  0
   -4.0233   13.2564  -29.3479 H   0  0  0  0  0  0  0  0  0  0  0  0
   -5.7567   12.0327  -28.0933 H   0  0  0  0  0  0  0  0  0  0  0  0
   -4.8542   10.8829  -32.8376 H   0  0  0  0  0  0  0  0  0  0  0  0
   -3.1415   12.5735  -32.9758 H   0  0  0  0  0  0  0  0  0  0  0  0
   -7.6709    9.4276  -29.5788 H   0  0  0  0  0  0  0  0  0  0  0  0
  1  2  1  0  0  0  0
  1  4  2  0  0  0  0
  2  5  2  0  0  0  0
  3  4  1  0  0  0  0
  3  6  2  0  0  0  0
  4  7  1  0  0  0  0
  5  6  1  0  0  0  0
  5  9  1  0  0  0  0
  6 10  1  0  0  0  0
  7  8  2  0  0  0  0
  1 11  1  0  0  0  0
  2 12  1  0  0  0  0
  3 13  1  0  0  0  0
  7 14  1  0  0  0  0
  9 15  1  0  0  0  0
M  END
> <id>
EN300-07841

> <smiles>
OC=1C=CC(C=O)=CC1Br

> <MDLNUMBER>
MFCD00017348

> <IUPAC Name>
3-bromo-4-hydroxybenzaldehyde

> <CAS>
2973-78-6

> <Purity>
95

> <URL>
https://www.enaminestore.com/catalog/EN300-07841

> <MP>
130-135

> <ROCS_ShapeQuery>
_x1604L0AP1_x0771L0AP1

> <ROCS_TanimotoCombo>
0.890 

> <ROCS_ShapeTanimoto>
0.478 

> <ROCS_ColorTanimoto>
0.413 

> <ROCS_RefTversky>
0.417 

> <ROCS_RefColorTversky>
0.429 

> <ROCS_RefTverskyCombo>
0.846 

> <ROCS_FitTversky>
1.443 

> <ROCS_FitColorTversky>
0.914 

> <ROCS_FitTverskyCombo>
2.358 

> <ROCS_ColorScore>
-4.879

> <ROCS_Overlap>
703.452

> <ROCS_Rank>
372                 

$$$$
untitled-dbase-864_25
  -OEChem-06042309053D

 25 26  0     0  0  0  0  0  0999 V2000
   -4.7327   11.7220  -31.2822 C   0  0  0  0  0  0  0  0  0  0  0  0
   -4.4017   12.4726  -29.0097 C   0  0  0  0  0  0  0  0  0  0  0  0
   -5.7980   10.9248  -30.8638 C   0  0  0  0  0  0  0  0  0  0  0  0
   -6.1652   10.9015  -29.5183 C   0  0  0  0  0  0  0  0  0  0  0  0
   -4.0345   12.4959  -30.3552 C   0  0  0  0  0  0  0  0  0  0  0  0
   -5.4671   11.6754  -28.5913 C   0  0  0  0  0  0  0  0  0  0  0  0
   -6.8711   10.9338  -33.8612 C   0  0  0  0  0  0  0  0  0  0  0  0
   -7.8150   10.6393  -32.6772 C   0  0  0  0  0  0  0  0  0  0  0  0
   -5.9723    9.7924  -33.3430 C   0  0  0  0  0  0  0  0  0  0  0  0
   -6.5768   10.0549  -31.9293 C   0  0  0  0  0  0  0  0  0  0  0  0
   -6.9632    8.7630  -31.3501 N   0  0  0  0  0  0  0  0  0  0  0  0
   -7.2096   10.1157  -29.1269 O   0  0  0  0  0  0  0  0  0  0  0  0
   -2.7200   13.4793  -30.8722 Cl  0  0  0  0  0  0  0  0  0  0  0  0
   -5.9362   11.6699  -26.7542 Br  0  0  0  0  0  0  0  0  0  0  0  0
   -4.4517   11.7366  -32.3325 H   0  0  0  0  0  0  0  0  0  0  0  0
   -3.8542   13.0774  -28.2895 H   0  0  0  0  0  0  0  0  0  0  0  0
   -7.3145   10.7402  -34.8415 H   0  0  0  0  0  0  0  0  0  0  0  0
   -6.4168   11.9253  -33.8654 H   0  0  0  0  0  0  0  0  0  0  0  0
   -8.2132   11.5457  -32.2194 H   0  0  0  0  0  0  0  0  0  0  0  0
   -8.6370    9.9600  -32.8878 H   0  0  0  0  0  0  0  0  0  0  0  0
   -6.1487    8.8160  -33.7873 H   0  0  0  0  0  0  0  0  0  0  0  0
   -4.9093   10.0270  -33.4125 H   0  0  0  0  0  0  0  0  0  0  0  0
   -7.9502    8.6981  -31.3879 H   0  0  0  0  0  0  0  0  0  0  0  0
   -6.5377    8.0510  -31.8904 H   0  0  0  0  0  0  0  0  0  0  0  0
   -7.3497   10.1995  -28.1714 H   0  0  0  0  0  0  0  0  0  0  0  0
  1  3  2  0  0  0  0
  1  5  1  0  0  0  0
  2  5  2  0  0  0  0
  2  6  1  0  0  0  0
  3  4  1  0  0  0  0
  3 10  1  0  0  0  0
  4  6  2  0  0  0  0
  4 12  1  0  0  0  0
  5 13  1  0  0  0  0
  6 14  1  0  0  0  0
  7  8  1  0  0  0  0
  7  9  1  0  0  0  0
  8 10  1  0  0  0  0
  9 10  1  0  0  0  0
 10 11  1  0  0  0  0
  1 15  1  0  0  0  0
  2 16  1  0  0  0  0
  7 17  1  0  0  0  0
  7 18  1  0  0  0  0
  8 19  1  0  0  0  0
  8 20  1  0  0  0  0
  9 21  1  0  0  0  0
  9 22  1  0  0  0  0
 11 23  1  0  0  0  0
 11 24  1  0  0  0  0
 12 25  1  0  0  0  0
M  END
> <id>
EN300-1912420

> <smiles>
NC1(CCC1)C=2C=C(Cl)C=C(Br)C2O

> <MDLNUMBER>
MFCD19699783

> <IUPAC Name>
2-(1-aminocyclobutyl)-6-bromo-4-chlorophenol

> <CAS>
1314697-76-1

> <URL>
https://www.enaminestore.com/catalog/EN300-1912420

> <ROCS_ShapeQuery>
_x1604L0AP1_x0771L0AP1

> <ROCS_TanimotoCombo>
0.890 

> <ROCS_ShapeTanimoto>
0.579 

> <ROCS_ColorTanimoto>
0.311 

> <ROCS_RefTversky>
0.507 

> <ROCS_RefColorTversky>
0.387 

> <ROCS_RefTverskyCombo>
0.895 

> <ROCS_FitTversky>
1.322 

> <ROCS_FitColorTversky>
0.614 

> <ROCS_FitTverskyCombo>
1.936 

> <ROCS_ColorScore>
-4.442

> <ROCS_Overlap>
861.047

> <ROCS_Rank>
373                 

$$$$
untitled-dbase-408_10
  -OEChem-06042309053D

 20 20  0     0  0  0  0  0  0999 V2000
   -4.4418   12.1720  -31.4164 C   0  0  0  0  0  0  0  0  0  0  0  0
   -4.7726   12.6884  -30.1637 C   0  0  0  0  0  0  0  0  0  0  0  0
   -5.0635   11.0121  -31.8790 C   0  0  0  0  0  0  0  0  0  0  0  0
   -5.7250   12.0450  -29.3734 C   0  0  0  0  0  0  0  0  0  0  0  0
   -6.3467   10.8851  -29.8359 C   0  0  0  0  0  0  0  0  0  0  0  0
   -6.0159   10.3687  -31.0887 C   0  0  0  0  0  0  0  0  0  0  0  0
   -6.0634   12.6143  -28.0349 C   0  0  0  0  0  0  0  0  0  0  0  0
   -6.1273   12.3113  -25.7175 N   0  0  0  0  0  0  0  0  0  0  0  0
   -5.8018   11.6862  -26.9651 N   0  0  0  0  0  0  0  0  0  0  0  0
   -7.2753   10.2661  -29.0504 O   0  0  0  0  0  0  0  0  0  0  0  0
   -6.8389    8.7955  -31.7534 Br  0  0  0  0  0  0  0  0  0  0  0  0
   -3.7006   12.6732  -32.0321 H   0  0  0  0  0  0  0  0  0  0  0  0
   -4.2851   13.5938  -29.8121 H   0  0  0  0  0  0  0  0  0  0  0  0
   -4.7931   10.6248  -32.8582 H   0  0  0  0  0  0  0  0  0  0  0  0
   -5.4808   13.5235  -27.8346 H   0  0  0  0  0  0  0  0  0  0  0  0
   -7.1231   12.8951  -27.9748 H   0  0  0  0  0  0  0  0  0  0  0  0
   -5.9132   11.6699  -24.9543 H   0  0  0  0  0  0  0  0  0  0  0  0
   -5.5249   13.1215  -25.5775 H   0  0  0  0  0  0  0  0  0  0  0  0
   -4.8098   11.4292  -26.9501 H   0  0  0  0  0  0  0  0  0  0  0  0
   -7.3841   10.7514  -28.2186 H   0  0  0  0  0  0  0  0  0  0  0  0
  1  2  1  0  0  0  0
  1  3  2  0  0  0  0
  2  4  2  0  0  0  0
  3  6  1  0  0  0  0
  4  5  1  0  0  0  0
  4  7  1  0  0  0  0
  5  6  2  0  0  0  0
  5 10  1  0  0  0  0
  6 11  1  0  0  0  0
  7  9  1  0  0  0  0
  8  9  1  0  0  0  0
  1 12  1  0  0  0  0
  2 13  1  0  0  0  0
  3 14  1  0  0  0  0
  7 15  1  0  0  0  0
  7 16  1  0  0  0  0
  8 17  1  0  0  0  0
  8 18  1  0  0  0  0
  9 19  1  0  0  0  0
 10 20  1  0  0  0  0
M  END
> <id>
EN300-1915665

> <smiles>
NNCC=1C=CC=C(Br)C1O

> <MDLNUMBER>
MFCD07786498

> <IUPAC Name>
2-bromo-6-(hydrazinylmethyl)phenol

> <CAS>
887596-34-1

> <URL>
https://www.enaminestore.com/catalog/EN300-1915665

> <ROCS_ShapeQuery>
_x1604L0AP1_x0771L0AP1

> <ROCS_TanimotoCombo>
0.890 

> <ROCS_ShapeTanimoto>
0.422 

> <ROCS_ColorTanimoto>
0.468 

> <ROCS_RefTversky>
0.389 

> <ROCS_RefColorTversky>
0.501 

> <ROCS_RefTverskyCombo>
0.889 

> <ROCS_FitTversky>
1.258 

> <ROCS_FitColorTversky>
0.877 

> <ROCS_FitTverskyCombo>
2.135 

> <ROCS_ColorScore>
-5.723

> <ROCS_Overlap>
657.094

> <ROCS_Rank>
374                 

$$$$
untitled-dbase-463_227
  -OEChem-06042309053D

 26 26  0     1  0  0  0  0  0999 V2000
   -4.5826   12.4673  -29.8100 C   0  0  0  0  0  0  0  0  0  0  0  0
   -5.0486   11.1381  -31.7729 C   0  0  0  0  0  0  0  0  0  0  0  0
   -4.3232   12.1495  -31.1432 C   0  0  0  0  0  0  0  0  0  0  0  0
   -5.5672   11.7735  -29.1065 C   0  0  0  0  0  0  0  0  0  0  0  0
   -6.2925   10.7621  -29.7362 C   0  0  0  0  0  0  0  0  0  0  0  0
   -6.0332   10.4444  -31.0694 C   0  0  0  0  0  0  0  0  0  0  0  0
   -2.4659   15.0929  -32.4371 C   0  0  0  0  0  0  0  0  0  0  0  0
   -5.0223   13.1418  -27.2393 C   0  0  0  0  0  0  0  0  0  0  0  0
   -3.2711   12.8922  -31.8952 C   0  0  0  0  0  0  0  0  0  0  0  0
   -3.1242   14.2499  -31.4354 N   0  0  1  0  0  0  0  0  0  0  0  0
   -7.2523   10.0956  -29.0317 O   0  0  0  0  0  0  0  0  0  0  0  0
   -2.1619   14.1831  -30.3426 O   0  0  0  0  0  0  0  0  0  0  0  0
   -5.8093   12.0957  -27.8051 O   0  0  0  0  0  0  0  0  0  0  0  0
   -6.9982    9.0763  -31.9590 Br  0  0  0  0  0  0  0  0  0  0  0  0
   -4.0187   13.2555  -29.3170 H   0  0  0  0  0  0  0  0  0  0  0  0
   -4.8393   10.8979  -32.8131 H   0  0  0  0  0  0  0  0  0  0  0  0
   -2.3726   16.1183  -32.0499 H   0  0  0  0  0  0  0  0  0  0  0  0
   -1.4654   14.6906  -32.6543 H   0  0  0  0  0  0  0  0  0  0  0  0
   -3.0654   15.1025  -33.3593 H   0  0  0  0  0  0  0  0  0  0  0  0
   -5.3162   13.2978  -26.1984 H   0  0  0  0  0  0  0  0  0  0  0  0
   -5.1699   14.0607  -27.8123 H   0  0  0  0  0  0  0  0  0  0  0  0
   -3.9687   12.8553  -27.2790 H   0  0  0  0  0  0  0  0  0  0  0  0
   -2.2924   12.4023  -31.7952 H   0  0  0  0  0  0  0  0  0  0  0  0
   -3.4968   12.9331  -32.9698 H   0  0  0  0  0  0  0  0  0  0  0  0
   -7.3014   10.4408  -28.1272 H   0  0  0  0  0  0  0  0  0  0  0  0
   -2.0932   15.1278  -30.1231 H   0  0  0  0  0  0  0  0  0  0  0  0
  1  3  1  0  0  0  0
  1  4  2  0  0  0  0
  2  3  2  0  0  0  0
  2  6  1  0  0  0  0
  3  9  1  0  0  0  0
  4  5  1  0  0  0  0
  4 13  1  0  0  0  0
  5  6  2  0  0  0  0
  5 11  1  0  0  0  0
  6 14  1  0  0  0  0
  7 10  1  0  0  0  0
  8 13  1  0  0  0  0
  9 10  1  0  0  0  0
 10 12  1  0  0  0  0
  1 15  1  0  0  0  0
  2 16  1  0  0  0  0
  7 17  1  0  0  0  0
  7 18  1  0  0  0  0
  7 19  1  0  0  0  0
  8 20  1  0  0  0  0
  8 21  1  0  0  0  0
  8 22  1  0  0  0  0
  9 23  1  0  0  0  0
  9 24  1  0  0  0  0
 11 25  1  0  0  0  0
 12 26  1  0  0  0  0
M  END
> <id>
EN300-1926974

> <smiles>
COC=1C=C(CN(C)O)C=C(Br)C1O

> <IUPAC Name>
2-bromo-4-{[hydroxy(methyl)amino]methyl}-6-methoxyphenol

> <CAS>
2229368-19-6

> <URL>
https://www.enaminestore.com/catalog/EN300-1926974

> <ROCS_ShapeQuery>
_x1604L0AP1_x0771L0AP1

> <ROCS_TanimotoCombo>
0.890 

> <ROCS_ShapeTanimoto>
0.508 

> <ROCS_ColorTanimoto>
0.383 

> <ROCS_RefTversky>
0.466 

> <ROCS_RefColorTversky>
0.429 

> <ROCS_RefTverskyCombo>
0.895 

> <ROCS_FitTversky>
1.215 

> <ROCS_FitColorTversky>
0.779 

> <ROCS_FitTverskyCombo>
1.995 

> <ROCS_ColorScore>
-4.898

> <ROCS_Overlap>
790.409

> <ROCS_Rank>
375                 

$$$$
untitled-dbase-2148_180
  -OEChem-06042309053D

 24 24  0     0  0  0  0  0  0999 V2000
   -4.3482   12.1761  -31.1736 C   0  0  0  0  0  0  0  0  0  0  0  0
   -4.6050   12.4955  -29.8403 C   0  0  0  0  0  0  0  0  0  0  0  0
   -5.0639   11.1532  -31.7960 C   0  0  0  0  0  0  0  0  0  0  0  0
   -5.5773   11.7921  -29.1294 C   0  0  0  0  0  0  0  0  0  0  0  0
   -6.2930   10.7692  -29.7518 C   0  0  0  0  0  0  0  0  0  0  0  0
   -6.0362   10.4498  -31.0851 C   0  0  0  0  0  0  0  0  0  0  0  0
   -5.0401   13.1740  -27.2700 C   0  0  0  0  0  0  0  0  0  0  0  0
   -4.7515   10.8512  -33.2265 C   0  0  0  0  0  0  0  0  0  0  0  0
   -5.9581   10.9009  -34.1761 C   0  0  0  0  0  0  0  0  0  0  0  0
   -7.2394   10.0958  -29.0353 O   0  0  0  0  0  0  0  0  0  0  0  0
   -5.8167   12.1158  -27.8278 O   0  0  0  0  0  0  0  0  0  0  0  0
   -6.7432   12.5418  -34.2207 S   0  0  0  0  0  0  0  0  0  0  0  0
   -7.0238    9.0587  -31.9293 Br  0  0  0  0  0  0  0  0  0  0  0  0
   -3.5887   12.7309  -31.7182 H   0  0  0  0  0  0  0  0  0  0  0  0
   -4.0447   13.2942  -29.3619 H   0  0  0  0  0  0  0  0  0  0  0  0
   -5.3304   13.3299  -26.2281 H   0  0  0  0  0  0  0  0  0  0  0  0
   -5.2025   14.0888  -27.8454 H   0  0  0  0  0  0  0  0  0  0  0  0
   -3.9832   12.9008  -27.3143 H   0  0  0  0  0  0  0  0  0  0  0  0
   -3.9574   11.5149  -33.6076 H   0  0  0  0  0  0  0  0  0  0  0  0
   -4.3181    9.8386  -33.2791 H   0  0  0  0  0  0  0  0  0  0  0  0
   -5.6333   10.6677  -35.1954 H   0  0  0  0  0  0  0  0  0  0  0  0
   -6.7147   10.1620  -33.8937 H   0  0  0  0  0  0  0  0  0  0  0  0
   -7.2851   10.4461  -28.1328 H   0  0  0  0  0  0  0  0  0  0  0  0
   -7.0508   12.5827  -32.9177 H   0  0  0  0  0  0  0  0  0  0  0  0
  1  2  1  0  0  0  0
  1  3  2  0  0  0  0
  2  4  2  0  0  0  0
  3  6  1  0  0  0  0
  3  8  1  0  0  0  0
  4  5  1  0  0  0  0
  4 11  1  0  0  0  0
  5  6  2  0  0  0  0
  5 10  1  0  0  0  0
  6 13  1  0  0  0  0
  7 11  1  0  0  0  0
  8  9  1  0  0  0  0
  9 12  1  0  0  0  0
  1 14  1  0  0  0  0
  2 15  1  0  0  0  0
  7 16  1  0  0  0  0
  7 17  1  0  0  0  0
  7 18  1  0  0  0  0
  8 19  1  0  0  0  0
  8 20  1  0  0  0  0
  9 21  1  0  0  0  0
  9 22  1  0  0  0  0
 10 23  1  0  0  0  0
 12 24  1  0  0  0  0
M  END
> <id>
EN300-1936286

> <smiles>
COC=1C=CC(CCS)=C(Br)C1O

> <IUPAC Name>
2-bromo-6-methoxy-3-(2-sulfanylethyl)phenol

> <CAS>
2228192-30-9

> <URL>
https://www.enaminestore.com/catalog/EN300-1936286

> <ROCS_ShapeQuery>
_x1604L0AP1_x0771L0AP1

> <ROCS_TanimotoCombo>
0.890 

> <ROCS_ShapeTanimoto>
0.474 

> <ROCS_ColorTanimoto>
0.415 

> <ROCS_RefTversky>
0.435 

> <ROCS_RefColorTversky>
0.431 

> <ROCS_RefTverskyCombo>
0.866 

> <ROCS_FitTversky>
1.237 

> <ROCS_FitColorTversky>
0.919 

> <ROCS_FitTverskyCombo>
2.155 

> <ROCS_ColorScore>
-4.902

> <ROCS_Overlap>
736.783

> <ROCS_Rank>
376                 

$$$$
untitled-dbase-1583_107
  -OEChem-06042309053D

 21 21  0     0  0  0  0  0  0999 V2000
   -4.3459   12.1569  -31.2103 C   0  0  0  0  0  0  0  0  0  0  0  0
   -5.1127   11.1677  -31.8261 C   0  0  0  0  0  0  0  0  0  0  0  0
   -4.5478   12.4583  -29.8634 C   0  0  0  0  0  0  0  0  0  0  0  0
   -6.0814   10.4800  -31.0950 C   0  0  0  0  0  0  0  0  0  0  0  0
   -6.2832   10.7815  -29.7481 C   0  0  0  0  0  0  0  0  0  0  0  0
   -5.5164   11.7707  -29.1324 C   0  0  0  0  0  0  0  0  0  0  0  0
   -6.8919    9.4255  -31.7742 C   0  0  0  0  0  0  0  0  0  0  0  0
   -6.3517    9.0330  -33.1534 C   0  0  0  0  0  0  0  0  0  0  0  0
   -6.6204    9.7925  -36.3538 N   0  5  0  0  0  0  0  0  0  0  0  0
   -6.3194   10.2100  -34.0259 N   0  0  0  0  0  0  0  0  0  0  0  0
   -6.4767    9.9876  -35.2392 N   0  3  0  0  0  0  0  0  0  0  0  0
   -7.2359   10.1011  -29.0467 O   0  0  0  0  0  0  0  0  0  0  0  0
   -5.7597   12.2090  -27.3040 Br  0  0  0  0  0  0  0  0  0  0  0  0
   -3.5914   12.6920  -31.7793 H   0  0  0  0  0  0  0  0  0  0  0  0
   -4.9472   10.9375  -32.8752 H   0  0  0  0  0  0  0  0  0  0  0  0
   -3.9403   13.2320  -29.4006 H   0  0  0  0  0  0  0  0  0  0  0  0
   -6.9649    8.5256  -31.1410 H   0  0  0  0  0  0  0  0  0  0  0  0
   -7.9282    9.7833  -31.8909 H   0  0  0  0  0  0  0  0  0  0  0  0
   -5.3320    8.6452  -33.0615 H   0  0  0  0  0  0  0  0  0  0  0  0
   -6.9647    8.2510  -33.6140 H   0  0  0  0  0  0  0  0  0  0  0  0
   -7.2624   10.4157  -28.1303 H   0  0  0  0  0  0  0  0  0  0  0  0
  1  2  1  0  0  0  0
  1  3  2  0  0  0  0
  2  4  2  0  0  0  0
  3  6  1  0  0  0  0
  4  5  1  0  0  0  0
  4  7  1  0  0  0  0
  5  6  2  0  0  0  0
  5 12  1  0  0  0  0
  6 13  1  0  0  0  0
  7  8  1  0  0  0  0
  8 10  1  0  0  0  0
  9 11  2  0  0  0  0
 10 11  2  0  0  0  0
  1 14  1  0  0  0  0
  2 15  1  0  0  0  0
  3 16  1  0  0  0  0
  7 17  1  0  0  0  0
  7 18  1  0  0  0  0
  8 19  1  0  0  0  0
  8 20  1  0  0  0  0
 12 21  1  0  0  0  0
M  CHG  2   9  -1  11   1
M  END
> <id>
EN300-1923474

> <smiles>
OC=1C(Br)=CC=CC1CCN=[N+]=[N-]

> <IUPAC Name>
2-(2-azidoethyl)-6-bromophenol

> <CAS>
2228205-25-0

> <URL>
https://www.enaminestore.com/catalog/EN300-1923474

> <ROCS_ShapeQuery>
_x1604L0AP1_x0771L0AP1

> <ROCS_TanimotoCombo>
0.890 

> <ROCS_ShapeTanimoto>
0.561 

> <ROCS_ColorTanimoto>
0.329 

> <ROCS_RefTversky>
0.488 

> <ROCS_RefColorTversky>
0.343 

> <ROCS_RefTverskyCombo>
0.831 

> <ROCS_FitTversky>
1.364 

> <ROCS_FitColorTversky>
0.886 

> <ROCS_FitTverskyCombo>
2.250 

> <ROCS_ColorScore>
-3.886

> <ROCS_Overlap>
826.752

> <ROCS_Rank>
377                 

$$$$
untitled-dbase-824_3
  -OEChem-06042309053D

 21 21  0     0  0  0  0  0  0999 V2000
   -4.6027   12.4854  -29.8369 C   0  0  0  0  0  0  0  0  0  0  0  0
   -5.5776   11.7825  -29.1291 C   0  0  0  0  0  0  0  0  0  0  0  0
   -4.3476   12.1714  -31.1718 C   0  0  0  0  0  0  0  0  0  0  0  0
   -6.2974   10.7654  -29.7562 C   0  0  0  0  0  0  0  0  0  0  0  0
   -5.0673   11.1544  -31.7989 C   0  0  0  0  0  0  0  0  0  0  0  0
   -6.0422   10.4514  -31.0911 C   0  0  0  0  0  0  0  0  0  0  0  0
   -2.7041   13.8900  -31.1341 C   0  0  0  0  0  0  0  0  0  0  0  0
   -5.5491   11.5724  -34.0900 C   0  0  0  0  0  0  0  0  0  0  0  0
   -7.2419   10.0993  -29.0334 O   0  0  0  0  0  0  0  0  0  0  0  0
   -3.3925   12.8667  -31.8504 O   0  0  0  0  0  0  0  0  0  0  0  0
   -4.8004   10.8645  -33.1055 O   0  0  0  0  0  0  0  0  0  0  0  0
   -7.0253    9.0644  -31.9438 Br  0  0  0  0  0  0  0  0  0  0  0  0
   -4.0456   13.2765  -29.3424 H   0  0  0  0  0  0  0  0  0  0  0  0
   -5.7709   12.0325  -28.0894 H   0  0  0  0  0  0  0  0  0  0  0  0
   -1.9709   14.3650  -31.7905 H   0  0  0  0  0  0  0  0  0  0  0  0
   -2.2034   13.4543  -30.2658 H   0  0  0  0  0  0  0  0  0  0  0  0
   -3.4273   14.6370  -30.7984 H   0  0  0  0  0  0  0  0  0  0  0  0
   -5.2399   11.2483  -35.0867 H   0  0  0  0  0  0  0  0  0  0  0  0
   -5.3798   12.6460  -33.9754 H   0  0  0  0  0  0  0  0  0  0  0  0
   -6.6112   11.3563  -33.9522 H   0  0  0  0  0  0  0  0  0  0  0  0
   -7.6666    9.4219  -29.5823 H   0  0  0  0  0  0  0  0  0  0  0  0
  1  2  1  0  0  0  0
  1  3  2  0  0  0  0
  2  4  2  0  0  0  0
  3  5  1  0  0  0  0
  3 10  1  0  0  0  0
  4  6  1  0  0  0  0
  4  9  1  0  0  0  0
  5  6  2  0  0  0  0
  5 11  1  0  0  0  0
  6 12  1  0  0  0  0
  7 10  1  0  0  0  0
  8 11  1  0  0  0  0
  1 13  1  0  0  0  0
  2 14  1  0  0  0  0
  7 15  1  0  0  0  0
  7 16  1  0  0  0  0
  7 17  1  0  0  0  0
  8 18  1  0  0  0  0
  8 19  1  0  0  0  0
  8 20  1  0  0  0  0
  9 21  1  0  0  0  0
M  END
> <id>
EN300-1895511

> <smiles>
COC=1C=CC(O)=C(Br)C1OC

> <MDLNUMBER>
MFCD27945703

> <IUPAC Name>
2-bromo-3,4-dimethoxyphenol

> <CAS>
16276-35-0

> <URL>
https://www.enaminestore.com/catalog/EN300-1895511

> <ROCS_ShapeQuery>
_x1604L0AP1_x0771L0AP1

> <ROCS_TanimotoCombo>
0.890 

> <ROCS_ShapeTanimoto>
0.509 

> <ROCS_ColorTanimoto>
0.381 

> <ROCS_RefTversky>
0.451 

> <ROCS_RefColorTversky>
0.428 

> <ROCS_RefTverskyCombo>
0.879 

> <ROCS_FitTversky>
1.333 

> <ROCS_FitColorTversky>
0.777 

> <ROCS_FitTverskyCombo>
2.110 

> <ROCS_ColorScore>
-4.882

> <ROCS_Overlap>
764.254

> <ROCS_Rank>
378                 

$$$$
untitled-dbase-1671_189
  -OEChem-06042309053D

 25 25  0     0  0  0  0  0  0999 V2000
   -4.1882   12.5191  -30.7308 C   0  0  0  0  0  0  0  0  0  0  0  0
   -4.9488   11.7303  -31.5938 C   0  0  0  0  0  0  0  0  0  0  0  0
   -4.4347   12.4883  -29.3581 C   0  0  0  0  0  0  0  0  0  0  0  0
   -5.9559   10.9106  -31.0843 C   0  0  0  0  0  0  0  0  0  0  0  0
   -6.2024   10.8798  -29.7117 C   0  0  0  0  0  0  0  0  0  0  0  0
   -5.4418   11.6687  -28.8486 C   0  0  0  0  0  0  0  0  0  0  0  0
   -7.2575    8.9077  -31.6236 C   0  0  0  0  0  0  0  0  0  0  0  0
   -6.7466   10.0840  -32.0263 C   0  0  0  0  0  0  0  0  0  0  0  0
   -6.9224   10.5656  -33.4506 C   0  0  0  0  0  0  0  0  0  0  0  0
   -6.2826    9.6150  -34.4669 C   0  0  0  0  0  0  0  0  0  0  0  0
   -6.4928   10.1102  -35.8233 N   0  0  0  0  0  0  0  0  0  0  0  0
   -7.1905   10.0759  -29.2186 O   0  0  0  0  0  0  0  0  0  0  0  0
   -5.7430   11.6545  -26.9766 Br  0  0  0  0  0  0  0  0  0  0  0  0
   -3.4039   13.1575  -31.1264 H   0  0  0  0  0  0  0  0  0  0  0  0
   -4.7430   11.7647  -32.6611 H   0  0  0  0  0  0  0  0  0  0  0  0
   -3.8313   13.1097  -28.7012 H   0  0  0  0  0  0  0  0  0  0  0  0
   -7.8420    8.2719  -32.2810 H   0  0  0  0  0  0  0  0  0  0  0  0
   -7.1089    8.5502  -30.6094 H   0  0  0  0  0  0  0  0  0  0  0  0
   -7.9863   10.7048  -33.6774 H   0  0  0  0  0  0  0  0  0  0  0  0
   -6.4698   11.5608  -33.5627 H   0  0  0  0  0  0  0  0  0  0  0  0
   -5.2067    9.5233  -34.2785 H   0  0  0  0  0  0  0  0  0  0  0  0
   -6.7193    8.6136  -34.3894 H   0  0  0  0  0  0  0  0  0  0  0  0
   -6.0542   10.9974  -35.9029 H   0  0  0  0  0  0  0  0  0  0  0  0
   -6.0886    9.4619  -36.4575 H   0  0  0  0  0  0  0  0  0  0  0  0
   -7.2394   10.1637  -28.2550 H   0  0  0  0  0  0  0  0  0  0  0  0
  1  2  1  0  0  0  0
  1  3  2  0  0  0  0
  2  4  2  0  0  0  0
  3  6  1  0  0  0  0
  4  5  1  0  0  0  0
  4  8  1  0  0  0  0
  5  6  2  0  0  0  0
  5 12  1  0  0  0  0
  6 13  1  0  0  0  0
  7  8  2  0  0  0  0
  8  9  1  0  0  0  0
  9 10  1  0  0  0  0
 10 11  1  0  0  0  0
  1 14  1  0  0  0  0
  2 15  1  0  0  0  0
  3 16  1  0  0  0  0
  7 17  1  0  0  0  0
  7 18  1  0  0  0  0
  9 19  1  0  0  0  0
  9 20  1  0  0  0  0
 10 21  1  0  0  0  0
 10 22  1  0  0  0  0
 11 23  1  0  0  0  0
 11 24  1  0  0  0  0
 12 25  1  0  0  0  0
M  END
> <id>
EN300-1923468

> <smiles>
NCCC(=C)C=1C=CC=C(Br)C1O

> <IUPAC Name>
2-(4-aminobut-1-en-2-yl)-6-bromophenol

> <CAS>
2228177-60-2

> <URL>
https://www.enaminestore.com/catalog/EN300-1923468

> <ROCS_ShapeQuery>
_x1604L0AP1_x0771L0AP1

> <ROCS_TanimotoCombo>
0.889 

> <ROCS_ShapeTanimoto>
0.566 

> <ROCS_ColorTanimoto>
0.323 

> <ROCS_RefTversky>
0.489 

> <ROCS_RefColorTversky>
0.399 

> <ROCS_RefTverskyCombo>
0.888 

> <ROCS_FitTversky>
1.382 

> <ROCS_FitColorTversky>
0.632 

> <ROCS_FitTverskyCombo>
2.014 

> <ROCS_ColorScore>
-4.569

> <ROCS_Overlap>
829.510

> <ROCS_Rank>
379                 

$$$$
untitled-dbase-1364_2
  -OEChem-06042309053D

 22 23  0     0  0  0  0  0  0999 V2000
   -5.0584   11.1813  -31.7592 C   0  0  0  0  0  0  0  0  0  0  0  0
   -4.3577   12.1762  -31.0989 C   0  0  0  0  0  0  0  0  0  0  0  0
   -4.6230   12.4781  -29.7580 C   0  0  0  0  0  0  0  0  0  0  0  0
   -5.5951   11.7917  -29.0499 C   0  0  0  0  0  0  0  0  0  0  0  0
   -6.2983   10.7780  -29.7043 C   0  0  0  0  0  0  0  0  0  0  0  0
   -6.0317   10.4748  -31.0491 C   0  0  0  0  0  0  0  0  0  0  0  0
   -3.3071   13.0863  -31.6522 C   0  0  0  0  0  0  0  0  0  0  0  0
   -3.7735   13.6171  -29.2901 C   0  0  0  0  0  0  0  0  0  0  0  0
   -2.6730   13.6271  -30.3619 C   0  0  0  0  0  0  0  0  0  0  0  0
   -5.8718   12.1178  -27.6943 N   0  3  0  0  0  0  0  0  0  0  0  0
   -6.7594   11.4749  -27.0847 O   0  5  0  0  0  0  0  0  0  0  0  0
   -5.2204   13.0392  -27.1470 O   0  0  0  0  0  0  0  0  0  0  0  0
   -7.2589   10.0819  -29.0248 O   0  0  0  0  0  0  0  0  0  0  0  0
   -6.9880    9.1055  -31.9504 Br  0  0  0  0  0  0  0  0  0  0  0  0
   -4.8484   10.9670  -32.8025 H   0  0  0  0  0  0  0  0  0  0  0  0
   -2.5734   12.5559  -32.2657 H   0  0  0  0  0  0  0  0  0  0  0  0
   -3.7721   13.8903  -32.2321 H   0  0  0  0  0  0  0  0  0  0  0  0
   -4.3473   14.5494  -29.3068 H   0  0  0  0  0  0  0  0  0  0  0  0
   -3.3505   13.4529  -28.2950 H   0  0  0  0  0  0  0  0  0  0  0  0
   -1.8628   12.9528  -30.0507 H   0  0  0  0  0  0  0  0  0  0  0  0
   -2.2310   14.6192  -30.4979 H   0  0  0  0  0  0  0  0  0  0  0  0
   -7.3250   10.4112  -28.1165 H   0  0  0  0  0  0  0  0  0  0  0  0
  1  2  2  0  0  0  0
  1  6  1  0  0  0  0
  2  3  1  0  0  0  0
  2  7  1  0  0  0  0
  3  4  2  0  0  0  0
  3  8  1  0  0  0  0
  4  5  1  0  0  0  0
  4 10  1  0  0  0  0
  5  6  2  0  0  0  0
  5 13  1  0  0  0  0
  6 14  1  0  0  0  0
  7  9  1  0  0  0  0
  8  9  1  0  0  0  0
 10 11  1  0  0  0  0
 10 12  2  0  0  0  0
  1 15  1  0  0  0  0
  7 16  1  0  0  0  0
  7 17  1  0  0  0  0
  8 18  1  0  0  0  0
  8 19  1  0  0  0  0
  9 20  1  0  0  0  0
  9 21  1  0  0  0  0
 13 22  1  0  0  0  0
M  CHG  2  10   1  11  -1
M  END
> <id>
EN300-2007938

> <smiles>
OC=1C(Br)=CC=2CCCC2C1[N+](=O)[O-]

> <MDLNUMBER>
MFCD23136024

> <IUPAC Name>
6-bromo-4-nitro-2,3-dihydro-1H-inden-5-ol

> <CAS>
139515-86-9

> <Purity>
95

> <URL>
https://www.enaminestore.com/catalog/EN300-2007938

> <MP>
101-104

> <ROCS_ShapeQuery>
_x1604L0AP1_x0771L0AP1

> <ROCS_TanimotoCombo>
0.889 

> <ROCS_ShapeTanimoto>
0.525 

> <ROCS_ColorTanimoto>
0.364 

> <ROCS_RefTversky>
0.482 

> <ROCS_RefColorTversky>
0.436 

> <ROCS_RefTverskyCombo>
0.918 

> <ROCS_FitTversky>
1.204 

> <ROCS_FitColorTversky>
0.689 

> <ROCS_FitTverskyCombo>
1.893 

> <ROCS_ColorScore>
-5.004

> <ROCS_Overlap>
819.034

> <ROCS_Rank>
380                 

$$$$
untitled-dbase-1248_101
  -OEChem-06042309053D

 31 32  0     0  0  0  0  0  0999 V2000
   -5.8244   10.9855  -32.9784 C   0  0  0  0  0  0  0  0  0  0  0  0
   -5.6091   11.8875  -31.9365 C   0  0  0  0  0  0  0  0  0  0  0  0
   -6.5016    9.7901  -32.7373 C   0  0  0  0  0  0  0  0  0  0  0  0
   -6.0710   11.5942  -30.6535 C   0  0  0  0  0  0  0  0  0  0  0  0
   -6.7483   10.3988  -30.4123 C   0  0  0  0  0  0  0  0  0  0  0  0
   -6.9635    9.4968  -31.4542 C   0  0  0  0  0  0  0  0  0  0  0  0
   -8.1475    9.5674  -35.3932 C   0  0  0  0  0  0  0  0  0  0  0  0
   -8.2040    8.4257  -34.3630 C   0  0  0  0  0  0  0  0  0  0  0  0
   -6.6205    9.3785  -35.4242 C   0  0  0  0  0  0  0  0  0  0  0  0
   -6.7233    8.7809  -33.9744 C   0  0  0  0  0  0  0  0  0  0  0  0
   -5.1538   13.6822  -29.9793 C   0  0  0  0  0  0  0  0  0  0  0  0
   -5.8444    7.5442  -33.7733 C   0  0  0  0  0  0  0  0  0  0  0  0
   -7.1889   10.1332  -29.1483 O   0  0  0  0  0  0  0  0  0  0  0  0
   -6.3697    6.4923  -34.5591 O   0  0  0  0  0  0  0  0  0  0  0  0
   -5.8541   12.4854  -29.6460 O   0  0  0  0  0  0  0  0  0  0  0  0
   -7.8841    7.8662  -31.1194 Br  0  0  0  0  0  0  0  0  0  0  0  0
   -5.4607   11.2224  -33.9747 H   0  0  0  0  0  0  0  0  0  0  0  0
   -5.0821   12.8176  -32.1315 H   0  0  0  0  0  0  0  0  0  0  0  0
   -8.6432    9.3354  -36.3410 H   0  0  0  0  0  0  0  0  0  0  0  0
   -8.4962   10.5400  -35.0400 H   0  0  0  0  0  0  0  0  0  0  0  0
   -8.9301    8.6006  -33.5633 H   0  0  0  0  0  0  0  0  0  0  0  0
   -8.3689    7.4300  -34.7768 H   0  0  0  0  0  0  0  0  0  0  0  0
   -6.2480    8.7063  -36.1982 H   0  0  0  0  0  0  0  0  0  0  0  0
   -6.0697   10.3220  -35.4806 H   0  0  0  0  0  0  0  0  0  0  0  0
   -5.0484   14.3041  -29.0869 H   0  0  0  0  0  0  0  0  0  0  0  0
   -5.7048   14.2249  -30.7515 H   0  0  0  0  0  0  0  0  0  0  0  0
   -4.1627   13.4206  -30.3574 H   0  0  0  0  0  0  0  0  0  0  0  0
   -5.8537    7.2547  -32.7244 H   0  0  0  0  0  0  0  0  0  0  0  0
   -4.8266    7.7622  -34.0904 H   0  0  0  0  0  0  0  0  0  0  0  0
   -6.9538   10.8620  -28.5540 H   0  0  0  0  0  0  0  0  0  0  0  0
   -5.7995    5.7165  -34.4188 H   0  0  0  0  0  0  0  0  0  0  0  0
  1  2  1  0  0  0  0
  1  3  2  0  0  0  0
  2  4  2  0  0  0  0
  3  6  1  0  0  0  0
  3 10  1  0  0  0  0
  4  5  1  0  0  0  0
  4 15  1  0  0  0  0
  5  6  2  0  0  0  0
  5 13  1  0  0  0  0
  6 16  1  0  0  0  0
  7  8  1  0  0  0  0
  7  9  1  0  0  0  0
  8 10  1  0  0  0  0
  9 10  1  0  0  0  0
 10 12  1  0  0  0  0
 11 15  1  0  0  0  0
 12 14  1  0  0  0  0
  1 17  1  0  0  0  0
  2 18  1  0  0  0  0
  7 19  1  0  0  0  0
  7 20  1  0  0  0  0
  8 21  1  0  0  0  0
  8 22  1  0  0  0  0
  9 23  1  0  0  0  0
  9 24  1  0  0  0  0
 11 25  1  0  0  0  0
 11 26  1  0  0  0  0
 11 27  1  0  0  0  0
 12 28  1  0  0  0  0
 12 29  1  0  0  0  0
 13 30  1  0  0  0  0
 14 31  1  0  0  0  0
M  END
> <id>
EN300-1935942

> <smiles>
COC=1C=CC(=C(Br)C1O)C2(CO)CCC2

> <IUPAC Name>
2-bromo-3-[1-(hydroxymethyl)cyclobutyl]-6-methoxyphenol

> <CAS>
2229620-36-2

> <URL>
https://www.enaminestore.com/catalog/EN300-1935942

> <ROCS_ShapeQuery>
_x1604L0AP1_x0771L0AP1

> <ROCS_TanimotoCombo>
0.889 

> <ROCS_ShapeTanimoto>
0.521 

> <ROCS_ColorTanimoto>
0.368 

> <ROCS_RefTversky>
0.491 

> <ROCS_RefColorTversky>
0.461 

> <ROCS_RefTverskyCombo>
0.952 

> <ROCS_FitTversky>
1.130 

> <ROCS_FitColorTversky>
0.648 

> <ROCS_FitTverskyCombo>
1.778 

> <ROCS_ColorScore>
-5.305

> <ROCS_Overlap>
836.290

> <ROCS_Rank>
381                 

$$$$
untitled-dbase-778_27
  -OEChem-06042309053D

 25 26  0     0  0  0  0  0  0999 V2000
   -4.6608   12.5401  -29.8489 C   0  0  0  0  0  0  0  0  0  0  0  0
   -4.4163   12.2443  -31.1899 C   0  0  0  0  0  0  0  0  0  0  0  0
   -5.6051   11.8040  -29.1332 C   0  0  0  0  0  0  0  0  0  0  0  0
   -5.1162   11.2126  -31.8153 C   0  0  0  0  0  0  0  0  0  0  0  0
   -6.3050   10.7722  -29.7586 C   0  0  0  0  0  0  0  0  0  0  0  0
   -6.0606   10.4765  -31.0997 C   0  0  0  0  0  0  0  0  0  0  0  0
   -5.9613   11.0703  -34.1783 C   0  0  0  0  0  0  0  0  0  0  0  0
   -3.7856    9.8706  -33.5678 C   0  0  0  0  0  0  0  0  0  0  0  0
   -3.4458   11.3108  -33.7756 C   0  0  0  0  0  0  0  0  0  0  0  0
   -4.8215   10.9354  -33.2542 C   0  0  0  0  0  0  0  0  0  0  0  0
   -5.9484   10.1935  -35.4012 C   0  0  0  0  0  0  0  0  0  0  0  0
   -6.8792   11.8593  -33.9597 O   0  0  0  0  0  0  0  0  0  0  0  0
   -7.2220   10.0769  -29.0275 O   0  0  0  0  0  0  0  0  0  0  0  0
   -7.0277    9.0694  -31.9417 Br  0  0  0  0  0  0  0  0  0  0  0  0
   -4.1152   13.3434  -29.3624 H   0  0  0  0  0  0  0  0  0  0  0  0
   -3.6771   12.8239  -31.7370 H   0  0  0  0  0  0  0  0  0  0  0  0
   -5.7898   12.0410  -28.0890 H   0  0  0  0  0  0  0  0  0  0  0  0
   -3.9304    9.2558  -34.4489 H   0  0  0  0  0  0  0  0  0  0  0  0
   -3.3004    9.3524  -32.7485 H   0  0  0  0  0  0  0  0  0  0  0  0
   -2.7314   11.7618  -33.0962 H   0  0  0  0  0  0  0  0  0  0  0  0
   -3.3620   11.6657  -34.7965 H   0  0  0  0  0  0  0  0  0  0  0  0
   -6.4522    9.2479  -35.1823 H   0  0  0  0  0  0  0  0  0  0  0  0
   -4.9157    9.9848  -35.6914 H   0  0  0  0  0  0  0  0  0  0  0  0
   -6.4757   10.6944  -36.2167 H   0  0  0  0  0  0  0  0  0  0  0  0
   -7.6357    9.3917  -29.5750 H   0  0  0  0  0  0  0  0  0  0  0  0
  1  2  1  0  0  0  0
  1  3  2  0  0  0  0
  2  4  2  0  0  0  0
  3  5  1  0  0  0  0
  4  6  1  0  0  0  0
  4 10  1  0  0  0  0
  5  6  2  0  0  0  0
  5 13  1  0  0  0  0
  6 14  1  0  0  0  0
  7 10  1  0  0  0  0
  7 11  1  0  0  0  0
  7 12  2  0  0  0  0
  8  9  1  0  0  0  0
  8 10  1  0  0  0  0
  9 10  1  0  0  0  0
  1 15  1  0  0  0  0
  2 16  1  0  0  0  0
  3 17  1  0  0  0  0
  8 18  1  0  0  0  0
  8 19  1  0  0  0  0
  9 20  1  0  0  0  0
  9 21  1  0  0  0  0
 11 22  1  0  0  0  0
 11 23  1  0  0  0  0
 11 24  1  0  0  0  0
 13 25  1  0  0  0  0
M  END
> <id>
EN300-1904614

> <smiles>
CC(=O)C1(CC1)C=2C=CC=C(O)C2Br

> <IUPAC Name>
1-[1-(2-bromo-3-hydroxyphenyl)cyclopropyl]ethan-1-one

> <CAS>
2228344-40-7

> <URL>
https://www.enaminestore.com/catalog/EN300-1904614

> <ROCS_ShapeQuery>
_x1604L0AP1_x0771L0AP1

> <ROCS_TanimotoCombo>
0.889 

> <ROCS_ShapeTanimoto>
0.477 

> <ROCS_ColorTanimoto>
0.412 

> <ROCS_RefTversky>
0.449 

> <ROCS_RefColorTversky>
0.429 

> <ROCS_RefTverskyCombo>
0.878 

> <ROCS_FitTversky>
1.152 

> <ROCS_FitColorTversky>
0.914 

> <ROCS_FitTverskyCombo>
2.066 

> <ROCS_ColorScore>
-4.874

> <ROCS_Overlap>
761.713

> <ROCS_Rank>
382                 

$$$$
untitled-dbase-275_64
  -OEChem-06042309053D

 21 21  0     0  0  0  0  0  0999 V2000
   -4.6111   12.4938  -29.8708 C   0  0  0  0  0  0  0  0  0  0  0  0
   -4.3663   12.1735  -31.2061 C   0  0  0  0  0  0  0  0  0  0  0  0
   -5.5764   11.7902  -29.1504 C   0  0  0  0  0  0  0  0  0  0  0  0
   -5.0869   11.1497  -31.8211 C   0  0  0  0  0  0  0  0  0  0  0  0
   -6.2970   10.7664  -29.7654 C   0  0  0  0  0  0  0  0  0  0  0  0
   -6.0522   10.4461  -31.1008 C   0  0  0  0  0  0  0  0  0  0  0  0
   -5.7491   10.6550  -35.5909 C   0  0  0  0  0  0  0  0  0  0  0  0
   -4.7871   10.8456  -33.2538 C   0  0  0  0  0  0  0  0  0  0  0  0
   -6.0281   10.9685  -34.1406 C   0  0  0  0  0  0  0  0  0  0  0  0
   -6.2617    9.7348  -36.2187 O   0  0  0  0  0  0  0  0  0  0  0  0
   -7.2328   10.1013  -29.0300 O   0  0  0  0  0  0  0  0  0  0  0  0
   -7.0412    9.0472  -31.9290 Br  0  0  0  0  0  0  0  0  0  0  0  0
   -4.0504   13.2914  -29.3921 H   0  0  0  0  0  0  0  0  0  0  0  0
   -3.6119   12.7284  -31.7580 H   0  0  0  0  0  0  0  0  0  0  0  0
   -5.7618   12.0461  -28.1106 H   0  0  0  0  0  0  0  0  0  0  0  0
   -5.0253   11.3291  -36.0805 H   0  0  0  0  0  0  0  0  0  0  0  0
   -3.9963   11.5168  -33.6254 H   0  0  0  0  0  0  0  0  0  0  0  0
   -4.3639    9.8325  -33.3445 H   0  0  0  0  0  0  0  0  0  0  0  0
   -6.4331   11.9858  -34.0962 H   0  0  0  0  0  0  0  0  0  0  0  0
   -6.8123   10.2821  -33.8013 H   0  0  0  0  0  0  0  0  0  0  0  0
   -7.6593    9.4187  -29.5709 H   0  0  0  0  0  0  0  0  0  0  0  0
  1  2  2  0  0  0  0
  1  3  1  0  0  0  0
  2  4  1  0  0  0  0
  3  5  2  0  0  0  0
  4  6  2  0  0  0  0
  4  8  1  0  0  0  0
  5  6  1  0  0  0  0
  5 11  1  0  0  0  0
  6 12  1  0  0  0  0
  7  9  1  0  0  0  0
  7 10  2  0  0  0  0
  8  9  1  0  0  0  0
  1 13  1  0  0  0  0
  2 14  1  0  0  0  0
  3 15  1  0  0  0  0
  7 16  1  0  0  0  0
  8 17  1  0  0  0  0
  8 18  1  0  0  0  0
  9 19  1  0  0  0  0
  9 20  1  0  0  0  0
 11 21  1  0  0  0  0
M  END
> <id>
EN300-1894743

> <smiles>
OC=1C=CC=C(CCC=O)C1Br

> <MDLNUMBER>
MFCD18391528

> <IUPAC Name>
3-(2-bromo-3-hydroxyphenyl)propanal

> <CAS>
1261479-02-0

> <URL>
https://www.enaminestore.com/catalog/EN300-1894743

> <ROCS_ShapeQuery>
_x1604L0AP1_x0771L0AP1

> <ROCS_TanimotoCombo>
0.889 

> <ROCS_ShapeTanimoto>
0.476 

> <ROCS_ColorTanimoto>
0.413 

> <ROCS_RefTversky>
0.429 

> <ROCS_RefColorTversky>
0.429 

> <ROCS_RefTverskyCombo>
0.859 

> <ROCS_FitTversky>
1.297 

> <ROCS_FitColorTversky>
0.915 

> <ROCS_FitTverskyCombo>
2.212 

> <ROCS_ColorScore>
-4.881

> <ROCS_Overlap>
726.272

> <ROCS_Rank>
383                 

$$$$
untitled-dbase-114_6
  -OEChem-06042309053D

 28 29  0     1  0  0  0  0  0999 V2000
   -7.0784    9.9175  -36.0133 C   0  0  0  0  0  0  0  0  0  0  0  0
   -7.9921   10.5439  -35.1657 C   0  0  0  0  0  0  0  0  0  0  0  0
   -6.0669    9.1185  -35.4802 C   0  0  0  0  0  0  0  0  0  0  0  0
   -7.8943   10.3713  -33.7850 C   0  0  0  0  0  0  0  0  0  0  0  0
   -5.9691    8.9460  -34.0995 C   0  0  0  0  0  0  0  0  0  0  0  0
   -4.5605   12.4970  -29.7708 C   0  0  0  0  0  0  0  0  0  0  0  0
   -6.8828    9.5724  -33.2519 C   0  0  0  0  0  0  0  0  0  0  0  0
   -6.0007   10.4839  -31.0576 C   0  0  0  0  0  0  0  0  0  0  0  0
   -6.2702   10.7906  -29.7238 C   0  0  0  0  0  0  0  0  0  0  0  0
   -5.0112   11.1838  -31.7480 C   0  0  0  0  0  0  0  0  0  0  0  0
   -4.2911   12.1903  -31.1046 C   0  0  0  0  0  0  0  0  0  0  0  0
   -5.5500   11.7971  -29.0804 C   0  0  0  0  0  0  0  0  0  0  0  0
   -6.7775    9.3876  -31.7756 C   0  0  2  0  0  0  0  0  0  0  0  0
   -6.2033    8.0702  -31.4453 N   0  0  0  0  0  0  0  0  0  0  0  0
   -7.2414   10.0975  -29.0614 O   0  0  0  0  0  0  0  0  0  0  0  0
   -4.7554   10.8846  -33.0307 F   0  0  0  0  0  0  0  0  0  0  0  0
   -3.0683   13.0579  -31.9512 Cl  0  0  0  0  0  0  0  0  0  0  0  0
   -5.8874   12.2432  -27.2689 Br  0  0  0  0  0  0  0  0  0  0  0  0
   -7.1555   10.0509  -37.0884 H   0  0  0  0  0  0  0  0  0  0  0  0
   -8.7805   11.1651  -35.5807 H   0  0  0  0  0  0  0  0  0  0  0  0
   -5.3560    8.6298  -36.1398 H   0  0  0  0  0  0  0  0  0  0  0  0
   -8.6106   10.8634  -33.1323 H   0  0  0  0  0  0  0  0  0  0  0  0
   -5.1777    8.3218  -33.6931 H   0  0  0  0  0  0  0  0  0  0  0  0
   -3.9968   13.2828  -29.2723 H   0  0  0  0  0  0  0  0  0  0  0  0
   -7.7845    9.3529  -31.3211 H   0  0  0  0  0  0  0  0  0  0  0  0
   -6.1832    7.9942  -30.4602 H   0  0  0  0  0  0  0  0  0  0  0  0
   -6.7879    7.3831  -31.8486 H   0  0  0  0  0  0  0  0  0  0  0  0
   -7.3158   10.4179  -28.1497 H   0  0  0  0  0  0  0  0  0  0  0  0
  1  2  2  0  0  0  0
  1  3  1  0  0  0  0
  2  4  1  0  0  0  0
  3  5  2  0  0  0  0
  4  7  2  0  0  0  0
  5  7  1  0  0  0  0
  6 11  1  0  0  0  0
  6 12  2  0  0  0  0
  7 13  1  0  0  0  0
  8  9  2  0  0  0  0
  8 10  1  0  0  0  0
  8 13  1  0  0  0  0
  9 12  1  0  0  0  0
  9 15  1  0  0  0  0
 10 11  2  0  0  0  0
 10 16  1  0  0  0  0
 11 17  1  0  0  0  0
 12 18  1  0  0  0  0
 13 14  1  0  0  0  0
  1 19  1  0  0  0  0
  2 20  1  0  0  0  0
  3 21  1  0  0  0  0
  4 22  1  0  0  0  0
  5 23  1  0  0  0  0
  6 24  1  0  0  0  0
 13 25  1  0  0  0  0
 14 26  1  0  0  0  0
 14 27  1  0  0  0  0
 15 28  1  0  0  0  0
M  END
> <id>
EN300-1277174

> <smiles>
NC(C=1C=CC=CC1)C=2C(O)=C(Br)C=C(Cl)C2F

> <IUPAC Name>
2-[amino(phenyl)methyl]-6-bromo-4-chloro-3-fluorophenol

> <CAS>
2172194-54-4

> <URL>
https://www.enaminestore.com/catalog/EN300-1277174

> <ROCS_ShapeQuery>
_x1604L0AP1_x0771L0AP1

> <ROCS_TanimotoCombo>
0.889 

> <ROCS_ShapeTanimoto>
0.626 

> <ROCS_ColorTanimoto>
0.263 

> <ROCS_RefTversky>
0.574 

> <ROCS_RefColorTversky>
0.340 

> <ROCS_RefTverskyCombo>
0.913 

> <ROCS_FitTversky>
1.170 

> <ROCS_FitColorTversky>
0.538 

> <ROCS_FitTverskyCombo>
1.708 

> <ROCS_ColorScore>
-3.896

> <ROCS_Overlap>
979.142

> <ROCS_Rank>
384                 

$$$$
untitled-dbase-1020_69
  -OEChem-06042309053D

 27 27  0     0  0  0  0  0  0999 V2000
   -4.3340   12.6864  -30.6193 C   0  0  0  0  0  0  0  0  0  0  0  0
   -4.8233   11.6557  -31.4217 C   0  0  0  0  0  0  0  0  0  0  0  0
   -4.8063   12.8396  -29.3157 C   0  0  0  0  0  0  0  0  0  0  0  0
   -5.7849   10.7783  -30.9207 C   0  0  0  0  0  0  0  0  0  0  0  0
   -6.2573   10.9315  -29.6172 C   0  0  0  0  0  0  0  0  0  0  0  0
   -5.7680   11.9622  -28.8147 C   0  0  0  0  0  0  0  0  0  0  0  0
   -6.3007    9.6723  -31.8054 C   0  0  0  0  0  0  0  0  0  0  0  0
   -5.8925    9.8788  -33.2662 C   0  0  0  0  0  0  0  0  0  0  0  0
   -6.4507    8.7663  -34.1586 C   0  0  0  0  0  0  0  0  0  0  0  0
   -5.9453    7.3841  -33.7583 C   0  0  0  0  0  0  0  0  0  0  0  0
   -6.4886    6.3415  -34.5842 N   0  0  0  0  0  0  0  0  0  0  0  0
   -7.1994   10.0661  -29.1419 O   0  0  0  0  0  0  0  0  0  0  0  0
   -6.3837   12.2032  -27.0380 Br  0  0  0  0  0  0  0  0  0  0  0  0
   -3.5849   13.3693  -31.0091 H   0  0  0  0  0  0  0  0  0  0  0  0
   -4.4480   11.5421  -32.4353 H   0  0  0  0  0  0  0  0  0  0  0  0
   -4.4129   13.6484  -28.7052 H   0  0  0  0  0  0  0  0  0  0  0  0
   -7.3937    9.6196  -31.7221 H   0  0  0  0  0  0  0  0  0  0  0  0
   -5.9243    8.7084  -31.4398 H   0  0  0  0  0  0  0  0  0  0  0  0
   -4.7984    9.8996  -33.3476 H   0  0  0  0  0  0  0  0  0  0  0  0
   -6.2539   10.8540  -33.6150 H   0  0  0  0  0  0  0  0  0  0  0  0
   -7.5454    8.7693  -34.0933 H   0  0  0  0  0  0  0  0  0  0  0  0
   -6.1884    8.9681  -35.2045 H   0  0  0  0  0  0  0  0  0  0  0  0
   -6.2410    7.1619  -32.7281 H   0  0  0  0  0  0  0  0  0  0  0  0
   -4.8540    7.3267  -33.8193 H   0  0  0  0  0  0  0  0  0  0  0  0
   -6.1203    5.4584  -34.2931 H   0  0  0  0  0  0  0  0  0  0  0  0
   -7.4849    6.3318  -34.4971 H   0  0  0  0  0  0  0  0  0  0  0  0
   -7.4298   10.2939  -28.2284 H   0  0  0  0  0  0  0  0  0  0  0  0
  1  2  1  0  0  0  0
  1  3  2  0  0  0  0
  2  4  2  0  0  0  0
  3  6  1  0  0  0  0
  4  5  1  0  0  0  0
  4  7  1  0  0  0  0
  5  6  2  0  0  0  0
  5 12  1  0  0  0  0
  6 13  1  0  0  0  0
  7  8  1  0  0  0  0
  8  9  1  0  0  0  0
  9 10  1  0  0  0  0
 10 11  1  0  0  0  0
  1 14  1  0  0  0  0
  2 15  1  0  0  0  0
  3 16  1  0  0  0  0
  7 17  1  0  0  0  0
  7 18  1  0  0  0  0
  8 19  1  0  0  0  0
  8 20  1  0  0  0  0
  9 21  1  0  0  0  0
  9 22  1  0  0  0  0
 10 23  1  0  0  0  0
 10 24  1  0  0  0  0
 11 25  1  0  0  0  0
 11 26  1  0  0  0  0
 12 27  1  0  0  0  0
M  END
> <id>
EN300-1923459

> <smiles>
NCCCCC=1C=CC=C(Br)C1O

> <IUPAC Name>
2-(4-aminobutyl)-6-bromophenol

> <CAS>
1897086-11-1

> <URL>
https://www.enaminestore.com/catalog/EN300-1923459

> <ROCS_ShapeQuery>
_x1604L0AP1_x0771L0AP1

> <ROCS_TanimotoCombo>
0.889 

> <ROCS_ShapeTanimoto>
0.535 

> <ROCS_ColorTanimoto>
0.354 

> <ROCS_RefTversky>
0.470 

> <ROCS_RefColorTversky>
0.405 

> <ROCS_RefTverskyCombo>
0.875 

> <ROCS_FitTversky>
1.349 

> <ROCS_FitColorTversky>
0.736 

> <ROCS_FitTverskyCombo>
2.085 

> <ROCS_ColorScore>
-4.626

> <ROCS_Overlap>
796.264

> <ROCS_Rank>
385                 

$$$$
untitled-dbase-49_0
  -OEChem-06042309053D

 16 16  0     0  0  0  0  0  0999 V2000
   -4.5893   12.4845  -29.8653 C   0  0  0  0  0  0  0  0  0  0  0  0
   -4.3451   12.1576  -31.1991 C   0  0  0  0  0  0  0  0  0  0  0  0
   -5.5615   11.7914  -29.1440 C   0  0  0  0  0  0  0  0  0  0  0  0
   -6.2894   10.7714  -29.7566 C   0  0  0  0  0  0  0  0  0  0  0  0
   -5.0731   11.1376  -31.8117 C   0  0  0  0  0  0  0  0  0  0  0  0
   -6.0453   10.4445  -31.0904 C   0  0  0  0  0  0  0  0  0  0  0  0
   -5.8054   12.1579  -27.7171 C   0  0  0  0  0  0  0  0  0  0  0  0
   -7.2368   10.1032  -29.0366 O   0  0  0  0  0  0  0  0  0  0  0  0
   -4.8230   10.8378  -33.0945 F   0  0  0  0  0  0  0  0  0  0  0  0
   -7.0195    9.0613  -31.9483 Br  0  0  0  0  0  0  0  0  0  0  0  0
   -4.0171   13.2817  -29.3978 H   0  0  0  0  0  0  0  0  0  0  0  0
   -3.5884   12.6973  -31.7610 H   0  0  0  0  0  0  0  0  0  0  0  0
   -6.5754   12.9354  -27.6507 H   0  0  0  0  0  0  0  0  0  0  0  0
   -6.1354   11.2885  -27.1351 H   0  0  0  0  0  0  0  0  0  0  0  0
   -4.8898   12.5313  -27.2415 H   0  0  0  0  0  0  0  0  0  0  0  0
   -7.6584    9.4269  -29.5884 H   0  0  0  0  0  0  0  0  0  0  0  0
  1  2  1  0  0  0  0
  1  3  2  0  0  0  0
  2  5  2  0  0  0  0
  3  4  1  0  0  0  0
  3  7  1  0  0  0  0
  4  6  2  0  0  0  0
  4  8  1  0  0  0  0
  5  6  1  0  0  0  0
  5  9  1  0  0  0  0
  6 10  1  0  0  0  0
  1 11  1  0  0  0  0
  2 12  1  0  0  0  0
  7 13  1  0  0  0  0
  7 14  1  0  0  0  0
  7 15  1  0  0  0  0
  8 16  1  0  0  0  0
M  END
> <id>
EN300-198658

> <smiles>
CC=1C=CC(F)=C(Br)C1O

> <MDLNUMBER>
MFCD22414712

> <IUPAC Name>
2-bromo-3-fluoro-6-methylphenol

> <CAS>
1522001-79-1

> <URL>
https://www.enaminestore.com/catalog/EN300-198658

> <ROCS_ShapeQuery>
_x1604L0AP1_x0771L0AP1

> <ROCS_TanimotoCombo>
0.889 

> <ROCS_ShapeTanimoto>
0.438 

> <ROCS_ColorTanimoto>
0.451 

> <ROCS_RefTversky>
0.393 

> <ROCS_RefColorTversky>
0.431 

> <ROCS_RefTverskyCombo>
0.824 

> <ROCS_FitTversky>
1.356 

> <ROCS_FitColorTversky>
1.113 

> <ROCS_FitTverskyCombo>
2.469 

> <ROCS_ColorScore>
-4.882

> <ROCS_Overlap>
662.846

> <ROCS_Rank>
386                 

$$$$
untitled-dbase-2194_3277
  -OEChem-06042309053D

 27 27  0     0  0  0  0  0  0999 V2000
   -5.1332   11.3023  -31.7874 C   0  0  0  0  0  0  0  0  0  0  0  0
   -4.4550   12.3727  -29.7304 C   0  0  0  0  0  0  0  0  0  0  0  0
   -4.2998   12.1880  -31.1043 C   0  0  0  0  0  0  0  0  0  0  0  0
   -6.1218   10.6014  -31.0968 C   0  0  0  0  0  0  0  0  0  0  0  0
   -6.2770   10.7861  -29.7230 C   0  0  0  0  0  0  0  0  0  0  0  0
   -5.4437   11.6717  -29.0398 C   0  0  0  0  0  0  0  0  0  0  0  0
   -3.2672   12.9166  -31.8243 C   0  0  0  0  0  0  0  0  0  0  0  0
   -6.6503    9.9527  -34.1466 C   0  0  0  0  0  0  0  0  0  0  0  0
   -2.3525   13.8899  -31.0691 C   0  0  0  0  0  0  0  0  0  0  0  0
   -6.3715    9.1020  -32.9258 C   0  0  0  0  0  0  0  0  0  0  0  0
   -3.1184   14.9440  -30.4473 N   0  0  0  0  0  0  0  0  0  0  0  0
   -3.1143   12.7581  -33.0530 O   0  0  0  0  0  0  0  0  0  0  0  0
   -7.2492   10.0907  -29.0649 O   0  0  0  0  0  0  0  0  0  0  0  0
   -6.9280    9.7399  -31.7781 O   0  0  0  0  0  0  0  0  0  0  0  0
   -5.6225   11.9466  -27.1725 Br  0  0  0  0  0  0  0  0  0  0  0  0
   -5.0149   11.1548  -32.8586 H   0  0  0  0  0  0  0  0  0  0  0  0
   -3.8004   13.0643  -29.2043 H   0  0  0  0  0  0  0  0  0  0  0  0
   -7.7262   10.0725  -34.3012 H   0  0  0  0  0  0  0  0  0  0  0  0
   -6.1962   10.9432  -34.0387 H   0  0  0  0  0  0  0  0  0  0  0  0
   -6.2132    9.4980  -35.0417 H   0  0  0  0  0  0  0  0  0  0  0  0
   -1.6470   14.3374  -31.7746 H   0  0  0  0  0  0  0  0  0  0  0  0
   -1.8142   13.3386  -30.2928 H   0  0  0  0  0  0  0  0  0  0  0  0
   -5.2938    8.9862  -32.7768 H   0  0  0  0  0  0  0  0  0  0  0  0
   -6.8266    8.1131  -33.0349 H   0  0  0  0  0  0  0  0  0  0  0  0
   -2.4977   15.5593  -29.9657 H   0  0  0  0  0  0  0  0  0  0  0  0
   -3.6141   15.4471  -31.1521 H   0  0  0  0  0  0  0  0  0  0  0  0
   -7.7320    9.5244  -29.6861 H   0  0  0  0  0  0  0  0  0  0  0  0
  1  3  1  0  0  0  0
  1  4  2  0  0  0  0
  2  3  2  0  0  0  0
  2  6  1  0  0  0  0
  3  7  1  0  0  0  0
  4  5  1  0  0  0  0
  4 14  1  0  0  0  0
  5  6  2  0  0  0  0
  5 13  1  0  0  0  0
  6 15  1  0  0  0  0
  7  9  1  0  0  0  0
  7 12  2  0  0  0  0
  8 10  1  0  0  0  0
  9 11  1  0  0  0  0
 10 14  1  0  0  0  0
  1 16  1  0  0  0  0
  2 17  1  0  0  0  0
  8 18  1  0  0  0  0
  8 19  1  0  0  0  0
  8 20  1  0  0  0  0
  9 21  1  0  0  0  0
  9 22  1  0  0  0  0
 10 23  1  0  0  0  0
 10 24  1  0  0  0  0
 11 25  1  0  0  0  0
 11 26  1  0  0  0  0
 13 27  1  0  0  0  0
M  END
> <id>
EN300-1920214

> <smiles>
CCOC=1C=C(C=C(Br)C1O)C(=O)CN

> <IUPAC Name>
2-amino-1-(3-bromo-5-ethoxy-4-hydroxyphenyl)ethan-1-one

> <CAS>
2228484-51-1

> <URL>
https://www.enaminestore.com/catalog/EN300-1920214

> <ROCS_ShapeQuery>
_x1604L0AP1_x0771L0AP1

> <ROCS_TanimotoCombo>
0.889 

> <ROCS_ShapeTanimoto>
0.643 

> <ROCS_ColorTanimoto>
0.246 

> <ROCS_RefTversky>
0.550 

> <ROCS_RefColorTversky>
0.337 

> <ROCS_RefTverskyCombo>
0.888 

> <ROCS_FitTversky>
1.354 

> <ROCS_FitColorTversky>
0.475 

> <ROCS_FitTverskyCombo>
1.829 

> <ROCS_ColorScore>
-3.886

> <ROCS_Overlap>
935.121

> <ROCS_Rank>
387                 

$$$$
untitled-dbase-578_160
  -OEChem-06042309053D

 30 30  0     1  0  0  0  0  0999 V2000
   -6.3702   10.1554  -31.0083 C   0  0  0  0  0  0  0  0  0  0  0  0
   -4.5683   11.6031  -31.7114 C   0  0  0  0  0  0  0  0  0  0  0  0
   -5.4904   10.5962  -31.9969 C   0  0  0  0  0  0  0  0  0  0  0  0
   -6.3279   10.7217  -29.7342 C   0  0  0  0  0  0  0  0  0  0  0  0
   -5.4058   11.7286  -29.4487 C   0  0  0  0  0  0  0  0  0  0  0  0
   -4.5260   12.1693  -30.4373 C   0  0  0  0  0  0  0  0  0  0  0  0
   -6.9370    8.5411  -35.7225 C   0  0  0  0  0  0  0  0  0  0  0  0
   -8.1026    9.2481  -29.1556 C   0  0  0  0  0  0  0  0  0  0  0  0
   -5.5359    9.9831  -33.3738 C   0  0  0  0  0  0  0  0  0  0  0  0
   -5.9951    8.5178  -33.3845 C   0  0  0  0  0  0  0  0  0  0  0  0
   -5.9602    7.8623  -34.7707 C   0  0  1  0  0  0  0  0  0  0  0  0
   -5.3792   12.2693  -28.1962 O   0  0  0  0  0  0  0  0  0  0  0  0
   -6.3160    6.4883  -34.6490 O   0  0  0  0  0  0  0  0  0  0  0  0
   -7.1932   10.2802  -28.7790 O   0  0  0  0  0  0  0  0  0  0  0  0
   -3.2590   13.5354  -30.0870 Br  0  0  0  0  0  0  0  0  0  0  0  0
   -7.0897    9.3704  -31.2283 H   0  0  0  0  0  0  0  0  0  0  0  0
   -3.8861   11.9398  -32.4889 H   0  0  0  0  0  0  0  0  0  0  0  0
   -7.9586    8.5052  -35.3283 H   0  0  0  0  0  0  0  0  0  0  0  0
   -6.6624    9.5861  -35.8954 H   0  0  0  0  0  0  0  0  0  0  0  0
   -6.9544    8.0224  -36.6871 H   0  0  0  0  0  0  0  0  0  0  0  0
   -8.7348    8.9893  -28.3026 H   0  0  0  0  0  0  0  0  0  0  0  0
   -7.5420    8.3703  -29.4867 H   0  0  0  0  0  0  0  0  0  0  0  0
   -8.7294    9.6081  -29.9748 H   0  0  0  0  0  0  0  0  0  0  0  0
   -6.1736   10.5833  -34.0346 H   0  0  0  0  0  0  0  0  0  0  0  0
   -4.5287   10.0431  -33.8068 H   0  0  0  0  0  0  0  0  0  0  0  0
   -7.0054    8.4374  -32.9651 H   0  0  0  0  0  0  0  0  0  0  0  0
   -5.3245    7.9640  -32.7143 H   0  0  0  0  0  0  0  0  0  0  0  0
   -4.9512    7.9156  -35.1933 H   0  0  0  0  0  0  0  0  0  0  0  0
   -6.0517   11.8500  -27.6382 H   0  0  0  0  0  0  0  0  0  0  0  0
   -5.6761    6.0896  -34.0387 H   0  0  0  0  0  0  0  0  0  0  0  0
  1  3  1  0  0  0  0
  1  4  2  0  0  0  0
  2  3  2  0  0  0  0
  2  6  1  0  0  0  0
  3  9  1  0  0  0  0
  4  5  1  0  0  0  0
  4 14  1  0  0  0  0
  5  6  2  0  0  0  0
  5 12  1  0  0  0  0
  6 15  1  0  0  0  0
  7 11  1  6  0  0  0
  8 14  1  0  0  0  0
  9 10  1  0  0  0  0
 10 11  1  0  0  0  0
 11 13  1  0  0  0  0
  1 16  1  0  0  0  0
  2 17  1  0  0  0  0
  7 18  1  0  0  0  0
  7 19  1  0  0  0  0
  7 20  1  0  0  0  0
  8 21  1  0  0  0  0
  8 22  1  0  0  0  0
  8 23  1  0  0  0  0
  9 24  1  0  0  0  0
  9 25  1  0  0  0  0
 10 26  1  0  0  0  0
 10 27  1  0  0  0  0
 11 28  1  0  0  0  0
 12 29  1  0  0  0  0
 13 30  1  0  0  0  0
M  END
> <id>
EN300-1927033

> <smiles>
COC=1C=C(CC[C@H](C)O)C=C(Br)C1O

> <IUPAC Name>
2-bromo-4-[(3S)-3-hydroxybutyl]-6-methoxyphenol

> <CAS>
2227800-15-7

> <URL>
https://www.enaminestore.com/catalog/EN300-1927033

> <ROCS_ShapeQuery>
_x1604L0AP1_x0771L0AP1

> <ROCS_TanimotoCombo>
0.889 

> <ROCS_ShapeTanimoto>
0.571 

> <ROCS_ColorTanimoto>
0.318 

> <ROCS_RefTversky>
0.509 

> <ROCS_RefColorTversky>
0.393 

> <ROCS_RefTverskyCombo>
0.902 

> <ROCS_FitTversky>
1.270 

> <ROCS_FitColorTversky>
0.623 

> <ROCS_FitTverskyCombo>
1.893 

> <ROCS_ColorScore>
-4.509

> <ROCS_Overlap>
864.962

> <ROCS_Rank>
388                 

$$$$
untitled-dbase-932_160
  -OEChem-06042309053D

 30 30  0     1  0  0  0  0  0999 V2000
   -6.3702   10.1554  -31.0083 C   0  0  0  0  0  0  0  0  0  0  0  0
   -4.5683   11.6031  -31.7114 C   0  0  0  0  0  0  0  0  0  0  0  0
   -5.4904   10.5962  -31.9969 C   0  0  0  0  0  0  0  0  0  0  0  0
   -6.3279   10.7217  -29.7342 C   0  0  0  0  0  0  0  0  0  0  0  0
   -5.4058   11.7286  -29.4487 C   0  0  0  0  0  0  0  0  0  0  0  0
   -4.5260   12.1693  -30.4373 C   0  0  0  0  0  0  0  0  0  0  0  0
   -6.9370    8.5411  -35.7225 C   0  0  0  0  0  0  0  0  0  0  0  0
   -8.1026    9.2481  -29.1556 C   0  0  0  0  0  0  0  0  0  0  0  0
   -5.5359    9.9831  -33.3738 C   0  0  0  0  0  0  0  0  0  0  0  0
   -5.9951    8.5178  -33.3845 C   0  0  0  0  0  0  0  0  0  0  0  0
   -5.9602    7.8623  -34.7707 C   0  0  1  0  0  0  0  0  0  0  0  0
   -5.3792   12.2693  -28.1962 O   0  0  0  0  0  0  0  0  0  0  0  0
   -6.3160    6.4883  -34.6490 O   0  0  0  0  0  0  0  0  0  0  0  0
   -7.1932   10.2802  -28.7790 O   0  0  0  0  0  0  0  0  0  0  0  0
   -3.2590   13.5354  -30.0870 Br  0  0  0  0  0  0  0  0  0  0  0  0
   -7.0897    9.3704  -31.2283 H   0  0  0  0  0  0  0  0  0  0  0  0
   -3.8861   11.9398  -32.4889 H   0  0  0  0  0  0  0  0  0  0  0  0
   -7.9586    8.5052  -35.3283 H   0  0  0  0  0  0  0  0  0  0  0  0
   -6.6624    9.5861  -35.8954 H   0  0  0  0  0  0  0  0  0  0  0  0
   -6.9544    8.0224  -36.6871 H   0  0  0  0  0  0  0  0  0  0  0  0
   -8.7348    8.9893  -28.3026 H   0  0  0  0  0  0  0  0  0  0  0  0
   -7.5420    8.3703  -29.4867 H   0  0  0  0  0  0  0  0  0  0  0  0
   -8.7294    9.6081  -29.9748 H   0  0  0  0  0  0  0  0  0  0  0  0
   -6.1736   10.5833  -34.0346 H   0  0  0  0  0  0  0  0  0  0  0  0
   -4.5287   10.0431  -33.8068 H   0  0  0  0  0  0  0  0  0  0  0  0
   -7.0054    8.4374  -32.9651 H   0  0  0  0  0  0  0  0  0  0  0  0
   -5.3245    7.9640  -32.7143 H   0  0  0  0  0  0  0  0  0  0  0  0
   -4.9512    7.9156  -35.1933 H   0  0  0  0  0  0  0  0  0  0  0  0
   -6.0517   11.8500  -27.6382 H   0  0  0  0  0  0  0  0  0  0  0  0
   -5.6761    6.0896  -34.0387 H   0  0  0  0  0  0  0  0  0  0  0  0
  1  3  1  0  0  0  0
  1  4  2  0  0  0  0
  2  3  2  0  0  0  0
  2  6  1  0  0  0  0
  3  9  1  0  0  0  0
  4  5  1  0  0  0  0
  4 14  1  0  0  0  0
  5  6  2  0  0  0  0
  5 12  1  0  0  0  0
  6 15  1  0  0  0  0
  7 11  1  0  0  0  0
  8 14  1  0  0  0  0
  9 10  1  0  0  0  0
 10 11  1  0  0  0  0
 11 13  1  0  0  0  0
  1 16  1  0  0  0  0
  2 17  1  0  0  0  0
  7 18  1  0  0  0  0
  7 19  1  0  0  0  0
  7 20  1  0  0  0  0
  8 21  1  0  0  0  0
  8 22  1  0  0  0  0
  8 23  1  0  0  0  0
  9 24  1  0  0  0  0
  9 25  1  0  0  0  0
 10 26  1  0  0  0  0
 10 27  1  0  0  0  0
 11 28  1  0  0  0  0
 12 29  1  0  0  0  0
 13 30  1  0  0  0  0
M  END
> <id>
EN300-1927030

> <smiles>
COC=1C=C(CCC(C)O)C=C(Br)C1O

> <IUPAC Name>
2-bromo-4-(3-hydroxybutyl)-6-methoxyphenol

> <CAS>
2229625-03-8

> <URL>
https://www.enaminestore.com/catalog/EN300-1927030

> <ROCS_ShapeQuery>
_x1604L0AP1_x0771L0AP1

> <ROCS_TanimotoCombo>
0.889 

> <ROCS_ShapeTanimoto>
0.571 

> <ROCS_ColorTanimoto>
0.318 

> <ROCS_RefTversky>
0.509 

> <ROCS_RefColorTversky>
0.393 

> <ROCS_RefTverskyCombo>
0.902 

> <ROCS_FitTversky>
1.270 

> <ROCS_FitColorTversky>
0.623 

> <ROCS_FitTverskyCombo>
1.893 

> <ROCS_ColorScore>
-4.509

> <ROCS_Overlap>
864.962

> <ROCS_Rank>
389                 

$$$$
untitled-dbase-199_37
  -OEChem-06042309053D

 24 24  0     0  0  0  0  0  0999 V2000
   -4.5648   12.5020  -29.7909 C   0  0  0  0  0  0  0  0  0  0  0  0
   -6.0251   10.4920  -31.0597 C   0  0  0  0  0  0  0  0  0  0  0  0
   -6.2757   10.7976  -29.7219 C   0  0  0  0  0  0  0  0  0  0  0  0
   -5.0444   11.1915  -31.7630 C   0  0  0  0  0  0  0  0  0  0  0  0
   -4.3142   12.1964  -31.1285 C   0  0  0  0  0  0  0  0  0  0  0  0
   -5.5455   11.8026  -29.0875 C   0  0  0  0  0  0  0  0  0  0  0  0
   -6.7846    9.4315  -31.7476 C   0  0  0  0  0  0  0  0  0  0  0  0
   -7.3807    9.9653  -34.1200 C   0  0  0  0  0  0  0  0  0  0  0  0
   -6.6815    7.6349  -33.5096 C   0  0  0  0  0  0  0  0  0  0  0  0
   -6.4804    9.1242  -33.2197 C   0  0  0  0  0  0  0  0  0  0  0  0
   -7.6686    8.7891  -31.1741 O   0  0  0  0  0  0  0  0  0  0  0  0
   -7.2366   10.1050  -29.0433 O   0  0  0  0  0  0  0  0  0  0  0  0
   -4.8067   10.8960  -33.0502 F   0  0  0  0  0  0  0  0  0  0  0  0
   -3.1024   13.0632  -31.9905 Cl  0  0  0  0  0  0  0  0  0  0  0  0
   -5.8562   12.2470  -27.2707 Br  0  0  0  0  0  0  0  0  0  0  0  0
   -3.9940   13.2871  -29.2993 H   0  0  0  0  0  0  0  0  0  0  0  0
   -8.4392    9.7622  -33.9220 H   0  0  0  0  0  0  0  0  0  0  0  0
   -7.1849    9.7510  -35.1758 H   0  0  0  0  0  0  0  0  0  0  0  0
   -7.2206   11.0360  -33.9588 H   0  0  0  0  0  0  0  0  0  0  0  0
   -7.7190    7.3403  -33.3202 H   0  0  0  0  0  0  0  0  0  0  0  0
   -6.0342    7.0098  -32.8845 H   0  0  0  0  0  0  0  0  0  0  0  0
   -6.4504    7.4090  -34.5564 H   0  0  0  0  0  0  0  0  0  0  0  0
   -5.4281    9.3396  -33.4308 H   0  0  0  0  0  0  0  0  0  0  0  0
   -7.6448    9.4463  -29.6252 H   0  0  0  0  0  0  0  0  0  0  0  0
  1  5  1  0  0  0  0
  1  6  2  0  0  0  0
  2  3  2  0  0  0  0
  2  4  1  0  0  0  0
  2  7  1  0  0  0  0
  3  6  1  0  0  0  0
  3 12  1  0  0  0  0
  4  5  2  0  0  0  0
  4 13  1  0  0  0  0
  5 14  1  0  0  0  0
  6 15  1  0  0  0  0
  7 10  1  0  0  0  0
  7 11  2  0  0  0  0
  8 10  1  0  0  0  0
  9 10  1  0  0  0  0
  1 16  1  0  0  0  0
  8 17  1  0  0  0  0
  8 18  1  0  0  0  0
  8 19  1  0  0  0  0
  9 20  1  0  0  0  0
  9 21  1  0  0  0  0
  9 22  1  0  0  0  0
 10 23  1  0  0  0  0
 12 24  1  0  0  0  0
M  END
> <id>
EN300-1276562

> <smiles>
CC(C)C(=O)C=1C(O)=C(Br)C=C(Cl)C1F

> <IUPAC Name>
1-(3-bromo-5-chloro-6-fluoro-2-hydroxyphenyl)-2-methylpropan-1-one

> <CAS>
1702003-07-3

> <URL>
https://www.enaminestore.com/catalog/EN300-1276562

> <ROCS_ShapeQuery>
_x1604L0AP1_x0771L0AP1

> <ROCS_TanimotoCombo>
0.888 

> <ROCS_ShapeTanimoto>
0.602 

> <ROCS_ColorTanimoto>
0.286 

> <ROCS_RefTversky>
0.528 

> <ROCS_RefColorTversky>
0.345 

> <ROCS_RefTverskyCombo>
0.873 

> <ROCS_FitTversky>
1.303 

> <ROCS_FitColorTversky>
0.626 

> <ROCS_FitTverskyCombo>
1.929 

> <ROCS_ColorScore>
-3.937

> <ROCS_Overlap>
897.777

> <ROCS_Rank>
390                 

$$$$
untitled-dbase-885_69
  -OEChem-06042309053D

 22 22  0     0  0  0  0  0  0999 V2000
   -5.1150   11.2929  -31.7789 C   0  0  0  0  0  0  0  0  0  0  0  0
   -4.4793   12.3993  -29.7274 C   0  0  0  0  0  0  0  0  0  0  0  0
   -4.3031   12.1989  -31.0965 C   0  0  0  0  0  0  0  0  0  0  0  0
   -6.1031   10.5873  -31.0922 C   0  0  0  0  0  0  0  0  0  0  0  0
   -6.2793   10.7878  -29.7231 C   0  0  0  0  0  0  0  0  0  0  0  0
   -5.4674   11.6938  -29.0406 C   0  0  0  0  0  0  0  0  0  0  0  0
   -3.2710   12.9323  -31.8124 C   0  0  0  0  0  0  0  0  0  0  0  0
   -6.6404    9.5622  -33.1697 C   0  0  0  0  0  0  0  0  0  0  0  0
   -2.8559   14.3234  -31.3520 C   0  0  0  0  0  0  0  0  0  0  0  0
   -2.7215   12.4519  -32.8223 O   0  0  0  0  0  0  0  0  0  0  0  0
   -7.2505   10.0876  -29.0688 O   0  0  0  0  0  0  0  0  0  0  0  0
   -6.8881    9.7059  -31.7726 O   0  0  0  0  0  0  0  0  0  0  0  0
   -1.8357   14.2831  -30.4524 F   0  0  0  0  0  0  0  0  0  0  0  0
   -3.8790   14.9657  -30.7305 F   0  0  0  0  0  0  0  0  0  0  0  0
   -5.6750   11.9904  -27.1797 Br  0  0  0  0  0  0  0  0  0  0  0  0
   -4.9803   11.1331  -32.8463 H   0  0  0  0  0  0  0  0  0  0  0  0
   -3.8414   13.1068  -29.2019 H   0  0  0  0  0  0  0  0  0  0  0  0
   -7.3344    8.8304  -33.5902 H   0  0  0  0  0  0  0  0  0  0  0  0
   -5.6096    9.2345  -33.3261 H   0  0  0  0  0  0  0  0  0  0  0  0
   -6.7919   10.5275  -33.6587 H   0  0  0  0  0  0  0  0  0  0  0  0
   -2.5226   14.9168  -32.2079 H   0  0  0  0  0  0  0  0  0  0  0  0
   -7.7171    9.5066  -29.6888 H   0  0  0  0  0  0  0  0  0  0  0  0
  1  3  1  0  0  0  0
  1  4  2  0  0  0  0
  2  3  2  0  0  0  0
  2  6  1  0  0  0  0
  3  7  1  0  0  0  0
  4  5  1  0  0  0  0
  4 12  1  0  0  0  0
  5  6  2  0  0  0  0
  5 11  1  0  0  0  0
  6 15  1  0  0  0  0
  7  9  1  0  0  0  0
  7 10  2  0  0  0  0
  8 12  1  0  0  0  0
  9 13  1  0  0  0  0
  9 14  1  0  0  0  0
  1 16  1  0  0  0  0
  2 17  1  0  0  0  0
  8 18  1  0  0  0  0
  8 19  1  0  0  0  0
  8 20  1  0  0  0  0
  9 21  1  0  0  0  0
 11 22  1  0  0  0  0
M  END
> <id>
EN300-1958945

> <smiles>
COC=1C=C(C=C(Br)C1O)C(=O)C(F)F

> <IUPAC Name>
1-(3-bromo-4-hydroxy-5-methoxyphenyl)-2,2-difluoroethan-1-one

> <CAS>
2229606-69-1

> <URL>
https://www.enaminestore.com/catalog/EN300-1958945

> <ROCS_ShapeQuery>
_x1604L0AP1_x0771L0AP1

> <ROCS_TanimotoCombo>
0.888 

> <ROCS_ShapeTanimoto>
0.607 

> <ROCS_ColorTanimoto>
0.281 

> <ROCS_RefTversky>
0.534 

> <ROCS_RefColorTversky>
0.340 

> <ROCS_RefTverskyCombo>
0.875 

> <ROCS_FitTversky>
1.290 

> <ROCS_FitColorTversky>
0.618 

> <ROCS_FitTverskyCombo>
1.908 

> <ROCS_ColorScore>
-3.885

> <ROCS_Overlap>
908.304

> <ROCS_Rank>
391                 

$$$$
untitled-dbase-718_119
  -OEChem-06042309053D

 22 23  0     0  0  0  0  0  0999 V2000
   -4.3445   13.0776  -29.7596 C   0  0  0  0  0  0  0  0  0  0  0  0
   -4.8050   12.3596  -30.8633 C   0  0  0  0  0  0  0  0  0  0  0  0
   -4.8298   12.7846  -28.4851 C   0  0  0  0  0  0  0  0  0  0  0  0
   -5.6538    9.4463  -32.3807 C   0  0  0  0  0  0  0  0  0  0  0  0
   -5.7508   11.3487  -30.6925 C   0  0  0  0  0  0  0  0  0  0  0  0
   -6.2361   11.0557  -29.4180 C   0  0  0  0  0  0  0  0  0  0  0  0
   -5.7756   11.7737  -28.3143 C   0  0  0  0  0  0  0  0  0  0  0  0
   -6.2092   10.6216  -31.8459 C   0  0  0  0  0  0  0  0  0  0  0  0
   -6.4514    9.1707  -33.4595 C   0  0  0  0  0  0  0  0  0  0  0  0
   -6.4255    8.1223  -34.4196 C   0  0  0  0  0  0  0  0  0  0  0  0
   -7.2702   11.0427  -32.5401 N   0  0  0  0  0  0  0  0  0  0  0  0
   -6.5314    6.8937  -34.1893 O   0  0  0  0  0  0  0  0  0  0  0  0
   -7.4198   10.1163  -33.5652 O   0  0  0  0  0  0  0  0  0  0  0  0
   -7.1619   10.0646  -29.2545 O   0  0  0  0  0  0  0  0  0  0  0  0
   -6.2676    8.5601  -35.7124 O   0  0  0  0  0  0  0  0  0  0  0  0
   -6.4070   11.4049  -26.5648 Br  0  0  0  0  0  0  0  0  0  0  0  0
   -3.6084   13.8651  -29.8921 H   0  0  0  0  0  0  0  0  0  0  0  0
   -4.4148   12.6008  -31.8495 H   0  0  0  0  0  0  0  0  0  0  0  0
   -4.4590   13.3543  -27.6367 H   0  0  0  0  0  0  0  0  0  0  0  0
   -4.7999    8.8803  -32.0359 H   0  0  0  0  0  0  0  0  0  0  0  0
   -7.3978    9.9826  -28.3184 H   0  0  0  0  0  0  0  0  0  0  0  0
   -6.1928    9.5340  -35.8036 H   0  0  0  0  0  0  0  0  0  0  0  0
  1  2  1  0  0  0  0
  1  3  2  0  0  0  0
  2  5  2  0  0  0  0
  3  7  1  0  0  0  0
  4  8  1  0  0  0  0
  4  9  2  0  0  0  0
  5  6  1  0  0  0  0
  5  8  1  0  0  0  0
  6  7  2  0  0  0  0
  6 14  1  0  0  0  0
  7 16  1  0  0  0  0
  8 11  2  0  0  0  0
  9 10  1  0  0  0  0
  9 13  1  0  0  0  0
 10 12  2  0  0  0  0
 10 15  1  0  0  0  0
 11 13  1  0  0  0  0
  1 17  1  0  0  0  0
  2 18  1  0  0  0  0
  3 19  1  0  0  0  0
  4 20  1  0  0  0  0
 14 21  1  0  0  0  0
 15 22  1  0  0  0  0
M  END
> <id>
EN300-2004004

> <smiles>
OC(=O)C1=CC(=NO1)C=2C=CC=C(Br)C2O

> <IUPAC Name>
3-(3-bromo-2-hydroxyphenyl)-1,2-oxazole-5-carboxylic acid

> <CAS>
1897347-36-2

> <URL>
https://www.enaminestore.com/catalog/EN300-2004004

> <ROCS_ShapeQuery>
_x1604L0AP1_x0771L0AP1

> <ROCS_TanimotoCombo>
0.888 

> <ROCS_ShapeTanimoto>
0.597 

> <ROCS_ColorTanimoto>
0.291 

> <ROCS_RefTversky>
0.544 

> <ROCS_RefColorTversky>
0.404 

> <ROCS_RefTverskyCombo>
0.947 

> <ROCS_FitTversky>
1.198 

> <ROCS_FitColorTversky>
0.510 

> <ROCS_FitTverskyCombo>
1.708 

> <ROCS_ColorScore>
-4.668

> <ROCS_Overlap>
926.235

> <ROCS_Rank>
392                 

$$$$
untitled-dbase-489_2
  -OEChem-06042309053D

 17 17  0     0  0  0  0  0  0999 V2000
   -5.0994   11.7094  -31.6499 C   0  0  0  0  0  0  0  0  0  0  0  0
   -4.3336   12.3530  -29.4507 C   0  0  0  0  0  0  0  0  0  0  0  0
   -6.1039   10.9326  -31.0728 C   0  0  0  0  0  0  0  0  0  0  0  0
   -6.2233   10.8660  -29.6846 C   0  0  0  0  0  0  0  0  0  0  0  0
   -4.2142   12.4196  -30.8388 C   0  0  0  0  0  0  0  0  0  0  0  0
   -5.3382   11.5762  -28.8736 C   0  0  0  0  0  0  0  0  0  0  0  0
   -7.1705    8.8869  -31.9051 C   0  0  0  0  0  0  0  0  0  0  0  0
   -7.0139   10.2015  -31.9450 C   0  0  0  0  0  0  0  0  0  0  0  0
   -7.2089   10.1036  -29.1250 O   0  0  0  0  0  0  0  0  0  0  0  0
   -2.9747   13.3781  -31.5510 Cl  0  0  0  0  0  0  0  0  0  0  0  0
   -5.4670   11.5121  -26.9828 Br  0  0  0  0  0  0  0  0  0  0  0  0
   -5.0040   11.7636  -32.7327 H   0  0  0  0  0  0  0  0  0  0  0  0
   -3.6407   12.9084  -28.8217 H   0  0  0  0  0  0  0  0  0  0  0  0
   -7.8808    8.4260  -32.5849 H   0  0  0  0  0  0  0  0  0  0  0  0
   -6.6461    8.2242  -31.2271 H   0  0  0  0  0  0  0  0  0  0  0  0
   -7.6012   10.7843  -32.6335 H   0  0  0  0  0  0  0  0  0  0  0  0
   -7.1625   10.1589  -28.1588 H   0  0  0  0  0  0  0  0  0  0  0  0
  1  3  2  0  0  0  0
  1  5  1  0  0  0  0
  2  5  2  0  0  0  0
  2  6  1  0  0  0  0
  3  4  1  0  0  0  0
  3  8  1  0  0  0  0
  4  6  2  0  0  0  0
  4  9  1  0  0  0  0
  5 10  1  0  0  0  0
  6 11  1  0  0  0  0
  7  8  2  0  0  0  0
  1 12  1  0  0  0  0
  2 13  1  0  0  0  0
  7 14  1  0  0  0  0
  7 15  1  0  0  0  0
  8 16  1  0  0  0  0
  9 17  1  0  0  0  0
M  END
> <id>
EN300-1922897

> <smiles>
OC=1C(Br)=CC(Cl)=CC1C=C

> <MDLNUMBER>
MFCD33499565

> <IUPAC Name>
2-bromo-4-chloro-6-ethenylphenol

> <CAS>
2228870-27-5

> <URL>
https://www.enaminestore.com/catalog/EN300-1922897

> <ROCS_ShapeQuery>
_x1604L0AP1_x0771L0AP1

> <ROCS_TanimotoCombo>
0.888 

> <ROCS_ShapeTanimoto>
0.490 

> <ROCS_ColorTanimoto>
0.399 

> <ROCS_RefTversky>
0.430 

> <ROCS_RefColorTversky>
0.419 

> <ROCS_RefTverskyCombo>
0.849 

> <ROCS_FitTversky>
1.397 

> <ROCS_FitColorTversky>
0.892 

> <ROCS_FitTverskyCombo>
2.289 

> <ROCS_ColorScore>
-4.759

> <ROCS_Overlap>
726.484

> <ROCS_Rank>
393                 

$$$$
untitled-dbase-1715_230
  -OEChem-06042309053D

 25 25  0     1  0  0  0  0  0999 V2000
   -4.1713   12.1066  -30.1761 C   0  0  0  0  0  0  0  0  0  0  0  0
   -5.2435   11.0320  -32.0556 C   0  0  0  0  0  0  0  0  0  0  0  0
   -5.0950   11.5179  -29.3125 C   0  0  0  0  0  0  0  0  0  0  0  0
   -6.0929   10.6861  -29.8204 C   0  0  0  0  0  0  0  0  0  0  0  0
   -4.2456   11.8637  -31.5476 C   0  0  0  0  0  0  0  0  0  0  0  0
   -6.1672   10.4431  -31.1920 C   0  0  0  0  0  0  0  0  0  0  0  0
   -4.0751   10.7974  -27.0981 C   0  0  0  0  0  0  0  0  0  0  0  0
   -6.3860   11.8056  -27.1622 C   0  0  0  0  0  0  0  0  0  0  0  0
   -4.9955   11.7969  -27.8178 C   0  0  2  0  0  0  0  0  0  0  0  0
   -4.5647    9.4117  -27.2953 N   0  0  0  0  0  0  0  0  0  0  0  0
   -6.9893   10.1176  -28.9626 O   0  0  0  0  0  0  0  0  0  0  0  0
   -6.3224   12.4851  -25.9130 O   0  0  0  0  0  0  0  0  0  0  0  0
   -3.1057   12.5907  -32.6129 Cl  0  0  0  0  0  0  0  0  0  0  0  0
   -7.5090    9.3188  -31.9201 Br  0  0  0  0  0  0  0  0  0  0  0  0
   -3.3942   12.7544  -29.7758 H   0  0  0  0  0  0  0  0  0  0  0  0
   -5.2982   10.8454  -33.1259 H   0  0  0  0  0  0  0  0  0  0  0  0
   -4.0013   10.9949  -26.0237 H   0  0  0  0  0  0  0  0  0  0  0  0
   -3.0629   10.8481  -27.5156 H   0  0  0  0  0  0  0  0  0  0  0  0
   -7.1378   12.2962  -27.7893 H   0  0  0  0  0  0  0  0  0  0  0  0
   -6.7198   10.7814  -26.9634 H   0  0  0  0  0  0  0  0  0  0  0  0
   -4.5693   12.8024  -27.6918 H   0  0  0  0  0  0  0  0  0  0  0  0
   -3.9096    8.8111  -26.8690 H   0  0  0  0  0  0  0  0  0  0  0  0
   -5.4492    9.3550  -26.8639 H   0  0  0  0  0  0  0  0  0  0  0  0
   -7.6191    9.5694  -29.4549 H   0  0  0  0  0  0  0  0  0  0  0  0
   -7.2177   12.4648  -25.5397 H   0  0  0  0  0  0  0  0  0  0  0  0
  1  3  2  0  0  0  0
  1  5  1  0  0  0  0
  2  5  2  0  0  0  0
  2  6  1  0  0  0  0
  3  4  1  0  0  0  0
  3  9  1  0  0  0  0
  4  6  2  0  0  0  0
  4 11  1  0  0  0  0
  5 13  1  0  0  0  0
  6 14  1  0  0  0  0
  7  9  1  0  0  0  0
  7 10  1  0  0  0  0
  8  9  1  0  0  0  0
  8 12  1  0  0  0  0
  1 15  1  0  0  0  0
  2 16  1  0  0  0  0
  7 17  1  0  0  0  0
  7 18  1  0  0  0  0
  8 19  1  0  0  0  0
  8 20  1  0  0  0  0
  9 21  1  0  0  0  0
 10 22  1  0  0  0  0
 10 23  1  0  0  0  0
 11 24  1  0  0  0  0
 12 25  1  0  0  0  0
M  END
> <id>
EN300-1922882

> <smiles>
NCC(CO)C=1C=C(Cl)C=C(Br)C1O

> <IUPAC Name>
2-(1-amino-3-hydroxypropan-2-yl)-6-bromo-4-chlorophenol

> <CAS>
2228528-29-6

> <URL>
https://www.enaminestore.com/catalog/EN300-1922882

> <ROCS_ShapeQuery>
_x1604L0AP1_x0771L0AP1

> <ROCS_TanimotoCombo>
0.888 

> <ROCS_ShapeTanimoto>
0.422 

> <ROCS_ColorTanimoto>
0.466 

> <ROCS_RefTversky>
0.408 

> <ROCS_RefColorTversky>
0.544 

> <ROCS_RefTverskyCombo>
0.951 

> <ROCS_FitTversky>
1.092 

> <ROCS_FitColorTversky>
0.765 

> <ROCS_FitTverskyCombo>
1.857 

> <ROCS_ColorScore>
-6.260

> <ROCS_Overlap>
691.678

> <ROCS_Rank>
394                 

$$$$
untitled-dbase-1740_1031
  -OEChem-06042309053D

 32 33  0     0  0  0  0  0  0999 V2000
   -5.0482   11.2576  -31.7486 C   0  0  0  0  0  0  0  0  0  0  0  0
   -4.5562   12.4930  -29.7315 C   0  0  0  0  0  0  0  0  0  0  0  0
   -4.3105   12.2345  -31.0800 C   0  0  0  0  0  0  0  0  0  0  0  0
   -6.0319   10.5393  -31.0688 C   0  0  0  0  0  0  0  0  0  0  0  0
   -6.2777   10.7978  -29.7203 C   0  0  0  0  0  0  0  0  0  0  0  0
   -5.5399   11.7746  -29.0516 C   0  0  0  0  0  0  0  0  0  0  0  0
   -3.0305   12.6790  -33.2723 C   0  0  0  0  0  0  0  0  0  0  0  0
   -2.0178   12.2512  -32.2567 C   0  0  0  0  0  0  0  0  0  0  0  0
   -3.2587   13.0007  -31.8065 C   0  0  0  0  0  0  0  0  0  0  0  0
   -7.3124    8.2890  -33.6638 C   0  0  0  0  0  0  0  0  0  0  0  0
   -3.0955   14.4294  -31.3678 C   0  0  0  0  0  0  0  0  0  0  0  0
   -6.4297    9.3876  -33.1111 C   0  0  0  0  0  0  0  0  0  0  0  0
   -2.3218   14.5039  -30.1647 N   0  0  0  0  0  0  0  0  0  0  0  0
   -7.2440   10.0846  -29.0731 O   0  0  0  0  0  0  0  0  0  0  0  0
   -6.7446    9.5883  -31.7346 O   0  0  0  0  0  0  0  0  0  0  0  0
   -5.8434   12.1533  -27.2189 Br  0  0  0  0  0  0  0  0  0  0  0  0
   -4.8586   11.0534  -32.7996 H   0  0  0  0  0  0  0  0  0  0  0  0
   -3.9756   13.2558  -29.2173 H   0  0  0  0  0  0  0  0  0  0  0  0
   -2.7605   13.4860  -33.9436 H   0  0  0  0  0  0  0  0  0  0  0  0
   -3.6336   11.9075  -33.7371 H   0  0  0  0  0  0  0  0  0  0  0  0
   -1.9403   11.1918  -32.0406 H   0  0  0  0  0  0  0  0  0  0  0  0
   -1.0665   12.7705  -32.2435 H   0  0  0  0  0  0  0  0  0  0  0  0
   -7.1485    7.3500  -33.1279 H   0  0  0  0  0  0  0  0  0  0  0  0
   -8.3690    8.5640  -33.5803 H   0  0  0  0  0  0  0  0  0  0  0  0
   -7.1084    8.1287  -34.7277 H   0  0  0  0  0  0  0  0  0  0  0  0
   -2.5871   14.9811  -32.1667 H   0  0  0  0  0  0  0  0  0  0  0  0
   -4.0906   14.8537  -31.1921 H   0  0  0  0  0  0  0  0  0  0  0  0
   -6.5985   10.3239  -33.6514 H   0  0  0  0  0  0  0  0  0  0  0  0
   -5.3745    9.1109  -33.1946 H   0  0  0  0  0  0  0  0  0  0  0  0
   -1.4166   14.1038  -30.3188 H   0  0  0  0  0  0  0  0  0  0  0  0
   -2.2163   15.4612  -29.8894 H   0  0  0  0  0  0  0  0  0  0  0  0
   -7.6554    9.4523  -29.6819 H   0  0  0  0  0  0  0  0  0  0  0  0
  1  3  1  0  0  0  0
  1  4  2  0  0  0  0
  2  3  2  0  0  0  0
  2  6  1  0  0  0  0
  3  9  1  0  0  0  0
  4  5  1  0  0  0  0
  4 15  1  0  0  0  0
  5  6  2  0  0  0  0
  5 14  1  0  0  0  0
  6 16  1  0  0  0  0
  7  8  1  0  0  0  0
  7  9  1  0  0  0  0
  8  9  1  0  0  0  0
  9 11  1  0  0  0  0
 10 12  1  0  0  0  0
 11 13  1  0  0  0  0
 12 15  1  0  0  0  0
  1 17  1  0  0  0  0
  2 18  1  0  0  0  0
  7 19  1  0  0  0  0
  7 20  1  0  0  0  0
  8 21  1  0  0  0  0
  8 22  1  0  0  0  0
 10 23  1  0  0  0  0
 10 24  1  0  0  0  0
 10 25  1  0  0  0  0
 11 26  1  0  0  0  0
 11 27  1  0  0  0  0
 12 28  1  0  0  0  0
 12 29  1  0  0  0  0
 13 30  1  0  0  0  0
 13 31  1  0  0  0  0
 14 32  1  0  0  0  0
M  END
> <id>
EN300-2003700

> <smiles>
CCOC=1C=C(C=C(Br)C1O)C2(CN)CC2

> <IUPAC Name>
4-[1-(aminomethyl)cyclopropyl]-2-bromo-6-ethoxyphenol

> <CAS>
2229332-85-6

> <URL>
https://www.enaminestore.com/catalog/EN300-2003700

> <ROCS_ShapeQuery>
_x1604L0AP1_x0771L0AP1

> <ROCS_TanimotoCombo>
0.888 

> <ROCS_ShapeTanimoto>
0.626 

> <ROCS_ColorTanimoto>
0.262 

> <ROCS_RefTversky>
0.551 

> <ROCS_RefColorTversky>
0.339 

> <ROCS_RefTverskyCombo>
0.890 

> <ROCS_FitTversky>
1.275 

> <ROCS_FitColorTversky>
0.537 

> <ROCS_FitTverskyCombo>
1.811 

> <ROCS_ColorScore>
-3.883

> <ROCS_Overlap>
938.506

> <ROCS_Rank>
395                 

$$$$
untitled-dbase-1545_6
  -OEChem-06042309053D

 18 18  0     0  0  0  0  0  0999 V2000
   -4.8083   12.6427  -29.5847 C   0  0  0  0  0  0  0  0  0  0  0  0
   -4.9702   11.2526  -31.5541 C   0  0  0  0  0  0  0  0  0  0  0  0
   -5.8128   11.8929  -28.9729 C   0  0  0  0  0  0  0  0  0  0  0  0
   -4.3870   12.3226  -30.8754 C   0  0  0  0  0  0  0  0  0  0  0  0
   -6.3960   10.8229  -29.6516 C   0  0  0  0  0  0  0  0  0  0  0  0
   -5.9747   10.5027  -30.9422 C   0  0  0  0  0  0  0  0  0  0  0  0
   -6.2346   12.2469  -27.6244 C   0  0  0  0  0  0  0  0  0  0  0  0
   -3.3133   13.1247  -31.5294 C   0  0  0  0  0  0  0  0  0  0  0  0
   -5.4683   12.2446  -26.6586 O   0  0  0  0  0  0  0  0  0  0  0  0
   -7.3779   10.0965  -29.0417 O   0  0  0  0  0  0  0  0  0  0  0  0
   -6.7416    9.0551  -31.8968 Br  0  0  0  0  0  0  0  0  0  0  0  0
   -4.3511   13.4775  -29.0579 H   0  0  0  0  0  0  0  0  0  0  0  0
   -4.6355   11.0103  -32.5603 H   0  0  0  0  0  0  0  0  0  0  0  0
   -7.2996   12.5284  -27.4814 H   0  0  0  0  0  0  0  0  0  0  0  0
   -2.3280   12.6966  -31.3080 H   0  0  0  0  0  0  0  0  0  0  0  0
   -3.4438   13.1519  -32.6190 H   0  0  0  0  0  0  0  0  0  0  0  0
   -3.3262   14.1661  -31.1820 H   0  0  0  0  0  0  0  0  0  0  0  0
   -7.5493   10.4482  -28.1551 H   0  0  0  0  0  0  0  0  0  0  0  0
  1  3  2  0  0  0  0
  1  4  1  0  0  0  0
  2  4  2  0  0  0  0
  2  6  1  0  0  0  0
  3  5  1  0  0  0  0
  3  7  1  0  0  0  0
  4  8  1  0  0  0  0
  5  6  2  0  0  0  0
  5 10  1  0  0  0  0
  6 11  1  0  0  0  0
  7  9  2  0  0  0  0
  1 12  1  0  0  0  0
  2 13  1  0  0  0  0
  7 14  1  0  0  0  0
  8 15  1  0  0  0  0
  8 16  1  0  0  0  0
  8 17  1  0  0  0  0
 10 18  1  0  0  0  0
M  END
> <id>
EN300-129716

> <smiles>
CC=1C=C(Br)C(O)=C(C=O)C1

> <MDLNUMBER>
MFCD00275688

> <IUPAC Name>
3-bromo-2-hydroxy-5-methylbenzaldehyde

> <CAS>
33172-54-2

> <Purity>
95

> <URL>
https://www.enaminestore.com/catalog/EN300-129716

> <ROCS_ShapeQuery>
_x1604L0AP1_x0771L0AP1

> <ROCS_TanimotoCombo>
0.888 

> <ROCS_ShapeTanimoto>
0.456 

> <ROCS_ColorTanimoto>
0.431 

> <ROCS_RefTversky>
0.411 

> <ROCS_RefColorTversky>
0.443 

> <ROCS_RefTverskyCombo>
0.854 

> <ROCS_FitTversky>
1.315 

> <ROCS_FitColorTversky>
0.943 

> <ROCS_FitTverskyCombo>
2.259 

> <ROCS_ColorScore>
-5.033

> <ROCS_Overlap>
695.701

> <ROCS_Rank>
396                 

$$$$
untitled-dbase-1521_227
  -OEChem-06042309053D

 26 27  0     0  0  0  0  0  0999 V2000
   -4.5824   12.4673  -29.7934 C   0  0  0  0  0  0  0  0  0  0  0  0
   -5.0422   11.1441  -31.7617 C   0  0  0  0  0  0  0  0  0  0  0  0
   -4.3187   12.1534  -31.1266 C   0  0  0  0  0  0  0  0  0  0  0  0
   -5.5696   11.7718  -29.0952 C   0  0  0  0  0  0  0  0  0  0  0  0
   -6.2931   10.7625  -29.7303 C   0  0  0  0  0  0  0  0  0  0  0  0
   -6.0295   10.4486  -31.0636 C   0  0  0  0  0  0  0  0  0  0  0  0
   -3.0433   14.2947  -31.4526 C   0  0  0  0  0  0  0  0  0  0  0  0
   -3.0788   12.5750  -33.3465 C   0  0  0  0  0  0  0  0  0  0  0  0
   -2.0556   12.1153  -32.3593 C   0  0  0  0  0  0  0  0  0  0  0  0
   -3.2648   12.8978  -31.8725 C   0  0  0  0  0  0  0  0  0  0  0  0
   -5.0313   13.1334  -27.2211 C   0  0  0  0  0  0  0  0  0  0  0  0
   -2.2119   15.0327  -31.9709 O   0  0  0  0  0  0  0  0  0  0  0  0
   -7.2545   10.0938  -29.0303 O   0  0  0  0  0  0  0  0  0  0  0  0
   -5.8162   12.0892  -27.7936 O   0  0  0  0  0  0  0  0  0  0  0  0
   -6.9927    9.0848  -31.9615 Br  0  0  0  0  0  0  0  0  0  0  0  0
   -4.0205   13.2540  -29.2957 H   0  0  0  0  0  0  0  0  0  0  0  0
   -4.8309   10.9063  -32.8021 H   0  0  0  0  0  0  0  0  0  0  0  0
   -3.6808   14.6506  -30.6257 H   0  0  0  0  0  0  0  0  0  0  0  0
   -2.8025   13.3782  -34.0201 H   0  0  0  0  0  0  0  0  0  0  0  0
   -3.7131   11.8224  -33.8009 H   0  0  0  0  0  0  0  0  0  0  0  0
   -2.0009   11.0531  -32.1497 H   0  0  0  0  0  0  0  0  0  0  0  0
   -1.0906   12.6091  -32.3682 H   0  0  0  0  0  0  0  0  0  0  0  0
   -5.3289   13.2853  -26.1807 H   0  0  0  0  0  0  0  0  0  0  0  0
   -5.1771   14.0544  -27.7912 H   0  0  0  0  0  0  0  0  0  0  0  0
   -3.9775   12.8471  -27.2582 H   0  0  0  0  0  0  0  0  0  0  0  0
   -7.3060   10.4361  -28.1248 H   0  0  0  0  0  0  0  0  0  0  0  0
  1  3  1  0  0  0  0
  1  4  2  0  0  0  0
  2  3  2  0  0  0  0
  2  6  1  0  0  0  0
  3 10  1  0  0  0  0
  4  5  1  0  0  0  0
  4 14  1  0  0  0  0
  5  6  2  0  0  0  0
  5 13  1  0  0  0  0
  6 15  1  0  0  0  0
  7 10  1  0  0  0  0
  7 12  2  0  0  0  0
  8  9  1  0  0  0  0
  8 10  1  0  0  0  0
  9 10  1  0  0  0  0
 11 14  1  0  0  0  0
  1 16  1  0  0  0  0
  2 17  1  0  0  0  0
  7 18  1  0  0  0  0
  8 19  1  0  0  0  0
  8 20  1  0  0  0  0
  9 21  1  0  0  0  0
  9 22  1  0  0  0  0
 11 23  1  0  0  0  0
 11 24  1  0  0  0  0
 11 25  1  0  0  0  0
 13 26  1  0  0  0  0
M  END
> <id>
EN300-1926978

> <smiles>
COC=1C=C(C=C(Br)C1O)C2(CC2)C=O

> <IUPAC Name>
1-(3-bromo-4-hydroxy-5-methoxyphenyl)cyclopropane-1-carbaldehyde

> <CAS>
2229102-30-9

> <URL>
https://www.enaminestore.com/catalog/EN300-1926978

> <ROCS_ShapeQuery>
_x1604L0AP1_x0771L0AP1

> <ROCS_TanimotoCombo>
0.888 

> <ROCS_ShapeTanimoto>
0.505 

> <ROCS_ColorTanimoto>
0.382 

> <ROCS_RefTversky>
0.475 

> <ROCS_RefColorTversky>
0.429 

> <ROCS_RefTverskyCombo>
0.904 

> <ROCS_FitTversky>
1.147 

> <ROCS_FitColorTversky>
0.779 

> <ROCS_FitTverskyCombo>
1.926 

> <ROCS_ColorScore>
-4.897

> <ROCS_Overlap>
806.984

> <ROCS_Rank>
397                 

$$$$
untitled-dbase-2277_2
  -OEChem-06042309053D

 18 18  0     0  0  0  0  0  0999 V2000
   -4.3548   12.1482  -31.2357 C   0  0  0  0  0  0  0  0  0  0  0  0
   -5.0861   11.1229  -31.8353 C   0  0  0  0  0  0  0  0  0  0  0  0
   -5.5572   11.7977  -29.1697 C   0  0  0  0  0  0  0  0  0  0  0  0
   -4.5903   12.4856  -29.9028 C   0  0  0  0  0  0  0  0  0  0  0  0
   -6.2886   10.7725  -29.7693 C   0  0  0  0  0  0  0  0  0  0  0  0
   -6.0531   10.4351  -31.1021 C   0  0  0  0  0  0  0  0  0  0  0  0
   -5.8183   12.1512  -27.7385 C   0  0  0  0  0  0  0  0  0  0  0  0
   -3.8313   13.5347  -29.3139 N   0  3  0  0  0  0  0  0  0  0  0  0
   -2.9724   14.1254  -30.0102 O   0  5  0  0  0  0  0  0  0  0  0  0
   -4.0439   13.8370  -28.1160 O   0  0  0  0  0  0  0  0  0  0  0  0
   -7.2321   10.1072  -29.0411 O   0  0  0  0  0  0  0  0  0  0  0  0
   -7.0258    9.0484  -31.9535 Br  0  0  0  0  0  0  0  0  0  0  0  0
   -3.6042   12.6757  -31.8195 H   0  0  0  0  0  0  0  0  0  0  0  0
   -4.8888   10.8739  -32.8749 H   0  0  0  0  0  0  0  0  0  0  0  0
   -6.5942   12.9212  -27.6766 H   0  0  0  0  0  0  0  0  0  0  0  0
   -6.1465   11.2734  -27.1707 H   0  0  0  0  0  0  0  0  0  0  0  0
   -4.9096   12.5265  -27.2546 H   0  0  0  0  0  0  0  0  0  0  0  0
   -7.6550    9.4272  -29.5871 H   0  0  0  0  0  0  0  0  0  0  0  0
  1  2  1  0  0  0  0
  1  4  2  0  0  0  0
  2  6  2  0  0  0  0
  3  4  1  0  0  0  0
  3  5  2  0  0  0  0
  3  7  1  0  0  0  0
  4  8  1  0  0  0  0
  5  6  1  0  0  0  0
  5 11  1  0  0  0  0
  6 12  1  0  0  0  0
  8  9  1  0  0  0  0
  8 10  2  0  0  0  0
  1 13  1  0  0  0  0
  2 14  1  0  0  0  0
  7 15  1  0  0  0  0
  7 16  1  0  0  0  0
  7 17  1  0  0  0  0
 11 18  1  0  0  0  0
M  CHG  2   8   1   9  -1
M  END
> <id>
EN300-20977739

> <smiles>
CC=1C(O)=C(Br)C=CC1[N+](=O)[O-]

> <MDLNUMBER>
MFCD28745601

> <IUPAC Name>
6-bromo-2-methyl-3-nitrophenol

> <CAS>
1805573-41-4

> <Purity>
95

> <URL>
https://www.enaminestore.com/catalog/EN300-20977739

> <ROCS_ShapeQuery>
_x1604L0AP1_x0771L0AP1

> <ROCS_TanimotoCombo>
0.888 

> <ROCS_ShapeTanimoto>
0.508 

> <ROCS_ColorTanimoto>
0.380 

> <ROCS_RefTversky>
0.452 

> <ROCS_RefColorTversky>
0.427 

> <ROCS_RefTverskyCombo>
0.880 

> <ROCS_FitTversky>
1.319 

> <ROCS_FitColorTversky>
0.774 

> <ROCS_FitTverskyCombo>
2.093 

> <ROCS_ColorScore>
-4.879

> <ROCS_Overlap>
765.807

> <ROCS_Rank>
398                 

$$$$
untitled-dbase-705_997
  -OEChem-06042309053D

 29 29  0     1  0  0  0  0  0999 V2000
   -5.2056   11.3813  -31.8147 C   0  0  0  0  0  0  0  0  0  0  0  0
   -4.4335   12.3520  -29.7415 C   0  0  0  0  0  0  0  0  0  0  0  0
   -4.3323   12.2236  -31.1268 C   0  0  0  0  0  0  0  0  0  0  0  0
   -6.1802   10.6673  -31.1174 C   0  0  0  0  0  0  0  0  0  0  0  0
   -6.2814   10.7957  -29.7322 C   0  0  0  0  0  0  0  0  0  0  0  0
   -5.4081   11.6381  -29.0442 C   0  0  0  0  0  0  0  0  0  0  0  0
   -6.8038    8.9325  -34.0044 C   0  0  0  0  0  0  0  0  0  0  0  0
   -1.0515   13.8545  -31.7297 C   0  0  0  0  0  0  0  0  0  0  0  0
   -3.2899   12.9860  -31.8725 C   0  0  0  0  0  0  0  0  0  0  0  0
   -6.4354    8.7816  -32.5439 C   0  0  0  0  0  0  0  0  0  0  0  0
   -2.2805   13.5307  -31.0003 N   0  0  2  0  0  0  0  0  0  0  0  0
   -7.2406   10.0883  -29.0678 O   0  0  0  0  0  0  0  0  0  0  0  0
   -2.7949   14.8288  -30.5819 O   0  0  0  0  0  0  0  0  0  0  0  0
   -7.0255    9.8481  -31.8033 O   0  0  0  0  0  0  0  0  0  0  0  0
   -5.5148   11.8383  -27.1620 Br  0  0  0  0  0  0  0  0  0  0  0  0
   -5.1286   11.2792  -32.8946 H   0  0  0  0  0  0  0  0  0  0  0  0
   -3.7476   13.0112  -29.2138 H   0  0  0  0  0  0  0  0  0  0  0  0
   -7.8883    8.8928  -34.1394 H   0  0  0  0  0  0  0  0  0  0  0  0
   -6.4329    9.8838  -34.3998 H   0  0  0  0  0  0  0  0  0  0  0  0
   -6.3442    8.1385  -34.6023 H   0  0  0  0  0  0  0  0  0  0  0  0
   -0.3079   14.2664  -31.0316 H   0  0  0  0  0  0  0  0  0  0  0  0
   -0.6509   12.9423  -32.1959 H   0  0  0  0  0  0  0  0  0  0  0  0
   -1.2732   14.5979  -32.5096 H   0  0  0  0  0  0  0  0  0  0  0  0
   -2.7809   12.3464  -32.6071 H   0  0  0  0  0  0  0  0  0  0  0  0
   -3.7268   13.8249  -32.4316 H   0  0  0  0  0  0  0  0  0  0  0  0
   -5.3496    8.8222  -32.4158 H   0  0  0  0  0  0  0  0  0  0  0  0
   -6.8075    7.8310  -32.1502 H   0  0  0  0  0  0  0  0  0  0  0  0
   -7.7557    9.5567  -29.6937 H   0  0  0  0  0  0  0  0  0  0  0  0
   -2.0486   15.1371  -30.0402 H   0  0  0  0  0  0  0  0  0  0  0  0
  1  3  1  0  0  0  0
  1  4  2  0  0  0  0
  2  3  2  0  0  0  0
  2  6  1  0  0  0  0
  3  9  1  0  0  0  0
  4  5  1  0  0  0  0
  4 14  1  0  0  0  0
  5  6  2  0  0  0  0
  5 12  1  0  0  0  0
  6 15  1  0  0  0  0
  7 10  1  0  0  0  0
  8 11  1  0  0  0  0
  9 11  1  0  0  0  0
 10 14  1  0  0  0  0
 11 13  1  0  0  0  0
  1 16  1  0  0  0  0
  2 17  1  0  0  0  0
  7 18  1  0  0  0  0
  7 19  1  0  0  0  0
  7 20  1  0  0  0  0
  8 21  1  0  0  0  0
  8 22  1  0  0  0  0
  8 23  1  0  0  0  0
  9 24  1  0  0  0  0
  9 25  1  0  0  0  0
 10 26  1  0  0  0  0
 10 27  1  0  0  0  0
 12 28  1  0  0  0  0
 13 29  1  0  0  0  0
M  END
> <id>
EN300-1920226

> <smiles>
CCOC=1C=C(CN(C)O)C=C(Br)C1O

> <IUPAC Name>
2-bromo-6-ethoxy-4-{[hydroxy(methyl)amino]methyl}phenol

> <CAS>
2229416-83-3

> <URL>
https://www.enaminestore.com/catalog/EN300-1920226

> <ROCS_ShapeQuery>
_x1604L0AP1_x0771L0AP1

> <ROCS_TanimotoCombo>
0.888 

> <ROCS_ShapeTanimoto>
0.607 

> <ROCS_ColorTanimoto>
0.281 

> <ROCS_RefTversky>
0.530 

> <ROCS_RefColorTversky>
0.340 

> <ROCS_RefTverskyCombo>
0.871 

> <ROCS_FitTversky>
1.311 

> <ROCS_FitColorTversky>
0.618 

> <ROCS_FitTverskyCombo>
1.929 

> <ROCS_ColorScore>
-3.886

> <ROCS_Overlap>
901.098

> <ROCS_Rank>
399                 

$$$$
untitled-dbase-2080_135
  -OEChem-06042309053D

 27 27  0     0  0  0  0  0  0999 V2000
   -5.0673   11.1405  -31.7986 C   0  0  0  0  0  0  0  0  0  0  0  0
   -5.5734   11.7801  -29.1307 C   0  0  0  0  0  0  0  0  0  0  0  0
   -4.3436   12.1574  -31.1758 C   0  0  0  0  0  0  0  0  0  0  0  0
   -4.5966   12.4772  -29.8419 C   0  0  0  0  0  0  0  0  0  0  0  0
   -6.2971   10.7633  -29.7535 C   0  0  0  0  0  0  0  0  0  0  0  0
   -6.0441   10.4435  -31.0874 C   0  0  0  0  0  0  0  0  0  0  0  0
   -3.3182   12.8784  -31.9499 C   0  0  0  0  0  0  0  0  0  0  0  0
   -3.8374   13.5628  -29.1514 C   0  0  0  0  0  0  0  0  0  0  0  0
   -0.7673   11.2777  -31.5551 C   0  0  0  0  0  0  0  0  0  0  0  0
   -2.5998   12.1220  -33.0657 C   0  0  0  0  0  0  0  0  0  0  0  0
   -1.0911   12.0283  -32.8368 C   0  0  0  0  0  0  0  0  0  0  0  0
   -3.0322   14.0558  -31.7237 O   0  0  0  0  0  0  0  0  0  0  0  0
   -7.2450   10.1010  -29.0315 O   0  0  0  0  0  0  0  0  0  0  0  0
   -7.0084    9.0681  -31.9654 Br  0  0  0  0  0  0  0  0  0  0  0  0
   -4.8652   10.8954  -32.8393 H   0  0  0  0  0  0  0  0  0  0  0  0
   -5.7731   12.0271  -28.0906 H   0  0  0  0  0  0  0  0  0  0  0  0
   -2.9381   13.1540  -28.6767 H   0  0  0  0  0  0  0  0  0  0  0  0
   -3.5352   14.3456  -29.8577 H   0  0  0  0  0  0  0  0  0  0  0  0
   -4.4506   14.0466  -28.3813 H   0  0  0  0  0  0  0  0  0  0  0  0
   -1.1876   10.2672  -31.5754 H   0  0  0  0  0  0  0  0  0  0  0  0
   -1.1874   11.8030  -30.6918 H   0  0  0  0  0  0  0  0  0  0  0  0
    0.3147   11.1975  -31.4103 H   0  0  0  0  0  0  0  0  0  0  0  0
   -2.7866   12.6415  -34.0126 H   0  0  0  0  0  0  0  0  0  0  0  0
   -3.0162   11.1097  -33.1222 H   0  0  0  0  0  0  0  0  0  0  0  0
   -0.6575   13.0342  -32.7855 H   0  0  0  0  0  0  0  0  0  0  0  0
   -0.6148   11.5195  -33.6833 H   0  0  0  0  0  0  0  0  0  0  0  0
   -7.6704    9.4239  -29.5800 H   0  0  0  0  0  0  0  0  0  0  0  0
  1  3  2  0  0  0  0
  1  6  1  0  0  0  0
  2  4  2  0  0  0  0
  2  5  1  0  0  0  0
  3  4  1  0  0  0  0
  3  7  1  0  0  0  0
  4  8  1  0  0  0  0
  5  6  2  0  0  0  0
  5 13  1  0  0  0  0
  6 14  1  0  0  0  0
  7 10  1  0  0  0  0
  7 12  2  0  0  0  0
  9 11  1  0  0  0  0
 10 11  1  0  0  0  0
  1 15  1  0  0  0  0
  2 16  1  0  0  0  0
  8 17  1  0  0  0  0
  8 18  1  0  0  0  0
  8 19  1  0  0  0  0
  9 20  1  0  0  0  0
  9 21  1  0  0  0  0
  9 22  1  0  0  0  0
 10 23  1  0  0  0  0
 10 24  1  0  0  0  0
 11 25  1  0  0  0  0
 11 26  1  0  0  0  0
 13 27  1  0  0  0  0
M  END
> <id>
EN300-1276715

> <smiles>
CCCC(=O)C=1C=C(Br)C(O)=CC1C

> <IUPAC Name>
1-(5-bromo-4-hydroxy-2-methylphenyl)butan-1-one

> <CAS>
2110466-13-0

> <URL>
https://www.enaminestore.com/catalog/EN300-1276715

> <ROCS_ShapeQuery>
_x1604L0AP1_x0771L0AP1

> <ROCS_TanimotoCombo>
0.888 

> <ROCS_ShapeTanimoto>
0.507 

> <ROCS_ColorTanimoto>
0.380 

> <ROCS_RefTversky>
0.464 

> <ROCS_RefColorTversky>
0.427 

> <ROCS_RefTverskyCombo>
0.891 

> <ROCS_FitTversky>
1.226 

> <ROCS_FitColorTversky>
0.776 

> <ROCS_FitTverskyCombo>
2.002 

> <ROCS_ColorScore>
-4.878

> <ROCS_Overlap>
787.208

> <ROCS_Rank>
400                 

$$$$
untitled-dbase-1693_6
  -OEChem-06042309053D

 24 24  0     1  0  0  0  0  0999 V2000
   -4.2951   12.2498  -31.1027 C   0  0  0  0  0  0  0  0  0  0  0  0
   -5.1356   11.4074  -31.8304 C   0  0  0  0  0  0  0  0  0  0  0  0
   -4.4360   12.3494  -29.7185 C   0  0  0  0  0  0  0  0  0  0  0  0
   -6.1170   10.6647  -31.1740 C   0  0  0  0  0  0  0  0  0  0  0  0
   -6.2580   10.7644  -29.7898 C   0  0  0  0  0  0  0  0  0  0  0  0
   -5.4175   11.6068  -29.0621 C   0  0  0  0  0  0  0  0  0  0  0  0
   -6.2618    8.6789  -32.7655 C   0  0  0  0  0  0  0  0  0  0  0  0
   -7.1932    7.7176  -33.5087 C   0  0  0  0  0  0  0  0  0  0  0  0
   -7.0164    9.7603  -31.9810 C   0  0  2  0  0  0  0  0  0  0  0  0
   -6.4128    6.7116  -34.2211 N   0  0  0  0  0  0  0  0  0  0  0  0
   -7.2240   10.0327  -29.1622 O   0  0  0  0  0  0  0  0  0  0  0  0
   -7.8047   10.4428  -32.8652 F   0  0  0  0  0  0  0  0  0  0  0  0
   -5.5764   11.7692  -27.1800 Br  0  0  0  0  0  0  0  0  0  0  0  0
   -3.5306   12.8277  -31.6137 H   0  0  0  0  0  0  0  0  0  0  0  0
   -5.0173   11.3339  -32.9082 H   0  0  0  0  0  0  0  0  0  0  0  0
   -3.7715   13.0108  -29.1683 H   0  0  0  0  0  0  0  0  0  0  0  0
   -5.5598    9.1407  -33.4709 H   0  0  0  0  0  0  0  0  0  0  0  0
   -5.6642    8.0997  -32.0493 H   0  0  0  0  0  0  0  0  0  0  0  0
   -7.8149    8.2591  -34.2290 H   0  0  0  0  0  0  0  0  0  0  0  0
   -7.8604    7.2143  -32.8011 H   0  0  0  0  0  0  0  0  0  0  0  0
   -7.7101    9.2721  -31.2861 H   0  0  0  0  0  0  0  0  0  0  0  0
   -7.0423    6.0891  -34.6707 H   0  0  0  0  0  0  0  0  0  0  0  0
   -5.8426    7.1751  -34.8889 H   0  0  0  0  0  0  0  0  0  0  0  0
   -7.2032   10.2030  -28.2083 H   0  0  0  0  0  0  0  0  0  0  0  0
  1  2  1  0  0  0  0
  1  3  2  0  0  0  0
  2  4  2  0  0  0  0
  3  6  1  0  0  0  0
  4  5  1  0  0  0  0
  4  9  1  0  0  0  0
  5  6  2  0  0  0  0
  5 11  1  0  0  0  0
  6 13  1  0  0  0  0
  7  8  1  0  0  0  0
  7  9  1  0  0  0  0
  8 10  1  0  0  0  0
  9 12  1  0  0  0  0
  1 14  1  0  0  0  0
  2 15  1  0  0  0  0
  3 16  1  0  0  0  0
  7 17  1  0  0  0  0
  7 18  1  0  0  0  0
  8 19  1  0  0  0  0
  8 20  1  0  0  0  0
  9 21  1  0  0  0  0
 10 22  1  0  0  0  0
 10 23  1  0  0  0  0
 11 24  1  0  0  0  0
M  END
> <id>
EN300-1923129

> <smiles>
NCCC(F)C=1C=CC=C(Br)C1O

> <IUPAC Name>
2-(3-amino-1-fluoropropyl)-6-bromophenol

> <CAS>
2228437-52-1

> <URL>
https://www.enaminestore.com/catalog/EN300-1923129

> <ROCS_ShapeQuery>
_x1604L0AP1_x0771L0AP1

> <ROCS_TanimotoCombo>
0.888 

> <ROCS_ShapeTanimoto>
0.524 

> <ROCS_ColorTanimoto>
0.363 

> <ROCS_RefTversky>
0.466 

> <ROCS_RefColorTversky>
0.413 

> <ROCS_RefTverskyCombo>
0.879 

> <ROCS_FitTversky>
1.316 

> <ROCS_FitColorTversky>
0.750 

> <ROCS_FitTverskyCombo>
2.066 

> <ROCS_ColorScore>
-4.716

> <ROCS_Overlap>
789.422

> <ROCS_Rank>
401                 

$$$$
untitled-dbase-1537_6
  -OEChem-06042309053D

 15 15  0     0  0  0  0  0  0999 V2000
   -4.8176   12.6471  -29.5786 C   0  0  0  0  0  0  0  0  0  0  0  0
   -4.9727   11.2571  -31.5486 C   0  0  0  0  0  0  0  0  0  0  0  0
   -5.8206   11.8941  -28.9682 C   0  0  0  0  0  0  0  0  0  0  0  0
   -6.3996   10.8225  -29.6480 C   0  0  0  0  0  0  0  0  0  0  0  0
   -4.3937   12.3286  -30.8688 C   0  0  0  0  0  0  0  0  0  0  0  0
   -5.9757   10.5040  -30.9382 C   0  0  0  0  0  0  0  0  0  0  0  0
   -6.2473   12.2469  -27.6211 C   0  0  0  0  0  0  0  0  0  0  0  0
   -5.4835   12.2481  -26.6533 O   0  0  0  0  0  0  0  0  0  0  0  0
   -7.3815   10.0943  -29.0405 O   0  0  0  0  0  0  0  0  0  0  0  0
   -3.1561   13.2584  -31.6213 Cl  0  0  0  0  0  0  0  0  0  0  0  0
   -6.7377    9.0553  -31.8950 Br  0  0  0  0  0  0  0  0  0  0  0  0
   -4.3675   13.4826  -29.0465 H   0  0  0  0  0  0  0  0  0  0  0  0
   -4.6394   11.0122  -32.5549 H   0  0  0  0  0  0  0  0  0  0  0  0
   -7.3138   12.5241  -27.4809 H   0  0  0  0  0  0  0  0  0  0  0  0
   -7.5561   10.4460  -28.1545 H   0  0  0  0  0  0  0  0  0  0  0  0
  1  3  2  0  0  0  0
  1  5  1  0  0  0  0
  2  5  2  0  0  0  0
  2  6  1  0  0  0  0
  3  4  1  0  0  0  0
  3  7  1  0  0  0  0
  4  6  2  0  0  0  0
  4  9  1  0  0  0  0
  5 10  1  0  0  0  0
  6 11  1  0  0  0  0
  7  8  2  0  0  0  0
  1 12  1  0  0  0  0
  2 13  1  0  0  0  0
  7 14  1  0  0  0  0
  9 15  1  0  0  0  0
M  END
> <id>
EN300-370866

> <smiles>
OC=1C(Br)=CC(Cl)=CC1C=O

> <MDLNUMBER>
MFCD00051690

> <IUPAC Name>
3-bromo-5-chloro-2-hydroxybenzaldehyde

> <CAS>
19652-32-5

> <Purity>
95

> <URL>
https://www.enaminestore.com/catalog/EN300-370866

> <MP>
84-88

> <ROCS_ShapeQuery>
_x1604L0AP1_x0771L0AP1

> <ROCS_TanimotoCombo>
0.888 

> <ROCS_ShapeTanimoto>
0.456 

> <ROCS_ColorTanimoto>
0.432 

> <ROCS_RefTversky>
0.410 

> <ROCS_RefColorTversky>
0.443 

> <ROCS_RefTverskyCombo>
0.853 

> <ROCS_FitTversky>
1.326 

> <ROCS_FitColorTversky>
0.944 

> <ROCS_FitTverskyCombo>
2.269 

> <ROCS_ColorScore>
-5.035

> <ROCS_Overlap>
693.185

> <ROCS_Rank>
402                 

$$$$
untitled-dbase-1685_1
  -OEChem-06042309053D

 17 17  0     0  0  0  0  0  0999 V2000
   -4.5984   12.4814  -29.8505 C   0  0  0  0  0  0  0  0  0  0  0  0
   -5.5737   11.7848  -29.1370 C   0  0  0  0  0  0  0  0  0  0  0  0
   -5.0693   11.1399  -31.8039 C   0  0  0  0  0  0  0  0  0  0  0  0
   -4.3462   12.1590  -31.1840 C   0  0  0  0  0  0  0  0  0  0  0  0
   -6.2968   10.7657  -29.7570 C   0  0  0  0  0  0  0  0  0  0  0  0
   -6.0446   10.4433  -31.0904 C   0  0  0  0  0  0  0  0  0  0  0  0
   -2.2324   13.3880  -31.3757 C   0  0  0  0  0  0  0  0  0  0  0  0
   -3.3288   12.8856  -31.9271 C   0  0  0  0  0  0  0  0  0  0  0  0
   -7.2414   10.1027  -29.0313 O   0  0  0  0  0  0  0  0  0  0  0  0
   -7.0065    9.0630  -31.9636 Br  0  0  0  0  0  0  0  0  0  0  0  0
   -4.0435   13.2738  -29.3537 H   0  0  0  0  0  0  0  0  0  0  0  0
   -5.7649   12.0423  -28.0987 H   0  0  0  0  0  0  0  0  0  0  0  0
   -4.8702   10.8912  -32.8448 H   0  0  0  0  0  0  0  0  0  0  0  0
   -1.5190   13.9062  -32.0094 H   0  0  0  0  0  0  0  0  0  0  0  0
   -1.9817   13.3093  -30.3246 H   0  0  0  0  0  0  0  0  0  0  0  0
   -3.4784   12.9881  -32.9894 H   0  0  0  0  0  0  0  0  0  0  0  0
   -7.6670    9.4239  -29.5777 H   0  0  0  0  0  0  0  0  0  0  0  0
  1  2  1  0  0  0  0
  1  4  2  0  0  0  0
  2  5  2  0  0  0  0
  3  4  1  0  0  0  0
  3  6  2  0  0  0  0
  4  8  1  0  0  0  0
  5  6  1  0  0  0  0
  5  9  1  0  0  0  0
  6 10  1  0  0  0  0
  7  8  2  0  0  0  0
  1 11  1  0  0  0  0
  2 12  1  0  0  0  0
  3 13  1  0  0  0  0
  7 14  1  0  0  0  0
  7 15  1  0  0  0  0
  8 16  1  0  0  0  0
  9 17  1  0  0  0  0
M  END
> <id>
EN300-1906348

> <smiles>
OC=1C=CC(C=C)=CC1Br

> <MDLNUMBER>
MFCD32202529

> <IUPAC Name>
2-bromo-4-ethenylphenol

> <CAS>
80122-46-9

> <URL>
https://www.enaminestore.com/catalog/EN300-1906348

> <ROCS_ShapeQuery>
_x1604L0AP1_x0771L0AP1

> <ROCS_TanimotoCombo>
0.888 

> <ROCS_ShapeTanimoto>
0.475 

> <ROCS_ColorTanimoto>
0.413 

> <ROCS_RefTversky>
0.414 

> <ROCS_RefColorTversky>
0.429 

> <ROCS_RefTverskyCombo>
0.844 

> <ROCS_FitTversky>
1.444 

> <ROCS_FitColorTversky>
0.914 

> <ROCS_FitTverskyCombo>
2.358 

> <ROCS_ColorScore>
-4.879

> <ROCS_Overlap>
699.683

> <ROCS_Rank>
403                 

$$$$
untitled-dbase-1873_3
  -OEChem-06042309053D

 22 23  0     0  0  0  0  0  0999 V2000
   -4.3956   13.1133  -29.6855 C   0  0  0  0  0  0  0  0  0  0  0  0
   -4.8079   12.3785  -30.7970 C   0  0  0  0  0  0  0  0  0  0  0  0
   -4.9131   12.8194  -28.4239 C   0  0  0  0  0  0  0  0  0  0  0  0
   -6.0902    9.2847  -32.1823 C   0  0  0  0  0  0  0  0  0  0  0  0
   -5.7378   11.3496  -30.6470 C   0  0  0  0  0  0  0  0  0  0  0  0
   -6.2553   11.0557  -29.3855 C   0  0  0  0  0  0  0  0  0  0  0  0
   -5.8430   11.7905  -28.2739 C   0  0  0  0  0  0  0  0  0  0  0  0
   -6.1497   10.6025  -31.8134 C   0  0  0  0  0  0  0  0  0  0  0  0
   -6.6778    9.2682  -33.4591 C   0  0  0  0  0  0  0  0  0  0  0  0
   -6.8781    8.1377  -34.3188 C   0  0  0  0  0  0  0  0  0  0  0  0
   -7.0715   10.4829  -33.8521 N   0  0  0  0  0  0  0  0  0  0  0  0
   -6.5576    6.9583  -34.0706 O   0  0  0  0  0  0  0  0  0  0  0  0
   -6.7333   11.3276  -32.8017 O   0  0  0  0  0  0  0  0  0  0  0  0
   -7.1659   10.0472  -29.2436 O   0  0  0  0  0  0  0  0  0  0  0  0
   -7.4837    8.4601  -35.5036 O   0  0  0  0  0  0  0  0  0  0  0  0
   -6.5188   11.4212  -26.5413 Br  0  0  0  0  0  0  0  0  0  0  0  0
   -3.6720   13.9148  -29.8024 H   0  0  0  0  0  0  0  0  0  0  0  0
   -4.3918   12.6186  -31.7726 H   0  0  0  0  0  0  0  0  0  0  0  0
   -4.5791   13.4024  -27.5695 H   0  0  0  0  0  0  0  0  0  0  0  0
   -5.6834    8.4605  -31.6140 H   0  0  0  0  0  0  0  0  0  0  0  0
   -7.4286    9.9663  -28.3146 H   0  0  0  0  0  0  0  0  0  0  0  0
   -7.6927    9.4141  -35.5961 H   0  0  0  0  0  0  0  0  0  0  0  0
  1  2  1  0  0  0  0
  1  3  2  0  0  0  0
  2  5  2  0  0  0  0
  3  7  1  0  0  0  0
  4  8  2  0  0  0  0
  4  9  1  0  0  0  0
  5  6  1  0  0  0  0
  5  8  1  0  0  0  0
  6  7  2  0  0  0  0
  6 14  1  0  0  0  0
  7 16  1  0  0  0  0
  8 13  1  0  0  0  0
  9 10  1  0  0  0  0
  9 11  2  0  0  0  0
 10 12  2  0  0  0  0
 10 15  1  0  0  0  0
 11 13  1  0  0  0  0
  1 17  1  0  0  0  0
  2 18  1  0  0  0  0
  3 19  1  0  0  0  0
  4 20  1  0  0  0  0
 14 21  1  0  0  0  0
 15 22  1  0  0  0  0
M  END
> <id>
EN300-1923469

> <smiles>
OC(=O)C=1C=C(ON1)C=2C=CC=C(Br)C2O

> <IUPAC Name>
5-(3-bromo-2-hydroxyphenyl)-1,2-oxazole-3-carboxylic acid

> <CAS>
1898391-85-9

> <URL>
https://www.enaminestore.com/catalog/EN300-1923469

> <ROCS_ShapeQuery>
_x1604L0AP1_x0771L0AP1

> <ROCS_TanimotoCombo>
0.887 

> <ROCS_ShapeTanimoto>
0.602 

> <ROCS_ColorTanimoto>
0.286 

> <ROCS_RefTversky>
0.547 

> <ROCS_RefColorTversky>
0.398 

> <ROCS_RefTverskyCombo>
0.944 

> <ROCS_FitTversky>
1.202 

> <ROCS_FitColorTversky>
0.503 

> <ROCS_FitTverskyCombo>
1.705 

> <ROCS_ColorScore>
-4.601

> <ROCS_Overlap>
931.172

> <ROCS_Rank>
404                 

$$$$
untitled-dbase-547_9
  -OEChem-06042309053D

 27 27  0     0  0  0  0  0  0999 V2000
   -4.2664   12.2869  -31.0496 C   0  0  0  0  0  0  0  0  0  0  0  0
   -4.9481   11.2870  -31.7431 C   0  0  0  0  0  0  0  0  0  0  0  0
   -4.5757   12.5444  -29.7140 C   0  0  0  0  0  0  0  0  0  0  0  0
   -5.9392   10.5446  -31.1011 C   0  0  0  0  0  0  0  0  0  0  0  0
   -6.2487   10.8022  -29.7656 C   0  0  0  0  0  0  0  0  0  0  0  0
   -5.5669   11.8021  -29.0720 C   0  0  0  0  0  0  0  0  0  0  0  0
   -6.4678    8.0819  -31.2090 C   0  0  0  0  0  0  0  0  0  0  0  0
   -8.1838    9.7636  -31.9433 C   0  0  0  0  0  0  0  0  0  0  0  0
   -6.7802   10.3787  -34.0944 C   0  0  0  0  0  0  0  0  0  0  0  0
   -6.6773    9.4503  -31.8836 C   0  0  0  0  0  0  0  0  0  0  0  0
   -6.1980    9.3402  -33.2559 N   0  0  0  0  0  0  0  0  0  0  0  0
   -7.2220   10.0685  -29.1518 O   0  0  0  0  0  0  0  0  0  0  0  0
   -5.9573   12.1818  -27.2562 Br  0  0  0  0  0  0  0  0  0  0  0  0
   -3.4943   12.8647  -31.5492 H   0  0  0  0  0  0  0  0  0  0  0  0
   -4.6990   11.0914  -32.7827 H   0  0  0  0  0  0  0  0  0  0  0  0
   -4.0334   13.3273  -29.1898 H   0  0  0  0  0  0  0  0  0  0  0  0
   -6.9902    7.2889  -31.7579 H   0  0  0  0  0  0  0  0  0  0  0  0
   -5.4048    7.8125  -31.1836 H   0  0  0  0  0  0  0  0  0  0  0  0
   -6.8382    8.0649  -30.1783 H   0  0  0  0  0  0  0  0  0  0  0  0
   -8.7248    8.9890  -32.5002 H   0  0  0  0  0  0  0  0  0  0  0  0
   -8.3692   10.7176  -32.4519 H   0  0  0  0  0  0  0  0  0  0  0  0
   -8.6358    9.8265  -30.9474 H   0  0  0  0  0  0  0  0  0  0  0  0
   -6.5069   11.3675  -33.6974 H   0  0  0  0  0  0  0  0  0  0  0  0
   -6.3985   10.2777  -35.1211 H   0  0  0  0  0  0  0  0  0  0  0  0
   -7.8754   10.2753  -34.0986 H   0  0  0  0  0  0  0  0  0  0  0  0
   -6.4534    8.4259  -33.6269 H   0  0  0  0  0  0  0  0  0  0  0  0
   -7.3263   10.3571  -28.2324 H   0  0  0  0  0  0  0  0  0  0  0  0
  1  2  1  0  0  0  0
  1  3  2  0  0  0  0
  2  4  2  0  0  0  0
  3  6  1  0  0  0  0
  4  5  1  0  0  0  0
  4 10  1  0  0  0  0
  5  6  2  0  0  0  0
  5 12  1  0  0  0  0
  6 13  1  0  0  0  0
  7 10  1  0  0  0  0
  8 10  1  0  0  0  0
  9 11  1  0  0  0  0
 10 11  1  0  0  0  0
  1 14  1  0  0  0  0
  2 15  1  0  0  0  0
  3 16  1  0  0  0  0
  7 17  1  0  0  0  0
  7 18  1  0  0  0  0
  7 19  1  0  0  0  0
  8 20  1  0  0  0  0
  8 21  1  0  0  0  0
  8 22  1  0  0  0  0
  9 23  1  0  0  0  0
  9 24  1  0  0  0  0
  9 25  1  0  0  0  0
 11 26  1  0  0  0  0
 12 27  1  0  0  0  0
M  END
> <id>
EN300-1923463

> <smiles>
CNC(C)(C)C=1C=CC=C(Br)C1O

> <IUPAC Name>
2-bromo-6-[2-(methylamino)propan-2-yl]phenol

> <CAS>
2229370-03-8

> <URL>
https://www.enaminestore.com/catalog/EN300-1923463

> <ROCS_ShapeQuery>
_x1604L0AP1_x0771L0AP1

> <ROCS_TanimotoCombo>
0.887 

> <ROCS_ShapeTanimoto>
0.542 

> <ROCS_ColorTanimoto>
0.345 

> <ROCS_RefTversky>
0.478 

> <ROCS_RefColorTversky>
0.419 

> <ROCS_RefTverskyCombo>
0.896 

> <ROCS_FitTversky>
1.331 

> <ROCS_FitColorTversky>
0.663 

> <ROCS_FitTverskyCombo>
1.994 

> <ROCS_ColorScore>
-4.799

> <ROCS_Overlap>
809.827

> <ROCS_Rank>
405                 

$$$$
untitled-dbase-576_1748
  -OEChem-06042309053D

 30 30  0     1  0  0  0  0  0999 V2000
   -5.1883   11.4101  -31.7874 C   0  0  0  0  0  0  0  0  0  0  0  0
   -4.4161   12.3371  -29.6942 C   0  0  0  0  0  0  0  0  0  0  0  0
   -4.3103   12.2323  -31.0811 C   0  0  0  0  0  0  0  0  0  0  0  0
   -6.1722   10.6929  -31.1067 C   0  0  0  0  0  0  0  0  0  0  0  0
   -6.2780   10.7978  -29.7199 C   0  0  0  0  0  0  0  0  0  0  0  0
   -5.3999   11.6199  -29.0136 C   0  0  0  0  0  0  0  0  0  0  0  0
   -3.2826   12.9778  -31.7909 C   0  0  0  0  0  0  0  0  0  0  0  0
   -6.8005    9.0165  -34.0270 C   0  0  0  0  0  0  0  0  0  0  0  0
   -3.9311   15.3073  -31.0716 C   0  0  0  0  0  0  0  0  0  0  0  0
   -6.4393    8.8358  -32.5681 C   0  0  0  0  0  0  0  0  0  0  0  0
   -2.7803   14.3311  -31.2510 C   0  0  1  0  0  0  0  0  0  0  0  0
   -2.1168   14.0741  -29.9971 N   0  0  0  0  0  0  0  0  0  0  0  0
   -2.7817   12.5175  -32.8376 O   0  0  0  0  0  0  0  0  0  0  0  0
   -7.2464   10.0876  -29.0720 O   0  0  0  0  0  0  0  0  0  0  0  0
   -7.0223    9.8942  -31.8106 O   0  0  0  0  0  0  0  0  0  0  0  0
   -5.5110   11.7853  -27.1282 Br  0  0  0  0  0  0  0  0  0  0  0  0
   -5.1087   11.3250  -32.8688 H   0  0  0  0  0  0  0  0  0  0  0  0
   -3.7268   12.9795  -29.1502 H   0  0  0  0  0  0  0  0  0  0  0  0
   -7.8847    8.9894  -34.1668 H   0  0  0  0  0  0  0  0  0  0  0  0
   -6.4191    9.9713  -34.4037 H   0  0  0  0  0  0  0  0  0  0  0  0
   -6.3458    8.2292  -34.6374 H   0  0  0  0  0  0  0  0  0  0  0  0
   -4.7022   14.8978  -30.4088 H   0  0  0  0  0  0  0  0  0  0  0  0
   -4.4095   15.5378  -32.0287 H   0  0  0  0  0  0  0  0  0  0  0  0
   -3.5797   16.2456  -30.6291 H   0  0  0  0  0  0  0  0  0  0  0  0
   -5.3536    8.8638  -32.4352 H   0  0  0  0  0  0  0  0  0  0  0  0
   -6.8217    7.8818  -32.1931 H   0  0  0  0  0  0  0  0  0  0  0  0
   -2.0129   14.7416  -31.9122 H   0  0  0  0  0  0  0  0  0  0  0  0
   -1.3749   13.4223  -30.1447 H   0  0  0  0  0  0  0  0  0  0  0  0
   -1.7470   14.9299  -29.6395 H   0  0  0  0  0  0  0  0  0  0  0  0
   -7.7637    9.5720  -29.7092 H   0  0  0  0  0  0  0  0  0  0  0  0
  1  3  1  0  0  0  0
  1  4  2  0  0  0  0
  2  3  2  0  0  0  0
  2  6  1  0  0  0  0
  3  7  1  0  0  0  0
  4  5  1  0  0  0  0
  4 15  1  0  0  0  0
  5  6  2  0  0  0  0
  5 14  1  0  0  0  0
  6 16  1  0  0  0  0
  7 11  1  0  0  0  0
  7 13  2  0  0  0  0
  8 10  1  0  0  0  0
  9 11  1  0  0  0  0
 10 15  1  0  0  0  0
 11 12  1  0  0  0  0
  1 17  1  0  0  0  0
  2 18  1  0  0  0  0
  8 19  1  0  0  0  0
  8 20  1  0  0  0  0
  8 21  1  0  0  0  0
  9 22  1  0  0  0  0
  9 23  1  0  0  0  0
  9 24  1  0  0  0  0
 10 25  1  0  0  0  0
 10 26  1  0  0  0  0
 11 27  1  0  0  0  0
 12 28  1  0  0  0  0
 12 29  1  0  0  0  0
 14 30  1  0  0  0  0
M  END
> <id>
EN300-1920218

> <smiles>
CCOC=1C=C(C=C(Br)C1O)C(=O)C(C)N

> <IUPAC Name>
2-amino-1-(3-bromo-5-ethoxy-4-hydroxyphenyl)propan-1-one

> <CAS>
2229593-30-8

> <URL>
https://www.enaminestore.com/catalog/EN300-1920218

> <ROCS_ShapeQuery>
_x1604L0AP1_x0771L0AP1

> <ROCS_TanimotoCombo>
0.887 

> <ROCS_ShapeTanimoto>
0.642 

> <ROCS_ColorTanimoto>
0.245 

> <ROCS_RefTversky>
0.559 

> <ROCS_RefColorTversky>
0.337 

> <ROCS_RefTverskyCombo>
0.896 

> <ROCS_FitTversky>
1.300 

> <ROCS_FitColorTversky>
0.474 

> <ROCS_FitTverskyCombo>
1.774 

> <ROCS_ColorScore>
-3.883

> <ROCS_Overlap>
951.325

> <ROCS_Rank>
406                 

$$$$
untitled-dbase-1071_1
  -OEChem-06042309053D

 19 19  0     0  0  0  0  0  0999 V2000
   -4.3247   12.1929  -31.1903 C   0  0  0  0  0  0  0  0  0  0  0  0
   -4.9745   11.1263  -31.8111 C   0  0  0  0  0  0  0  0  0  0  0  0
   -4.6482   12.5383  -29.8781 C   0  0  0  0  0  0  0  0  0  0  0  0
   -5.9480   10.4050  -31.1199 C   0  0  0  0  0  0  0  0  0  0  0  0
   -6.2716   10.7504  -29.8077 C   0  0  0  0  0  0  0  0  0  0  0  0
   -5.6216   11.8171  -29.1869 C   0  0  0  0  0  0  0  0  0  0  0  0
   -6.6094    9.2958  -31.7948 C   0  0  0  0  0  0  0  0  0  0  0  0
   -6.0626    8.5364  -32.7661 C   0  0  0  0  0  0  0  0  0  0  0  0
   -6.8597    7.4484  -33.3677 C   0  0  0  0  0  0  0  0  0  0  0  0
   -6.4106    6.7299  -34.2525 O   0  0  0  0  0  0  0  0  0  0  0  0
   -7.2264   10.0411  -29.1362 O   0  0  0  0  0  0  0  0  0  0  0  0
   -6.0301   12.3177  -27.4042 Br  0  0  0  0  0  0  0  0  0  0  0  0
   -3.5666   12.7550  -31.7275 H   0  0  0  0  0  0  0  0  0  0  0  0
   -4.7097   10.8689  -32.8340 H   0  0  0  0  0  0  0  0  0  0  0  0
   -4.1306   13.3723  -29.4107 H   0  0  0  0  0  0  0  0  0  0  0  0
   -7.6400    9.0889  -31.4872 H   0  0  0  0  0  0  0  0  0  0  0  0
   -5.0589    8.6866  -33.1442 H   0  0  0  0  0  0  0  0  0  0  0  0
   -7.8825    7.3169  -32.9772 H   0  0  0  0  0  0  0  0  0  0  0  0
   -7.3378   10.3986  -28.2427 H   0  0  0  0  0  0  0  0  0  0  0  0
  1  2  1  0  0  0  0
  1  3  2  0  0  0  0
  2  4  2  0  0  0  0
  3  6  1  0  0  0  0
  4  5  1  0  0  0  0
  4  7  1  0  0  0  0
  5  6  2  0  0  0  0
  5 11  1  0  0  0  0
  6 12  1  0  0  0  0
  7  8  2  3  0  0  0
  8  9  1  0  0  0  0
  9 10  2  0  0  0  0
  1 13  1  0  0  0  0
  2 14  1  0  0  0  0
  3 15  1  0  0  0  0
  7 16  1  0  0  0  0
  8 17  1  0  0  0  0
  9 18  1  0  0  0  0
 11 19  1  0  0  0  0
M  END
> <id>
EN300-1923159

> <smiles>
OC=1C(Br)=CC=CC1C=CC=O

> <IUPAC Name>
3-(3-bromo-2-hydroxyphenyl)prop-2-enal

> <CAS>
1606147-48-1

> <URL>
https://www.enaminestore.com/catalog/EN300-1923159

> <ROCS_ShapeQuery>
_x1604L0AP1_x0771L0AP1

> <ROCS_TanimotoCombo>
0.887 

> <ROCS_ShapeTanimoto>
0.491 

> <ROCS_ColorTanimoto>
0.396 

> <ROCS_RefTversky>
0.439 

> <ROCS_RefColorTversky>
0.417 

> <ROCS_RefTverskyCombo>
0.856 

> <ROCS_FitTversky>
1.314 

> <ROCS_FitColorTversky>
0.889 

> <ROCS_FitTverskyCombo>
2.203 

> <ROCS_ColorScore>
-4.740

> <ROCS_Overlap>
743.622

> <ROCS_Rank>
407                 

$$$$
untitled-dbase-1947_305
  -OEChem-06042309053D

 31 32  0     0  0  0  0  0  0999 V2000
   -6.2951   10.9006  -33.2766 C   0  0  0  0  0  0  0  0  0  0  0  0
   -5.5425   11.4743  -32.2519 C   0  0  0  0  0  0  0  0  0  0  0  0
   -7.3482   10.0388  -32.9700 C   0  0  0  0  0  0  0  0  0  0  0  0
   -5.8429   11.1861  -30.9206 C   0  0  0  0  0  0  0  0  0  0  0  0
   -6.8960   10.3242  -30.6140 C   0  0  0  0  0  0  0  0  0  0  0  0
   -7.6487    9.7506  -31.6387 C   0  0  0  0  0  0  0  0  0  0  0  0
   -7.9193    8.0355  -36.2731 C   0  0  0  0  0  0  0  0  0  0  0  0
   -7.0615    9.2540  -36.4612 C   0  0  0  0  0  0  0  0  0  0  0  0
   -7.2609    8.6823  -35.0769 C   0  0  0  0  0  0  0  0  0  0  0  0
   -4.0413   12.6228  -30.3327 C   0  0  0  0  0  0  0  0  0  0  0  0
   -8.1336    9.4446  -34.1182 C   0  0  0  0  0  0  0  0  0  0  0  0
   -6.1037    7.9669  -34.4361 C   0  0  0  0  0  0  0  0  0  0  0  0
   -7.1706   10.0580  -29.3039 O   0  0  0  0  0  0  0  0  0  0  0  0
   -6.3783    6.5714  -34.3897 O   0  0  0  0  0  0  0  0  0  0  0  0
   -5.0987   11.7543  -29.9309 O   0  0  0  0  0  0  0  0  0  0  0  0
   -9.0897    8.5828  -31.2112 Br  0  0  0  0  0  0  0  0  0  0  0  0
   -6.0526   11.1324  -34.3104 H   0  0  0  0  0  0  0  0  0  0  0  0
   -4.7243   12.1457  -32.4977 H   0  0  0  0  0  0  0  0  0  0  0  0
   -8.9892    8.1491  -36.4013 H   0  0  0  0  0  0  0  0  0  0  0  0
   -7.5324    7.0881  -36.6296 H   0  0  0  0  0  0  0  0  0  0  0  0
   -6.1001    9.1226  -36.9436 H   0  0  0  0  0  0  0  0  0  0  0  0
   -7.5570   10.1835  -36.7154 H   0  0  0  0  0  0  0  0  0  0  0  0
   -3.5285   13.0075  -29.4477 H   0  0  0  0  0  0  0  0  0  0  0  0
   -4.4506   13.4501  -30.9180 H   0  0  0  0  0  0  0  0  0  0  0  0
   -3.3330   12.0606  -30.9458 H   0  0  0  0  0  0  0  0  0  0  0  0
   -8.9234    8.7920  -33.7106 H   0  0  0  0  0  0  0  0  0  0  0  0
   -8.6689   10.2543  -34.6414 H   0  0  0  0  0  0  0  0  0  0  0  0
   -5.9410    8.3215  -33.4102 H   0  0  0  0  0  0  0  0  0  0  0  0
   -5.1803    8.1187  -35.0097 H   0  0  0  0  0  0  0  0  0  0  0  0
   -6.5535   10.5376  -28.7306 H   0  0  0  0  0  0  0  0  0  0  0  0
   -7.1861    6.4640  -33.8629 H   0  0  0  0  0  0  0  0  0  0  0  0
  1  2  1  0  0  0  0
  1  3  2  0  0  0  0
  2  4  2  0  0  0  0
  3  6  1  0  0  0  0
  3 11  1  0  0  0  0
  4  5  1  0  0  0  0
  4 15  1  0  0  0  0
  5  6  2  0  0  0  0
  5 13  1  0  0  0  0
  6 16  1  0  0  0  0
  7  8  1  0  0  0  0
  7  9  1  0  0  0  0
  8  9  1  0  0  0  0
  9 11  1  0  0  0  0
  9 12  1  0  0  0  0
 10 15  1  0  0  0  0
 12 14  1  0  0  0  0
  1 17  1  0  0  0  0
  2 18  1  0  0  0  0
  7 19  1  0  0  0  0
  7 20  1  0  0  0  0
  8 21  1  0  0  0  0
  8 22  1  0  0  0  0
 10 23  1  0  0  0  0
 10 24  1  0  0  0  0
 10 25  1  0  0  0  0
 11 26  1  0  0  0  0
 11 27  1  0  0  0  0
 12 28  1  0  0  0  0
 12 29  1  0  0  0  0
 13 30  1  0  0  0  0
 14 31  1  0  0  0  0
M  END
> <id>
EN300-1936266

> <smiles>
COC=1C=CC(CC2(CO)CC2)=C(Br)C1O

> <IUPAC Name>
2-bromo-3-{[1-(hydroxymethyl)cyclopropyl]methyl}-6-methoxyphenol

> <CAS>
2228438-36-4

> <URL>
https://www.enaminestore.com/catalog/EN300-1936266

> <ROCS_ShapeQuery>
_x1604L0AP1_x0771L0AP1

> <ROCS_TanimotoCombo>
0.887 

> <ROCS_ShapeTanimoto>
0.496 

> <ROCS_ColorTanimoto>
0.391 

> <ROCS_RefTversky>
0.475 

> <ROCS_RefColorTversky>
0.459 

> <ROCS_RefTverskyCombo>
0.934 

> <ROCS_FitTversky>
1.095 

> <ROCS_FitColorTversky>
0.727 

> <ROCS_FitTverskyCombo>
1.822 

> <ROCS_ColorScore>
-5.259

> <ROCS_Overlap>
808.980

> <ROCS_Rank>
408                 

$$$$
untitled-dbase-117_6
  -OEChem-06042309053D

 15 15  0     0  0  0  0  0  0999 V2000
   -4.8127   12.6448  -29.5817 C   0  0  0  0  0  0  0  0  0  0  0  0
   -4.9713   11.2536  -31.5505 C   0  0  0  0  0  0  0  0  0  0  0  0
   -5.8178   11.8949  -28.9709 C   0  0  0  0  0  0  0  0  0  0  0  0
   -6.3996   10.8243  -29.6498 C   0  0  0  0  0  0  0  0  0  0  0  0
   -4.3895   12.3242  -30.8716 C   0  0  0  0  0  0  0  0  0  0  0  0
   -5.9763   10.5036  -30.9397 C   0  0  0  0  0  0  0  0  0  0  0  0
   -6.2403   12.2492  -27.6224 C   0  0  0  0  0  0  0  0  0  0  0  0
   -5.4744   12.2467  -26.6565 O   0  0  0  0  0  0  0  0  0  0  0  0
   -7.3815   10.0976  -29.0406 O   0  0  0  0  0  0  0  0  0  0  0  0
   -3.4243   13.0445  -31.4580 F   0  0  0  0  0  0  0  0  0  0  0  0
   -6.7396    9.0546  -31.8949 Br  0  0  0  0  0  0  0  0  0  0  0  0
   -4.3505   13.4807  -29.0629 H   0  0  0  0  0  0  0  0  0  0  0  0
   -4.6285   11.0189  -32.5549 H   0  0  0  0  0  0  0  0  0  0  0  0
   -7.3052   12.5309  -27.4802 H   0  0  0  0  0  0  0  0  0  0  0  0
   -7.5541   10.4495  -28.1543 H   0  0  0  0  0  0  0  0  0  0  0  0
  1  3  2  0  0  0  0
  1  5  1  0  0  0  0
  2  5  2  0  0  0  0
  2  6  1  0  0  0  0
  3  4  1  0  0  0  0
  3  7  1  0  0  0  0
  4  6  2  0  0  0  0
  4  9  1  0  0  0  0
  5 10  1  0  0  0  0
  6 11  1  0  0  0  0
  7  8  2  0  0  0  0
  1 12  1  0  0  0  0
  2 13  1  0  0  0  0
  7 14  1  0  0  0  0
  9 15  1  0  0  0  0
M  END
> <id>
EN300-177154

> <smiles>
OC=1C(Br)=CC(F)=CC1C=O

> <MDLNUMBER>
MFCD08458073

> <IUPAC Name>
3-bromo-5-fluoro-2-hydroxybenzaldehyde

> <CAS>
178546-34-4

> <Purity>
95

> <URL>
https://www.enaminestore.com/catalog/EN300-177154

> <ROCS_ShapeQuery>
_x1604L0AP1_x0771L0AP1

> <ROCS_TanimotoCombo>
0.887 

> <ROCS_ShapeTanimoto>
0.456 

> <ROCS_ColorTanimoto>
0.431 

> <ROCS_RefTversky>
0.412 

> <ROCS_RefColorTversky>
0.443 

> <ROCS_RefTverskyCombo>
0.855 

> <ROCS_FitTversky>
1.305 

> <ROCS_FitColorTversky>
0.943 

> <ROCS_FitTverskyCombo>
2.248 

> <ROCS_ColorScore>
-5.031

> <ROCS_Overlap>
696.695

> <ROCS_Rank>
409                 

$$$$
untitled-dbase-1638_3762
  -OEChem-06042309053D

 28 28  0     1  0  0  0  0  0999 V2000
   -3.2634   14.9247  -30.3495 C   0  0  0  0  0  0  0  0  0  0  0  0
   -5.1091   11.3063  -31.7789 C   0  0  0  0  0  0  0  0  0  0  0  0
   -4.4001   12.3182  -29.7028 C   0  0  0  0  0  0  0  0  0  0  0  0
   -4.2522   12.1568  -31.0804 C   0  0  0  0  0  0  0  0  0  0  0  0
   -6.1140   10.6172  -31.0999 C   0  0  0  0  0  0  0  0  0  0  0  0
   -6.2620   10.7787  -29.7223 C   0  0  0  0  0  0  0  0  0  0  0  0
   -5.4050   11.6291  -29.0237 C   0  0  0  0  0  0  0  0  0  0  0  0
   -7.2282    9.5612  -34.1620 C   0  0  0  0  0  0  0  0  0  0  0  0
   -3.3585   14.4228  -31.7301 C   0  0  0  0  0  0  0  0  0  0  0  0
   -6.4044    9.1602  -32.9569 C   0  0  0  0  0  0  0  0  0  0  0  0
   -3.1774   12.8925  -31.8066 C   0  0  2  0  0  0  0  0  0  0  0  0
   -3.1894   15.3211  -29.2615 N   0  0  0  0  0  0  0  0  0  0  0  0
   -7.2503   10.0953  -29.0758 O   0  0  0  0  0  0  0  0  0  0  0  0
   -3.1812   12.4823  -33.1818 O   0  0  0  0  0  0  0  0  0  0  0  0
   -6.9428    9.7897  -31.7959 O   0  0  0  0  0  0  0  0  0  0  0  0
   -5.5751   11.8740  -27.1515 Br  0  0  0  0  0  0  0  0  0  0  0  0
   -4.9956   11.1785  -32.8528 H   0  0  0  0  0  0  0  0  0  0  0  0
   -3.7267   12.9834  -29.1667 H   0  0  0  0  0  0  0  0  0  0  0  0
   -8.2690    9.2466  -34.0454 H   0  0  0  0  0  0  0  0  0  0  0  0
   -7.2007   10.6465  -34.3045 H   0  0  0  0  0  0  0  0  0  0  0  0
   -6.8228    9.1102  -35.0738 H   0  0  0  0  0  0  0  0  0  0  0  0
   -4.3405   14.6998  -32.1329 H   0  0  0  0  0  0  0  0  0  0  0  0
   -2.5988   14.9259  -32.3406 H   0  0  0  0  0  0  0  0  0  0  0  0
   -5.3647    9.4777  -33.0799 H   0  0  0  0  0  0  0  0  0  0  0  0
   -6.4336    8.0757  -32.8155 H   0  0  0  0  0  0  0  0  0  0  0  0
   -2.1837   12.6177  -31.4097 H   0  0  0  0  0  0  0  0  0  0  0  0
   -7.7484    9.5538  -29.7068 H   0  0  0  0  0  0  0  0  0  0  0  0
   -2.4729   12.9818  -33.6107 H   0  0  0  0  0  0  0  0  0  0  0  0
  1  9  1  0  0  0  0
  1 12  3  0  0  0  0
  2  4  1  0  0  0  0
  2  5  2  0  0  0  0
  3  4  2  0  0  0  0
  3  7  1  0  0  0  0
  4 11  1  0  0  0  0
  5  6  1  0  0  0  0
  5 15  1  0  0  0  0
  6  7  2  0  0  0  0
  6 13  1  0  0  0  0
  7 16  1  0  0  0  0
  8 10  1  0  0  0  0
  9 11  1  0  0  0  0
 10 15  1  0  0  0  0
 11 14  1  0  0  0  0
  2 17  1  0  0  0  0
  3 18  1  0  0  0  0
  8 19  1  0  0  0  0
  8 20  1  0  0  0  0
  8 21  1  0  0  0  0
  9 22  1  0  0  0  0
  9 23  1  0  0  0  0
 10 24  1  0  0  0  0
 10 25  1  0  0  0  0
 11 26  1  0  0  0  0
 13 27  1  0  0  0  0
 14 28  1  0  0  0  0
M  END
> <id>
EN300-1920272

> <smiles>
CCOC=1C=C(C=C(Br)C1O)C(O)CC#N

> <IUPAC Name>
3-(3-bromo-5-ethoxy-4-hydroxyphenyl)-3-hydroxypropanenitrile

> <CAS>
2228720-68-9

> <URL>
https://www.enaminestore.com/catalog/EN300-1920272

> <ROCS_ShapeQuery>
_x1604L0AP1_x0771L0AP1

> <ROCS_TanimotoCombo>
0.887 

> <ROCS_ShapeTanimoto>
0.642 

> <ROCS_ColorTanimoto>
0.245 

> <ROCS_RefTversky>
0.558 

> <ROCS_RefColorTversky>
0.337 

> <ROCS_RefTverskyCombo>
0.895 

> <ROCS_FitTversky>
1.305 

> <ROCS_FitColorTversky>
0.474 

> <ROCS_FitTverskyCombo>
1.779 

> <ROCS_ColorScore>
-3.883

> <ROCS_Overlap>
949.200

> <ROCS_Rank>
410                 

$$$$
untitled-dbase-975_20
  -OEChem-06042309053D

 27 27  0     1  0  0  0  0  0999 V2000
   -6.2465   10.8205  -33.1280 C   0  0  0  0  0  0  0  0  0  0  0  0
   -5.9839   11.8018  -32.1721 C   0  0  0  0  0  0  0  0  0  0  0  0
   -6.8285    9.6119  -32.7453 C   0  0  0  0  0  0  0  0  0  0  0  0
   -6.3032   11.5745  -30.8335 C   0  0  0  0  0  0  0  0  0  0  0  0
   -6.8851   10.3659  -30.4507 C   0  0  0  0  0  0  0  0  0  0  0  0
   -7.1477    9.3847  -31.4066 C   0  0  0  0  0  0  0  0  0  0  0  0
   -4.8308    8.2479  -34.9068 C   0  0  0  0  0  0  0  0  0  0  0  0
   -4.7615   12.5080  -29.2818 C   0  0  0  0  0  0  0  0  0  0  0  0
   -7.0905    8.5941  -33.8084 C   0  0  0  0  0  0  0  0  0  0  0  0
   -5.9054    7.6347  -34.0177 C   0  0  1  0  0  0  0  0  0  0  0  0
   -7.1885   10.1674  -29.1350 O   0  0  0  0  0  0  0  0  0  0  0  0
   -6.3628    6.4304  -34.6303 O   0  0  0  0  0  0  0  0  0  0  0  0
   -6.0406   12.5427  -29.9116 O   0  0  0  0  0  0  0  0  0  0  0  0
   -7.9503    7.7420  -30.8769 Br  0  0  0  0  0  0  0  0  0  0  0  0
   -5.9941   11.0083  -34.1684 H   0  0  0  0  0  0  0  0  0  0  0  0
   -5.5315   12.7414  -32.4774 H   0  0  0  0  0  0  0  0  0  0  0  0
   -5.2418    8.5338  -35.8813 H   0  0  0  0  0  0  0  0  0  0  0  0
   -4.3870    9.1327  -34.4405 H   0  0  0  0  0  0  0  0  0  0  0  0
   -4.0359    7.5199  -35.1018 H   0  0  0  0  0  0  0  0  0  0  0  0
   -4.6823   13.3335  -28.5702 H   0  0  0  0  0  0  0  0  0  0  0  0
   -3.9787   12.5902  -30.0401 H   0  0  0  0  0  0  0  0  0  0  0  0
   -4.6527   11.5598  -28.7500 H   0  0  0  0  0  0  0  0  0  0  0  0
   -7.9957    8.0164  -33.5570 H   0  0  0  0  0  0  0  0  0  0  0  0
   -7.3199    9.1102  -34.7553 H   0  0  0  0  0  0  0  0  0  0  0  0
   -5.4583    7.3624  -33.0554 H   0  0  0  0  0  0  0  0  0  0  0  0
   -6.9404   10.9468  -28.6150 H   0  0  0  0  0  0  0  0  0  0  0  0
   -7.0428    6.0649  -34.0441 H   0  0  0  0  0  0  0  0  0  0  0  0
  1  2  1  0  0  0  0
  1  3  2  0  0  0  0
  2  4  2  0  0  0  0
  3  6  1  0  0  0  0
  3  9  1  0  0  0  0
  4  5  1  0  0  0  0
  4 13  1  0  0  0  0
  5  6  2  0  0  0  0
  5 11  1  0  0  0  0
  6 14  1  0  0  0  0
  7 10  1  6  0  0  0
  8 13  1  0  0  0  0
  9 10  1  0  0  0  0
 10 12  1  0  0  0  0
  1 15  1  0  0  0  0
  2 16  1  0  0  0  0
  7 17  1  0  0  0  0
  7 18  1  0  0  0  0
  7 19  1  0  0  0  0
  8 20  1  0  0  0  0
  8 21  1  0  0  0  0
  8 22  1  0  0  0  0
  9 23  1  0  0  0  0
  9 24  1  0  0  0  0
 10 25  1  0  0  0  0
 11 26  1  0  0  0  0
 12 27  1  0  0  0  0
M  END
> <id>
EN300-1935917

> <smiles>
COC=1C=CC(C[C@H](C)O)=C(Br)C1O

> <IUPAC Name>
2-bromo-3-[(2S)-2-hydroxypropyl]-6-methoxyphenol

> <CAS>
2227869-69-2

> <URL>
https://www.enaminestore.com/catalog/EN300-1935917

> <ROCS_ShapeQuery>
_x1604L0AP1_x0771L0AP1

> <ROCS_TanimotoCombo>
0.887 

> <ROCS_ShapeTanimoto>
0.491 

> <ROCS_ColorTanimoto>
0.396 

> <ROCS_RefTversky>
0.454 

> <ROCS_RefColorTversky>
0.463 

> <ROCS_RefTverskyCombo>
0.917 

> <ROCS_FitTversky>
1.195 

> <ROCS_FitColorTversky>
0.734 

> <ROCS_FitTverskyCombo>
1.928 

> <ROCS_ColorScore>
-5.308

> <ROCS_Overlap>
770.971

> <ROCS_Rank>
411                 

$$$$
untitled-dbase-1124_20
  -OEChem-06042309053D

 27 27  0     1  0  0  0  0  0999 V2000
   -6.2465   10.8205  -33.1280 C   0  0  0  0  0  0  0  0  0  0  0  0
   -5.9839   11.8018  -32.1721 C   0  0  0  0  0  0  0  0  0  0  0  0
   -6.8285    9.6119  -32.7453 C   0  0  0  0  0  0  0  0  0  0  0  0
   -6.3032   11.5745  -30.8335 C   0  0  0  0  0  0  0  0  0  0  0  0
   -6.8851   10.3659  -30.4507 C   0  0  0  0  0  0  0  0  0  0  0  0
   -7.1477    9.3847  -31.4066 C   0  0  0  0  0  0  0  0  0  0  0  0
   -4.8308    8.2479  -34.9068 C   0  0  0  0  0  0  0  0  0  0  0  0
   -4.7615   12.5080  -29.2818 C   0  0  0  0  0  0  0  0  0  0  0  0
   -7.0905    8.5941  -33.8084 C   0  0  0  0  0  0  0  0  0  0  0  0
   -5.9054    7.6347  -34.0177 C   0  0  1  0  0  0  0  0  0  0  0  0
   -7.1885   10.1674  -29.1350 O   0  0  0  0  0  0  0  0  0  0  0  0
   -6.3628    6.4304  -34.6303 O   0  0  0  0  0  0  0  0  0  0  0  0
   -6.0406   12.5427  -29.9116 O   0  0  0  0  0  0  0  0  0  0  0  0
   -7.9503    7.7420  -30.8769 Br  0  0  0  0  0  0  0  0  0  0  0  0
   -5.9941   11.0083  -34.1684 H   0  0  0  0  0  0  0  0  0  0  0  0
   -5.5315   12.7414  -32.4774 H   0  0  0  0  0  0  0  0  0  0  0  0
   -5.2418    8.5338  -35.8813 H   0  0  0  0  0  0  0  0  0  0  0  0
   -4.3870    9.1327  -34.4405 H   0  0  0  0  0  0  0  0  0  0  0  0
   -4.0359    7.5199  -35.1018 H   0  0  0  0  0  0  0  0  0  0  0  0
   -4.6823   13.3335  -28.5702 H   0  0  0  0  0  0  0  0  0  0  0  0
   -3.9787   12.5902  -30.0401 H   0  0  0  0  0  0  0  0  0  0  0  0
   -4.6527   11.5598  -28.7500 H   0  0  0  0  0  0  0  0  0  0  0  0
   -7.9957    8.0164  -33.5570 H   0  0  0  0  0  0  0  0  0  0  0  0
   -7.3199    9.1102  -34.7553 H   0  0  0  0  0  0  0  0  0  0  0  0
   -5.4583    7.3624  -33.0554 H   0  0  0  0  0  0  0  0  0  0  0  0
   -6.9404   10.9468  -28.6150 H   0  0  0  0  0  0  0  0  0  0  0  0
   -7.0428    6.0649  -34.0441 H   0  0  0  0  0  0  0  0  0  0  0  0
  1  2  1  0  0  0  0
  1  3  2  0  0  0  0
  2  4  2  0  0  0  0
  3  6  1  0  0  0  0
  3  9  1  0  0  0  0
  4  5  1  0  0  0  0
  4 13  1  0  0  0  0
  5  6  2  0  0  0  0
  5 11  1  0  0  0  0
  6 14  1  0  0  0  0
  7 10  1  0  0  0  0
  8 13  1  0  0  0  0
  9 10  1  0  0  0  0
 10 12  1  0  0  0  0
  1 15  1  0  0  0  0
  2 16  1  0  0  0  0
  7 17  1  0  0  0  0
  7 18  1  0  0  0  0
  7 19  1  0  0  0  0
  8 20  1  0  0  0  0
  8 21  1  0  0  0  0
  8 22  1  0  0  0  0
  9 23  1  0  0  0  0
  9 24  1  0  0  0  0
 10 25  1  0  0  0  0
 11 26  1  0  0  0  0
 12 27  1  0  0  0  0
M  END
> <id>
EN300-1935617

> <smiles>
COC=1C=CC(CC(C)O)=C(Br)C1O

> <IUPAC Name>
2-bromo-3-(2-hydroxypropyl)-6-methoxyphenol

> <CAS>
2229586-79-0

> <URL>
https://www.enaminestore.com/catalog/EN300-1935617

> <ROCS_ShapeQuery>
_x1604L0AP1_x0771L0AP1

> <ROCS_TanimotoCombo>
0.887 

> <ROCS_ShapeTanimoto>
0.491 

> <ROCS_ColorTanimoto>
0.396 

> <ROCS_RefTversky>
0.454 

> <ROCS_RefColorTversky>
0.463 

> <ROCS_RefTverskyCombo>
0.917 

> <ROCS_FitTversky>
1.195 

> <ROCS_FitColorTversky>
0.734 

> <ROCS_FitTverskyCombo>
1.928 

> <ROCS_ColorScore>
-5.308

> <ROCS_Overlap>
770.971

> <ROCS_Rank>
412                 

$$$$
untitled-dbase-286_18
  -OEChem-06042309053D

 27 27  0     0  0  0  0  0  0999 V2000
   -4.2669   12.3015  -31.0371 C   0  0  0  0  0  0  0  0  0  0  0  0
   -4.9426   11.3008  -31.7354 C   0  0  0  0  0  0  0  0  0  0  0  0
   -4.5821   12.5549  -29.7021 C   0  0  0  0  0  0  0  0  0  0  0  0
   -5.9334   10.5534  -31.0987 C   0  0  0  0  0  0  0  0  0  0  0  0
   -6.2486   10.8068  -29.7637 C   0  0  0  0  0  0  0  0  0  0  0  0
   -5.5729   11.8076  -29.0654 C   0  0  0  0  0  0  0  0  0  0  0  0
   -6.5106    8.0370  -31.2855 C   0  0  0  0  0  0  0  0  0  0  0  0
   -8.1833    9.7674  -31.8821 C   0  0  0  0  0  0  0  0  0  0  0  0
   -6.1869    9.4174  -33.3665 C   0  0  0  0  0  0  0  0  0  0  0  0
   -6.6672    9.4544  -31.8890 C   0  0  0  0  0  0  0  0  0  0  0  0
   -6.7947   10.4207  -34.2024 N   0  0  0  0  0  0  0  0  0  0  0  0
   -7.2216   10.0683  -29.1551 O   0  0  0  0  0  0  0  0  0  0  0  0
   -5.9713   12.1818  -27.2502 Br  0  0  0  0  0  0  0  0  0  0  0  0
   -3.4951   12.8832  -31.5326 H   0  0  0  0  0  0  0  0  0  0  0  0
   -4.6890   11.1084  -32.7745 H   0  0  0  0  0  0  0  0  0  0  0  0
   -4.0445   13.3385  -29.1741 H   0  0  0  0  0  0  0  0  0  0  0  0
   -7.0426    7.2771  -31.8681 H   0  0  0  0  0  0  0  0  0  0  0  0
   -5.4568    7.7386  -31.2323 H   0  0  0  0  0  0  0  0  0  0  0  0
   -6.9070    7.9981  -30.2638 H   0  0  0  0  0  0  0  0  0  0  0  0
   -8.7635    9.0176  -32.4313 H   0  0  0  0  0  0  0  0  0  0  0  0
   -8.3886   10.7419  -32.3412 H   0  0  0  0  0  0  0  0  0  0  0  0
   -8.5769    9.7912  -30.8590 H   0  0  0  0  0  0  0  0  0  0  0  0
   -5.1030    9.5694  -33.4274 H   0  0  0  0  0  0  0  0  0  0  0  0
   -6.3992    8.4501  -33.8349 H   0  0  0  0  0  0  0  0  0  0  0  0
   -6.5426   11.3273  -33.8672 H   0  0  0  0  0  0  0  0  0  0  0  0
   -6.4719   10.3081  -35.1410 H   0  0  0  0  0  0  0  0  0  0  0  0
   -7.3303   10.3545  -28.2355 H   0  0  0  0  0  0  0  0  0  0  0  0
  1  2  1  0  0  0  0
  1  3  2  0  0  0  0
  2  4  2  0  0  0  0
  3  6  1  0  0  0  0
  4  5  1  0  0  0  0
  4 10  1  0  0  0  0
  5  6  2  0  0  0  0
  5 12  1  0  0  0  0
  6 13  1  0  0  0  0
  7 10  1  0  0  0  0
  8 10  1  0  0  0  0
  9 10  1  0  0  0  0
  9 11  1  0  0  0  0
  1 14  1  0  0  0  0
  2 15  1  0  0  0  0
  3 16  1  0  0  0  0
  7 17  1  0  0  0  0
  7 18  1  0  0  0  0
  7 19  1  0  0  0  0
  8 20  1  0  0  0  0
  8 21  1  0  0  0  0
  8 22  1  0  0  0  0
  9 23  1  0  0  0  0
  9 24  1  0  0  0  0
 11 25  1  0  0  0  0
 11 26  1  0  0  0  0
 12 27  1  0  0  0  0
M  END
> <id>
EN300-1897626

> <smiles>
CC(C)(CN)C=1C=CC=C(Br)C1O

> <MDLNUMBER>
MFCD26654546

> <IUPAC Name>
2-(1-amino-2-methylpropan-2-yl)-6-bromophenol

> <CAS>
1516212-79-5

> <URL>
https://www.enaminestore.com/catalog/EN300-1897626

> <ROCS_ShapeQuery>
_x1604L0AP1_x0771L0AP1

> <ROCS_TanimotoCombo>
0.887 

> <ROCS_ShapeTanimoto>
0.542 

> <ROCS_ColorTanimoto>
0.345 

> <ROCS_RefTversky>
0.476 

> <ROCS_RefColorTversky>
0.418 

> <ROCS_RefTverskyCombo>
0.895 

> <ROCS_FitTversky>
1.340 

> <ROCS_FitColorTversky>
0.663 

> <ROCS_FitTverskyCombo>
2.003 

> <ROCS_ColorScore>
-4.797

> <ROCS_Overlap>
807.546

> <ROCS_Rank>
413                 

$$$$
untitled-dbase-239_12
  -OEChem-06042309053D

 27 27  0     1  0  0  0  0  0999 V2000
   -4.2997   12.2881  -31.0712 C   0  0  0  0  0  0  0  0  0  0  0  0
   -5.1306   11.4490  -31.8136 C   0  0  0  0  0  0  0  0  0  0  0  0
   -4.4475   12.3687  -29.6865 C   0  0  0  0  0  0  0  0  0  0  0  0
   -6.1094   10.6906  -31.1713 C   0  0  0  0  0  0  0  0  0  0  0  0
   -6.2572   10.7713  -29.7866 C   0  0  0  0  0  0  0  0  0  0  0  0
   -5.4263   11.6103  -29.0443 C   0  0  0  0  0  0  0  0  0  0  0  0
   -7.6002    8.6949  -34.9737 C   0  0  0  0  0  0  0  0  0  0  0  0
   -6.9975    9.7909  -31.9933 C   0  0  0  0  0  0  0  0  0  0  0  0
   -6.2299    8.7824  -32.8611 C   0  0  0  0  0  0  0  0  0  0  0  0
   -7.1199    7.9066  -33.7587 C   0  0  2  0  0  0  0  0  0  0  0  0
   -6.4217    6.7197  -34.1928 N   0  0  0  0  0  0  0  0  0  0  0  0
   -7.2205   10.0243  -29.1729 O   0  0  0  0  0  0  0  0  0  0  0  0
   -5.5947   11.7471  -27.1609 Br  0  0  0  0  0  0  0  0  0  0  0  0
   -3.5373   12.8782  -31.5712 H   0  0  0  0  0  0  0  0  0  0  0  0
   -5.0070   11.3904  -32.8917 H   0  0  0  0  0  0  0  0  0  0  0  0
   -3.7904   13.0278  -29.1247 H   0  0  0  0  0  0  0  0  0  0  0  0
   -6.7564    9.0597  -35.5700 H   0  0  0  0  0  0  0  0  0  0  0  0
   -8.2334    8.0758  -35.6175 H   0  0  0  0  0  0  0  0  0  0  0  0
   -8.1850    9.5680  -34.6636 H   0  0  0  0  0  0  0  0  0  0  0  0
   -7.7097    9.2665  -31.3445 H   0  0  0  0  0  0  0  0  0  0  0  0
   -7.6118   10.4248  -32.6464 H   0  0  0  0  0  0  0  0  0  0  0  0
   -5.6198    8.1363  -32.2171 H   0  0  0  0  0  0  0  0  0  0  0  0
   -5.5287    9.3464  -33.4905 H   0  0  0  0  0  0  0  0  0  0  0  0
   -7.9984    7.5666  -33.1999 H   0  0  0  0  0  0  0  0  0  0  0  0
   -6.1536    6.1868  -33.3930 H   0  0  0  0  0  0  0  0  0  0  0  0
   -7.0270    6.1784  -34.7726 H   0  0  0  0  0  0  0  0  0  0  0  0
   -7.2052   10.1824  -28.2168 H   0  0  0  0  0  0  0  0  0  0  0  0
  1  2  1  0  0  0  0
  1  3  2  0  0  0  0
  2  4  2  0  0  0  0
  3  6  1  0  0  0  0
  4  5  1  0  0  0  0
  4  8  1  0  0  0  0
  5  6  2  0  0  0  0
  5 12  1  0  0  0  0
  6 13  1  0  0  0  0
  7 10  1  1  0  0  0
  8  9  1  0  0  0  0
  9 10  1  0  0  0  0
 10 11  1  0  0  0  0
  1 14  1  0  0  0  0
  2 15  1  0  0  0  0
  3 16  1  0  0  0  0
  7 17  1  0  0  0  0
  7 18  1  0  0  0  0
  7 19  1  0  0  0  0
  8 20  1  0  0  0  0
  8 21  1  0  0  0  0
  9 22  1  0  0  0  0
  9 23  1  0  0  0  0
 10 24  1  0  0  0  0
 11 25  1  0  0  0  0
 11 26  1  0  0  0  0
 12 27  1  0  0  0  0
M  END
> <id>
EN300-1911033

> <smiles>
C[C@@H](N)CCC=1C=CC=C(Br)C1O

> <MDLNUMBER>
MFCD21352636

> <IUPAC Name>
2-[(3R)-3-aminobutyl]-6-bromophenol

> <CAS>
1344457-02-8

> <URL>
https://www.enaminestore.com/catalog/EN300-1911033

> <ROCS_ShapeQuery>
_x1604L0AP1_x0771L0AP1

> <ROCS_TanimotoCombo>
0.887 

> <ROCS_ShapeTanimoto>
0.527 

> <ROCS_ColorTanimoto>
0.360 

> <ROCS_RefTversky>
0.467 

> <ROCS_RefColorTversky>
0.410 

> <ROCS_RefTverskyCombo>
0.877 

> <ROCS_FitTversky>
1.326 

> <ROCS_FitColorTversky>
0.745 

> <ROCS_FitTverskyCombo>
2.072 

> <ROCS_ColorScore>
-4.685

> <ROCS_Overlap>
790.537

> <ROCS_Rank>
414                 

$$$$
untitled-dbase-1378_168
  -OEChem-06042309053D

 22 22  0     0  0  0  0  0  0999 V2000
   -4.9904   11.1553  -31.8162 C   0  0  0  0  0  0  0  0  0  0  0  0
   -4.5919   12.4865  -29.8398 C   0  0  0  0  0  0  0  0  0  0  0  0
   -5.9734   10.4377  -31.1347 C   0  0  0  0  0  0  0  0  0  0  0  0
   -6.2656   10.7445  -29.8058 C   0  0  0  0  0  0  0  0  0  0  0  0
   -4.2996   12.1797  -31.1687 C   0  0  0  0  0  0  0  0  0  0  0  0
   -5.5749   11.7689  -29.1583 C   0  0  0  0  0  0  0  0  0  0  0  0
   -6.8604    7.8784  -33.8865 C   0  0  0  0  0  0  0  0  0  0  0  0
   -6.7010    9.3449  -31.8467 C   0  0  0  0  0  0  0  0  0  0  0  0
   -6.0703    8.9593  -33.1891 C   0  0  0  0  0  0  0  0  0  0  0  0
   -6.4042    6.7793  -34.1746 O   0  0  0  0  0  0  0  0  0  0  0  0
   -7.2300   10.0332  -29.1525 O   0  0  0  0  0  0  0  0  0  0  0  0
   -8.1254    8.2613  -34.1885 O   0  0  0  0  0  0  0  0  0  0  0  0
   -3.0866   13.0647  -32.0101 Cl  0  0  0  0  0  0  0  0  0  0  0  0
   -5.9435   12.2152  -27.3528 Br  0  0  0  0  0  0  0  0  0  0  0  0
   -4.7658   10.9132  -32.8529 H   0  0  0  0  0  0  0  0  0  0  0  0
   -4.0505   13.2857  -29.3384 H   0  0  0  0  0  0  0  0  0  0  0  0
   -6.7757    8.4504  -31.2062 H   0  0  0  0  0  0  0  0  0  0  0  0
   -7.7420    9.6601  -32.0250 H   0  0  0  0  0  0  0  0  0  0  0  0
   -6.0548    9.8246  -33.8632 H   0  0  0  0  0  0  0  0  0  0  0  0
   -5.0248    8.6513  -33.0753 H   0  0  0  0  0  0  0  0  0  0  0  0
   -7.6073    9.3639  -29.7433 H   0  0  0  0  0  0  0  0  0  0  0  0
   -8.6662    7.5931  -34.6612 H   0  0  0  0  0  0  0  0  0  0  0  0
  1  3  2  0  0  0  0
  1  5  1  0  0  0  0
  2  5  2  0  0  0  0
  2  6  1  0  0  0  0
  3  4  1  0  0  0  0
  3  8  1  0  0  0  0
  4  6  2  0  0  0  0
  4 11  1  0  0  0  0
  5 13  1  0  0  0  0
  6 14  1  0  0  0  0
  7  9  1  0  0  0  0
  7 10  2  0  0  0  0
  7 12  1  0  0  0  0
  8  9  1  0  0  0  0
  1 15  1  0  0  0  0
  2 16  1  0  0  0  0
  8 17  1  0  0  0  0
  8 18  1  0  0  0  0
  9 19  1  0  0  0  0
  9 20  1  0  0  0  0
 11 21  1  0  0  0  0
 12 22  1  0  0  0  0
M  END
> <id>
EN300-1910487

> <smiles>
OC(=O)CCC=1C=C(Cl)C=C(Br)C1O

> <MDLNUMBER>
MFCD09715631

> <IUPAC Name>
3-(3-bromo-5-chloro-2-hydroxyphenyl)propanoic acid

> <CAS>
938349-76-9

> <URL>
https://www.enaminestore.com/catalog/EN300-1910487

> <ROCS_ShapeQuery>
_x1604L0AP1_x0771L0AP1

> <ROCS_TanimotoCombo>
0.887 

> <ROCS_ShapeTanimoto>
0.554 

> <ROCS_ColorTanimoto>
0.333 

> <ROCS_RefTversky>
0.491 

> <ROCS_RefColorTversky>
0.407 

> <ROCS_RefTverskyCombo>
0.898 

> <ROCS_FitTversky>
1.302 

> <ROCS_FitColorTversky>
0.645 

> <ROCS_FitTverskyCombo>
1.947 

> <ROCS_ColorScore>
-4.671

> <ROCS_Overlap>
833.141

> <ROCS_Rank>
415                 

$$$$
untitled-dbase-1224_197
  -OEChem-06042309053D

 28 28  0     0  0  0  0  0  0999 V2000
   -4.5719   12.4587  -29.7984 C   0  0  0  0  0  0  0  0  0  0  0  0
   -5.0360   11.1330  -31.7641 C   0  0  0  0  0  0  0  0  0  0  0  0
   -4.3082   12.1403  -31.1305 C   0  0  0  0  0  0  0  0  0  0  0  0
   -5.5633   11.7697  -29.0997 C   0  0  0  0  0  0  0  0  0  0  0  0
   -6.2911   10.7625  -29.7332 C   0  0  0  0  0  0  0  0  0  0  0  0
   -6.0275   10.4441  -31.0654 C   0  0  0  0  0  0  0  0  0  0  0  0
   -3.0747   14.3295  -31.3788 C   0  0  0  0  0  0  0  0  0  0  0  0
   -1.8095   12.2841  -31.7894 C   0  0  0  0  0  0  0  0  0  0  0  0
   -3.5901   12.9642  -33.3934 C   0  0  0  0  0  0  0  0  0  0  0  0
   -5.0675   11.3890  -26.8051 C   0  0  0  0  0  0  0  0  0  0  0  0
   -3.2192   12.8983  -31.8983 C   0  0  0  0  0  0  0  0  0  0  0  0
   -3.7413   14.8117  -30.4673 O   0  0  0  0  0  0  0  0  0  0  0  0
   -7.2576   10.1007  -29.0334 O   0  0  0  0  0  0  0  0  0  0  0  0
   -5.8097   12.0925  -27.7992 O   0  0  0  0  0  0  0  0  0  0  0  0
   -6.9956    9.0816  -31.9601 Br  0  0  0  0  0  0  0  0  0  0  0  0
   -4.0061   13.2437  -29.3023 H   0  0  0  0  0  0  0  0  0  0  0  0
   -4.8233   10.8922  -32.8034 H   0  0  0  0  0  0  0  0  0  0  0  0
   -2.2608   14.9217  -31.8346 H   0  0  0  0  0  0  0  0  0  0  0  0
   -1.0706   12.8631  -32.3551 H   0  0  0  0  0  0  0  0  0  0  0  0
   -1.4699   12.2514  -30.7467 H   0  0  0  0  0  0  0  0  0  0  0  0
   -1.7914   11.2512  -32.1577 H   0  0  0  0  0  0  0  0  0  0  0  0
   -2.8272   13.5020  -33.9681 H   0  0  0  0  0  0  0  0  0  0  0  0
   -3.7001   11.9671  -33.8349 H   0  0  0  0  0  0  0  0  0  0  0  0
   -4.5469   13.4784  -33.5445 H   0  0  0  0  0  0  0  0  0  0  0  0
   -5.3600   11.7420  -25.8132 H   0  0  0  0  0  0  0  0  0  0  0  0
   -3.9987   11.5544  -26.9620 H   0  0  0  0  0  0  0  0  0  0  0  0
   -5.2851   10.3215  -26.8882 H   0  0  0  0  0  0  0  0  0  0  0  0
   -7.3090   10.4457  -28.1290 H   0  0  0  0  0  0  0  0  0  0  0  0
  1  3  1  0  0  0  0
  1  4  2  0  0  0  0
  2  3  2  0  0  0  0
  2  6  1  0  0  0  0
  3 11  1  0  0  0  0
  4  5  1  0  0  0  0
  4 14  1  0  0  0  0
  5  6  2  0  0  0  0
  5 13  1  0  0  0  0
  6 15  1  0  0  0  0
  7 11  1  0  0  0  0
  7 12  2  0  0  0  0
  8 11  1  0  0  0  0
  9 11  1  0  0  0  0
 10 14  1  0  0  0  0
  1 16  1  0  0  0  0
  2 17  1  0  0  0  0
  7 18  1  0  0  0  0
  8 19  1  0  0  0  0
  8 20  1  0  0  0  0
  8 21  1  0  0  0  0
  9 22  1  0  0  0  0
  9 23  1  0  0  0  0
  9 24  1  0  0  0  0
 10 25  1  0  0  0  0
 10 26  1  0  0  0  0
 10 27  1  0  0  0  0
 13 28  1  0  0  0  0
M  END
> <id>
EN300-1926984

> <smiles>
COC=1C=C(C=C(Br)C1O)C(C)(C)C=O

> <IUPAC Name>
2-(3-bromo-4-hydroxy-5-methoxyphenyl)-2-methylpropanal

> <CAS>
2229316-65-6

> <URL>
https://www.enaminestore.com/catalog/EN300-1926984

> <ROCS_ShapeQuery>
_x1604L0AP1_x0771L0AP1

> <ROCS_TanimotoCombo>
0.887 

> <ROCS_ShapeTanimoto>
0.532 

> <ROCS_ColorTanimoto>
0.355 

> <ROCS_RefTversky>
0.489 

> <ROCS_RefColorTversky>
0.427 

> <ROCS_RefTverskyCombo>
0.916 

> <ROCS_FitTversky>
1.200 

> <ROCS_FitColorTversky>
0.677 

> <ROCS_FitTverskyCombo>
1.876 

> <ROCS_ColorScore>
-4.898

> <ROCS_Overlap>
830.594

> <ROCS_Rank>
416                 

$$$$
untitled-dbase-1159_292
  -OEChem-06042309053D

 28 29  0     0  0  0  0  0  0999 V2000
   -4.3496   12.1665  -31.1862 C   0  0  0  0  0  0  0  0  0  0  0  0
   -4.6024   12.4911  -29.8534 C   0  0  0  0  0  0  0  0  0  0  0  0
   -5.0687   11.1427  -31.8031 C   0  0  0  0  0  0  0  0  0  0  0  0
   -5.5741   11.7920  -29.1375 C   0  0  0  0  0  0  0  0  0  0  0  0
   -6.2931   10.7681  -29.7543 C   0  0  0  0  0  0  0  0  0  0  0  0
   -6.0404   10.4435  -31.0872 C   0  0  0  0  0  0  0  0  0  0  0  0
   -5.8260   10.6411  -35.6116 C   0  0  0  0  0  0  0  0  0  0  0  0
   -6.5576    9.6724  -34.7244 C   0  0  0  0  0  0  0  0  0  0  0  0
   -5.9537   10.9198  -34.1384 C   0  0  0  0  0  0  0  0  0  0  0  0
   -5.0296   13.1796  -27.2844 C   0  0  0  0  0  0  0  0  0  0  0  0
   -4.7559   10.8304  -33.2549 C   0  0  0  0  0  0  0  0  0  0  0  0
   -7.2388   10.0989  -29.0330 O   0  0  0  0  0  0  0  0  0  0  0  0
   -6.8754   11.9599  -33.7723 O   0  0  0  0  0  0  0  0  0  0  0  0
   -5.8095   12.1208  -27.8364 O   0  0  0  0  0  0  0  0  0  0  0  0
   -7.0325    9.0511  -31.9238 Br  0  0  0  0  0  0  0  0  0  0  0  0
   -3.5906   12.7180  -31.7348 H   0  0  0  0  0  0  0  0  0  0  0  0
   -4.0394   13.2906  -29.3794 H   0  0  0  0  0  0  0  0  0  0  0  0
   -4.8616   10.3364  -35.9997 H   0  0  0  0  0  0  0  0  0  0  0  0
   -6.4144   11.2370  -36.2989 H   0  0  0  0  0  0  0  0  0  0  0  0
   -7.6357    9.6194  -34.8180 H   0  0  0  0  0  0  0  0  0  0  0  0
   -6.0813    8.7211  -34.5197 H   0  0  0  0  0  0  0  0  0  0  0  0
   -5.3169   13.3397  -26.2424 H   0  0  0  0  0  0  0  0  0  0  0  0
   -5.1919   14.0926  -27.8628 H   0  0  0  0  0  0  0  0  0  0  0  0
   -3.9732   12.9044  -27.3306 H   0  0  0  0  0  0  0  0  0  0  0  0
   -3.9564   11.5173  -33.5938 H   0  0  0  0  0  0  0  0  0  0  0  0
   -4.2974    9.8236  -33.3028 H   0  0  0  0  0  0  0  0  0  0  0  0
   -7.2816   10.4526  -28.1316 H   0  0  0  0  0  0  0  0  0  0  0  0
   -6.8422   12.0150  -32.8080 H   0  0  0  0  0  0  0  0  0  0  0  0
  1  2  1  0  0  0  0
  1  3  2  0  0  0  0
  2  4  2  0  0  0  0
  3  6  1  0  0  0  0
  3 11  1  0  0  0  0
  4  5  1  0  0  0  0
  4 14  1  0  0  0  0
  5  6  2  0  0  0  0
  5 12  1  0  0  0  0
  6 15  1  0  0  0  0
  7  8  1  0  0  0  0
  7  9  1  0  0  0  0
  8  9  1  0  0  0  0
  9 11  1  0  0  0  0
  9 13  1  0  0  0  0
 10 14  1  0  0  0  0
  1 16  1  0  0  0  0
  2 17  1  0  0  0  0
  7 18  1  0  0  0  0
  7 19  1  0  0  0  0
  8 20  1  0  0  0  0
  8 21  1  0  0  0  0
 10 22  1  0  0  0  0
 10 23  1  0  0  0  0
 10 24  1  0  0  0  0
 11 25  1  0  0  0  0
 11 26  1  0  0  0  0
 12 27  1  0  0  0  0
 13 28  1  0  0  0  0
M  END
> <id>
EN300-1936268

> <smiles>
COC=1C=CC(CC2(O)CC2)=C(Br)C1O

> <IUPAC Name>
2-bromo-3-[(1-hydroxycyclopropyl)methyl]-6-methoxyphenol

> <CAS>
2228338-83-6

> <URL>
https://www.enaminestore.com/catalog/EN300-1936268

> <ROCS_ShapeQuery>
_x1604L0AP1_x0771L0AP1

> <ROCS_TanimotoCombo>
0.887 

> <ROCS_ShapeTanimoto>
0.532 

> <ROCS_ColorTanimoto>
0.355 

> <ROCS_RefTversky>
0.490 

> <ROCS_RefColorTversky>
0.427 

> <ROCS_RefTverskyCombo>
0.917 

> <ROCS_FitTversky>
1.191 

> <ROCS_FitColorTversky>
0.677 

> <ROCS_FitTverskyCombo>
1.868 

> <ROCS_ColorScore>
-4.901

> <ROCS_Overlap>
832.681

> <ROCS_Rank>
417                 

$$$$
untitled-dbase-908_233
  -OEChem-06042309053D

 24 24  0     0  0  0  0  0  0999 V2000
   -4.5850   12.4716  -29.8094 C   0  0  0  0  0  0  0  0  0  0  0  0
   -5.0455   11.1400  -31.7720 C   0  0  0  0  0  0  0  0  0  0  0  0
   -4.3226   12.1530  -31.1418 C   0  0  0  0  0  0  0  0  0  0  0  0
   -5.5702   11.7772  -29.1072 C   0  0  0  0  0  0  0  0  0  0  0  0
   -6.2930   10.7643  -29.7374 C   0  0  0  0  0  0  0  0  0  0  0  0
   -6.0306   10.4457  -31.0698 C   0  0  0  0  0  0  0  0  0  0  0  0
   -3.2972   12.8791  -31.8745 C   0  0  0  0  0  0  0  0  0  0  0  0
   -5.4593   13.3645  -25.8047 C   0  0  0  0  0  0  0  0  0  0  0  0
   -5.0302   13.1478  -27.2401 C   0  0  0  0  0  0  0  0  0  0  0  0
   -2.6210   13.8690  -31.1982 N   0  0  0  0  0  0  0  0  0  0  0  0
   -7.2532   10.0973  -29.0340 O   0  0  0  0  0  0  0  0  0  0  0  0
   -5.8148   12.1000  -27.8064 O   0  0  0  0  0  0  0  0  0  0  0  0
   -2.9322   12.5110  -33.4673 S   0  0  0  0  0  0  0  0  0  0  0  0
   -6.9944    9.0776  -31.9607 Br  0  0  0  0  0  0  0  0  0  0  0  0
   -4.0242   13.2613  -29.3145 H   0  0  0  0  0  0  0  0  0  0  0  0
   -4.8359   10.8981  -32.8118 H   0  0  0  0  0  0  0  0  0  0  0  0
   -6.5135   13.6502  -25.7514 H   0  0  0  0  0  0  0  0  0  0  0  0
   -5.3095   12.4539  -25.2153 H   0  0  0  0  0  0  0  0  0  0  0  0
   -4.8565   14.1496  -25.3361 H   0  0  0  0  0  0  0  0  0  0  0  0
   -3.9750   12.8624  -27.2863 H   0  0  0  0  0  0  0  0  0  0  0  0
   -5.1813   14.0583  -27.8277 H   0  0  0  0  0  0  0  0  0  0  0  0
   -2.8177   14.1028  -30.2302 H   0  0  0  0  0  0  0  0  0  0  0  0
   -1.8986   14.4141  -31.6570 H   0  0  0  0  0  0  0  0  0  0  0  0
   -7.3045   10.4432  -28.1300 H   0  0  0  0  0  0  0  0  0  0  0  0
  1  3  1  0  0  0  0
  1  4  2  0  0  0  0
  2  3  2  0  0  0  0
  2  6  1  0  0  0  0
  3  7  1  0  0  0  0
  4  5  1  0  0  0  0
  4 12  1  0  0  0  0
  5  6  2  0  0  0  0
  5 11  1  0  0  0  0
  6 14  1  0  0  0  0
  7 10  1  0  0  0  0
  7 13  2  0  0  0  0
  8  9  1  0  0  0  0
  9 12  1  0  0  0  0
  1 15  1  0  0  0  0
  2 16  1  0  0  0  0
  8 17  1  0  0  0  0
  8 18  1  0  0  0  0
  8 19  1  0  0  0  0
  9 20  1  0  0  0  0
  9 21  1  0  0  0  0
 10 22  1  0  0  0  0
 10 23  1  0  0  0  0
 11 24  1  0  0  0  0
M  END
> <id>
EN300-1920595

> <smiles>
CCOC=1C=C(C=C(Br)C1O)C(=S)N

> <IUPAC Name>
3-bromo-5-ethoxy-4-hydroxybenzene-1-carbothioamide

> <CAS>
2229105-65-9

> <URL>
https://www.enaminestore.com/catalog/EN300-1920595

> <ROCS_ShapeQuery>
_x1604L0AP1_x0771L0AP1

> <ROCS_TanimotoCombo>
0.887 

> <ROCS_ShapeTanimoto>
0.504 

> <ROCS_ColorTanimoto>
0.383 

> <ROCS_RefTversky>
0.462 

> <ROCS_RefColorTversky>
0.429 

> <ROCS_RefTverskyCombo>
0.891 

> <ROCS_FitTversky>
1.221 

> <ROCS_FitColorTversky>
0.779 

> <ROCS_FitTverskyCombo>
2.000 

> <ROCS_ColorScore>
-4.898

> <ROCS_Overlap>
783.753

> <ROCS_Rank>
418                 

$$$$
untitled-dbase-343_42
  -OEChem-06042309053D

 25 26  0     1  0  0  0  0  0999 V2000
   -4.6193   12.5011  -29.8743 C   0  0  0  0  0  0  0  0  0  0  0  0
   -4.3678   12.1742  -31.2068 C   0  0  0  0  0  0  0  0  0  0  0  0
   -5.5845   11.7975  -29.1538 C   0  0  0  0  0  0  0  0  0  0  0  0
   -5.0814   11.1438  -31.8188 C   0  0  0  0  0  0  0  0  0  0  0  0
   -6.2981   10.7670  -29.7658 C   0  0  0  0  0  0  0  0  0  0  0  0
   -6.0466   10.4402  -31.0983 C   0  0  0  0  0  0  0  0  0  0  0  0
   -4.8542   11.9415  -34.2674 C   0  0  0  0  0  0  0  0  0  0  0  0
   -4.7784   10.8327  -33.2490 C   0  0  2  0  0  0  0  0  0  0  0  0
   -5.9024   10.8690  -34.2547 C   0  0  2  0  0  0  0  0  0  0  0  0
   -5.9520    9.8582  -35.3483 C   0  0  0  0  0  0  0  0  0  0  0  0
   -6.6764    8.6862  -34.9396 N   0  0  0  0  0  0  0  0  0  0  0  0
   -7.2353   10.1039  -29.0303 O   0  0  0  0  0  0  0  0  0  0  0  0
   -7.0326    9.0355  -31.9221 Br  0  0  0  0  0  0  0  0  0  0  0  0
   -4.0630   13.3033  -29.3983 H   0  0  0  0  0  0  0  0  0  0  0  0
   -3.6123   12.7286  -31.7578 H   0  0  0  0  0  0  0  0  0  0  0  0
   -5.7745   12.0586  -28.1163 H   0  0  0  0  0  0  0  0  0  0  0  0
   -5.1479   12.9344  -33.9467 H   0  0  0  0  0  0  0  0  0  0  0  0
   -4.1172   11.9361  -35.0619 H   0  0  0  0  0  0  0  0  0  0  0  0
   -4.0018   10.0948  -33.3973 H   0  0  0  0  0  0  0  0  0  0  0  0
   -6.8961   11.1468  -33.9221 H   0  0  0  0  0  0  0  0  0  0  0  0
   -6.4499   10.3000  -36.2243 H   0  0  0  0  0  0  0  0  0  0  0  0
   -4.9252    9.5690  -35.6179 H   0  0  0  0  0  0  0  0  0  0  0  0
   -7.6144    8.9392  -34.7025 H   0  0  0  0  0  0  0  0  0  0  0  0
   -6.6892    8.0241  -35.6890 H   0  0  0  0  0  0  0  0  0  0  0  0
   -7.2729   10.4669  -28.1319 H   0  0  0  0  0  0  0  0  0  0  0  0
  1  2  1  0  0  0  0
  1  3  2  0  0  0  0
  2  4  2  0  0  0  0
  3  5  1  0  0  0  0
  4  6  1  0  0  0  0
  4  8  1  1  0  0  0
  5  6  2  0  0  0  0
  5 12  1  0  0  0  0
  6 13  1  0  0  0  0
  7  8  1  0  0  0  0
  7  9  1  0  0  0  0
  8  9  1  0  0  0  0
  9 10  1  6  0  0  0
 10 11  1  0  0  0  0
  1 14  1  0  0  0  0
  2 15  1  0  0  0  0
  3 16  1  0  0  0  0
  7 17  1  0  0  0  0
  7 18  1  0  0  0  0
  8 19  1  0  0  0  0
  9 20  1  0  0  0  0
 10 21  1  0  0  0  0
 10 22  1  0  0  0  0
 11 23  1  0  0  0  0
 11 24  1  0  0  0  0
 12 25  1  0  0  0  0
M  END
> <id>
EN300-1904579

> <smiles>
NC[C@@H]1C[C@H]1C=2C=CC=C(O)C2Br |&1:2,4,r|

> <IUPAC Name>
rac-3-[(1R,2R)-2-(aminomethyl)cyclopropyl]-2-bromophenol

> <CAS>
2227791-53-7

> <URL>
https://www.enaminestore.com/catalog/EN300-1904579

> <ROCS_ShapeQuery>
_x1604L0AP1_x0771L0AP1

> <ROCS_TanimotoCombo>
0.886 

> <ROCS_ShapeTanimoto>
0.505 

> <ROCS_ColorTanimoto>
0.381 

> <ROCS_RefTversky>
0.456 

> <ROCS_RefColorTversky>
0.428 

> <ROCS_RefTverskyCombo>
0.884 

> <ROCS_FitTversky>
1.268 

> <ROCS_FitColorTversky>
0.778 

> <ROCS_FitTverskyCombo>
2.046 

> <ROCS_ColorScore>
-4.888

> <ROCS_Overlap>
773.394

> <ROCS_Rank>
419                 

$$$$
untitled-dbase-556_180
  -OEChem-06042309053D

 29 30  0     0  0  0  0  0  0999 V2000
   -4.5793   12.4658  -29.7943 C   0  0  0  0  0  0  0  0  0  0  0  0
   -5.0465   11.1483  -31.7647 C   0  0  0  0  0  0  0  0  0  0  0  0
   -4.3201   12.1553  -31.1291 C   0  0  0  0  0  0  0  0  0  0  0  0
   -5.5650   11.7694  -29.0949 C   0  0  0  0  0  0  0  0  0  0  0  0
   -6.2915   10.7625  -29.7305 C   0  0  0  0  0  0  0  0  0  0  0  0
   -6.0323   10.4519  -31.0654 C   0  0  0  0  0  0  0  0  0  0  0  0
   -3.4683   14.3579  -31.9899 C   0  0  0  0  0  0  0  0  0  0  0  0
   -2.5951   12.1963  -33.0437 C   0  0  0  0  0  0  0  0  0  0  0  0
   -1.8363   12.3991  -31.7725 C   0  0  0  0  0  0  0  0  0  0  0  0
   -3.2678   12.9007  -31.8763 C   0  0  0  0  0  0  0  0  0  0  0  0
   -3.5794   14.9193  -33.3816 C   0  0  0  0  0  0  0  0  0  0  0  0
   -6.7872   13.0883  -27.5385 C   0  0  0  0  0  0  0  0  0  0  0  0
   -3.5432   15.0783  -30.9957 O   0  0  0  0  0  0  0  0  0  0  0  0
   -7.2513   10.0928  -29.0293 O   0  0  0  0  0  0  0  0  0  0  0  0
   -5.8073   12.0834  -27.7916 O   0  0  0  0  0  0  0  0  0  0  0  0
   -6.9996    9.0915  -31.9640 Br  0  0  0  0  0  0  0  0  0  0  0  0
   -4.0151   13.2507  -29.2962 H   0  0  0  0  0  0  0  0  0  0  0  0
   -4.8387   10.9132  -32.8064 H   0  0  0  0  0  0  0  0  0  0  0  0
   -2.3022   12.7874  -33.9040 H   0  0  0  0  0  0  0  0  0  0  0  0
   -2.9009   11.1862  -33.2913 H   0  0  0  0  0  0  0  0  0  0  0  0
   -1.6309   11.5253  -31.1648 H   0  0  0  0  0  0  0  0  0  0  0  0
   -1.0328   13.1269  -31.7770 H   0  0  0  0  0  0  0  0  0  0  0  0
   -4.6264   14.9185  -33.6971 H   0  0  0  0  0  0  0  0  0  0  0  0
   -3.0015   14.3011  -34.0731 H   0  0  0  0  0  0  0  0  0  0  0  0
   -3.2076   15.9467  -33.3930 H   0  0  0  0  0  0  0  0  0  0  0  0
   -6.8827   13.2419  -26.4608 H   0  0  0  0  0  0  0  0  0  0  0  0
   -7.7467   12.7771  -27.9594 H   0  0  0  0  0  0  0  0  0  0  0  0
   -6.4700   14.0212  -28.0105 H   0  0  0  0  0  0  0  0  0  0  0  0
   -7.2996   10.4326  -28.1227 H   0  0  0  0  0  0  0  0  0  0  0  0
  1  3  1  0  0  0  0
  1  4  2  0  0  0  0
  2  3  2  0  0  0  0
  2  6  1  0  0  0  0
  3 10  1  0  0  0  0
  4  5  1  0  0  0  0
  4 15  1  0  0  0  0
  5  6  2  0  0  0  0
  5 14  1  0  0  0  0
  6 16  1  0  0  0  0
  7 10  1  0  0  0  0
  7 11  1  0  0  0  0
  7 13  2  0  0  0  0
  8  9  1  0  0  0  0
  8 10  1  0  0  0  0
  9 10  1  0  0  0  0
 12 15  1  0  0  0  0
  1 17  1  0  0  0  0
  2 18  1  0  0  0  0
  8 19  1  0  0  0  0
  8 20  1  0  0  0  0
  9 21  1  0  0  0  0
  9 22  1  0  0  0  0
 11 23  1  0  0  0  0
 11 24  1  0  0  0  0
 11 25  1  0  0  0  0
 12 26  1  0  0  0  0
 12 27  1  0  0  0  0
 12 28  1  0  0  0  0
 14 29  1  0  0  0  0
M  END
> <id>
EN300-1925690

> <smiles>
COC=1C=C(C=C(Br)C1O)C2(CC2)C(=O)C

> <IUPAC Name>
1-[1-(3-bromo-4-hydroxy-5-methoxyphenyl)cyclopropyl]ethan-1-one

> <CAS>
2228786-12-5

> <URL>
https://www.enaminestore.com/catalog/EN300-1925690

> <ROCS_ShapeQuery>
_x1604L0AP1_x0771L0AP1

> <ROCS_TanimotoCombo>
0.886 

> <ROCS_ShapeTanimoto>
0.504 

> <ROCS_ColorTanimoto>
0.382 

> <ROCS_RefTversky>
0.482 

> <ROCS_RefColorTversky>
0.429 

> <ROCS_RefTverskyCombo>
0.911 

> <ROCS_FitTversky>
1.100 

> <ROCS_FitColorTversky>
0.779 

> <ROCS_FitTverskyCombo>
1.879 

> <ROCS_ColorScore>
-4.897

> <ROCS_Overlap>
820.470

> <ROCS_Rank>
420                 

$$$$
untitled-dbase-826_42
  -OEChem-06042309053D

 25 26  0     1  0  0  0  0  0999 V2000
   -4.6193   12.5011  -29.8742 C   0  0  0  0  0  0  0  0  0  0  0  0
   -4.3678   12.1743  -31.2067 C   0  0  0  0  0  0  0  0  0  0  0  0
   -5.5845   11.7974  -29.1537 C   0  0  0  0  0  0  0  0  0  0  0  0
   -5.0814   11.1439  -31.8188 C   0  0  0  0  0  0  0  0  0  0  0  0
   -6.2981   10.7670  -29.7658 C   0  0  0  0  0  0  0  0  0  0  0  0
   -6.0466   10.4402  -31.0983 C   0  0  0  0  0  0  0  0  0  0  0  0
   -4.8534   11.9418  -34.2675 C   0  0  0  0  0  0  0  0  0  0  0  0
   -4.7784   10.8328  -33.2489 C   0  0  2  0  0  0  0  0  0  0  0  0
   -5.9022   10.8699  -34.2549 C   0  0  2  0  0  0  0  0  0  0  0  0
   -5.9520    9.8589  -35.3484 C   0  0  0  0  0  0  0  0  0  0  0  0
   -6.6773    8.6874  -34.9398 N   0  0  0  0  0  0  0  0  0  0  0  0
   -7.2353   10.1039  -29.0303 O   0  0  0  0  0  0  0  0  0  0  0  0
   -7.0326    9.0355  -31.9222 Br  0  0  0  0  0  0  0  0  0  0  0  0
   -4.0630   13.3032  -29.3982 H   0  0  0  0  0  0  0  0  0  0  0  0
   -3.6123   12.7287  -31.7577 H   0  0  0  0  0  0  0  0  0  0  0  0
   -5.7745   12.0585  -28.1162 H   0  0  0  0  0  0  0  0  0  0  0  0
   -5.1468   12.9347  -33.9470 H   0  0  0  0  0  0  0  0  0  0  0  0
   -4.1155   11.9363  -35.0612 H   0  0  0  0  0  0  0  0  0  0  0  0
   -4.0018   10.0949  -33.3977 H   0  0  0  0  0  0  0  0  0  0  0  0
   -6.8956   11.1474  -33.9213 H   0  0  0  0  0  0  0  0  0  0  0  0
   -6.4494   10.3008  -36.2247 H   0  0  0  0  0  0  0  0  0  0  0  0
   -4.9253    9.5691  -35.6176 H   0  0  0  0  0  0  0  0  0  0  0  0
   -7.6152    8.9410  -34.7030 H   0  0  0  0  0  0  0  0  0  0  0  0
   -6.6903    8.0252  -35.6890 H   0  0  0  0  0  0  0  0  0  0  0  0
   -7.2729   10.4668  -28.1319 H   0  0  0  0  0  0  0  0  0  0  0  0
  1  2  1  0  0  0  0
  1  3  2  0  0  0  0
  2  4  2  0  0  0  0
  3  5  1  0  0  0  0
  4  6  1  0  0  0  0
  4  8  1  0  0  0  0
  5  6  2  0  0  0  0
  5 12  1  0  0  0  0
  6 13  1  0  0  0  0
  7  8  1  0  0  0  0
  7  9  1  0  0  0  0
  8  9  1  0  0  0  0
  9 10  1  0  0  0  0
 10 11  1  0  0  0  0
  1 14  1  0  0  0  0
  2 15  1  0  0  0  0
  3 16  1  0  0  0  0
  7 17  1  0  0  0  0
  7 18  1  0  0  0  0
  8 19  1  0  0  0  0
  9 20  1  0  0  0  0
 10 21  1  0  0  0  0
 10 22  1  0  0  0  0
 11 23  1  0  0  0  0
 11 24  1  0  0  0  0
 12 25  1  0  0  0  0
M  END
> <id>
EN300-1904582

> <smiles>
NCC1CC1C=2C=CC=C(O)C2Br

> <IUPAC Name>
3-[2-(aminomethyl)cyclopropyl]-2-bromophenol

> <CAS>
2228647-56-9

> <URL>
https://www.enaminestore.com/catalog/EN300-1904582

> <ROCS_ShapeQuery>
_x1604L0AP1_x0771L0AP1

> <ROCS_TanimotoCombo>
0.886 

> <ROCS_ShapeTanimoto>
0.505 

> <ROCS_ColorTanimoto>
0.381 

> <ROCS_RefTversky>
0.456 

> <ROCS_RefColorTversky>
0.428 

> <ROCS_RefTverskyCombo>
0.884 

> <ROCS_FitTversky>
1.268 

> <ROCS_FitColorTversky>
0.778 

> <ROCS_FitTverskyCombo>
2.046 

> <ROCS_ColorScore>
-4.887

> <ROCS_Overlap>
773.359

> <ROCS_Rank>
421                 

$$$$
untitled-dbase-1928_82
  -OEChem-06042309053D

 27 27  0     0  0  0  0  0  0999 V2000
   -5.1404   11.3172  -31.8101 C   0  0  0  0  0  0  0  0  0  0  0  0
   -4.4611   12.3946  -29.7571 C   0  0  0  0  0  0  0  0  0  0  0  0
   -6.1209   10.6098  -31.1145 C   0  0  0  0  0  0  0  0  0  0  0  0
   -4.3104   12.2095  -31.1314 C   0  0  0  0  0  0  0  0  0  0  0  0
   -6.2715   10.7948  -29.7402 C   0  0  0  0  0  0  0  0  0  0  0  0
   -5.4416   11.6872  -29.0615 C   0  0  0  0  0  0  0  0  0  0  0  0
   -6.9850    9.6738  -31.8545 C   0  0  0  0  0  0  0  0  0  0  0  0
   -3.2619   12.9653  -31.8754 C   0  0  0  0  0  0  0  0  0  0  0  0
   -6.2855    7.8294  -34.1641 C   0  0  0  0  0  0  0  0  0  0  0  0
   -7.2862    9.9830  -33.3197 C   0  0  0  0  0  0  0  0  0  0  0  0
   -6.2775    9.3454  -34.2755 C   0  0  0  0  0  0  0  0  0  0  0  0
   -7.4611    8.6653  -31.3297 O   0  0  0  0  0  0  0  0  0  0  0  0
   -7.2351   10.0969  -29.0708 O   0  0  0  0  0  0  0  0  0  0  0  0
   -5.6160   11.9674  -27.1944 Br  0  0  0  0  0  0  0  0  0  0  0  0
   -5.0207   11.1755  -32.8821 H   0  0  0  0  0  0  0  0  0  0  0  0
   -3.8093   13.0923  -29.2361 H   0  0  0  0  0  0  0  0  0  0  0  0
   -3.6650   13.9174  -32.2419 H   0  0  0  0  0  0  0  0  0  0  0  0
   -2.3948   13.1775  -31.2366 H   0  0  0  0  0  0  0  0  0  0  0  0
   -2.8906   12.3910  -32.7343 H   0  0  0  0  0  0  0  0  0  0  0  0
   -7.2807    7.4257  -34.3758 H   0  0  0  0  0  0  0  0  0  0  0  0
   -6.0025    7.5221  -33.1526 H   0  0  0  0  0  0  0  0  0  0  0  0
   -5.5757    7.3808  -34.8663 H   0  0  0  0  0  0  0  0  0  0  0  0
   -7.2693   11.0706  -33.4549 H   0  0  0  0  0  0  0  0  0  0  0  0
   -8.2884    9.6066  -33.5547 H   0  0  0  0  0  0  0  0  0  0  0  0
   -5.2693    9.7181  -34.0583 H   0  0  0  0  0  0  0  0  0  0  0  0
   -6.5071    9.6327  -35.3085 H   0  0  0  0  0  0  0  0  0  0  0  0
   -7.7194    9.5258  -29.6859 H   0  0  0  0  0  0  0  0  0  0  0  0
  1  3  2  0  0  0  0
  1  4  1  0  0  0  0
  2  4  2  0  0  0  0
  2  6  1  0  0  0  0
  3  5  1  0  0  0  0
  3  7  1  0  0  0  0
  4  8  1  0  0  0  0
  5  6  2  0  0  0  0
  5 13  1  0  0  0  0
  6 14  1  0  0  0  0
  7 10  1  0  0  0  0
  7 12  2  0  0  0  0
  9 11  1  0  0  0  0
 10 11  1  0  0  0  0
  1 15  1  0  0  0  0
  2 16  1  0  0  0  0
  8 17  1  0  0  0  0
  8 18  1  0  0  0  0
  8 19  1  0  0  0  0
  9 20  1  0  0  0  0
  9 21  1  0  0  0  0
  9 22  1  0  0  0  0
 10 23  1  0  0  0  0
 10 24  1  0  0  0  0
 11 25  1  0  0  0  0
 11 26  1  0  0  0  0
 13 27  1  0  0  0  0
M  END
> <id>
EN300-1276382

> <smiles>
CCCC(=O)C=1C=C(C)C=C(Br)C1O

> <MDLNUMBER>
MFCD16742913

> <IUPAC Name>
1-(3-bromo-2-hydroxy-5-methylphenyl)butan-1-one

> <CAS>
727687-84-5

> <URL>
https://www.enaminestore.com/catalog/EN300-1276382

> <ROCS_ShapeQuery>
_x1604L0AP1_x0771L0AP1

> <ROCS_TanimotoCombo>
0.886 

> <ROCS_ShapeTanimoto>
0.605 

> <ROCS_ColorTanimoto>
0.281 

> <ROCS_RefTversky>
0.520 

> <ROCS_RefColorTversky>
0.341 

> <ROCS_RefTverskyCombo>
0.861 

> <ROCS_FitTversky>
1.368 

> <ROCS_FitColorTversky>
0.618 

> <ROCS_FitTverskyCombo>
1.986 

> <ROCS_ColorScore>
-3.888

> <ROCS_Overlap>
883.012

> <ROCS_Rank>
422                 

$$$$
untitled-dbase-1903_709
  -OEChem-06042309053D

 25 25  0     0  0  0  0  0  0999 V2000
   -4.2972   12.3675  -30.9566 C   0  0  0  0  0  0  0  0  0  0  0  0
   -4.9877   11.3876  -31.6698 C   0  0  0  0  0  0  0  0  0  0  0  0
   -4.5890   12.5859  -29.6102 C   0  0  0  0  0  0  0  0  0  0  0  0
   -5.9700   10.6262  -31.0366 C   0  0  0  0  0  0  0  0  0  0  0  0
   -6.2619   10.8447  -29.6902 C   0  0  0  0  0  0  0  0  0  0  0  0
   -5.5713   11.8246  -28.9770 C   0  0  0  0  0  0  0  0  0  0  0  0
   -6.8871    7.1957  -33.8222 C   0  0  0  0  0  0  0  0  0  0  0  0
   -6.7044    9.5740  -31.8260 C   0  0  0  0  0  0  0  0  0  0  0  0
   -7.2959    8.6175  -34.1386 C   0  0  0  0  0  0  0  0  0  0  0  0
   -6.5171    9.6725  -33.3468 C   0  0  0  0  0  0  0  0  0  0  0  0
   -6.3862    6.4104  -34.6151 O   0  0  0  0  0  0  0  0  0  0  0  0
   -7.2268   10.0928  -29.0851 O   0  0  0  0  0  0  0  0  0  0  0  0
   -7.1845    6.8603  -32.5399 O   0  0  0  0  0  0  0  0  0  0  0  0
   -5.9378   12.1512  -27.1459 Br  0  0  0  0  0  0  0  0  0  0  0  0
   -3.5320   12.9600  -31.4494 H   0  0  0  0  0  0  0  0  0  0  0  0
   -4.7523   11.2224  -32.7178 H   0  0  0  0  0  0  0  0  0  0  0  0
   -4.0400   13.3537  -29.0707 H   0  0  0  0  0  0  0  0  0  0  0  0
   -7.7744    9.6619  -31.5954 H   0  0  0  0  0  0  0  0  0  0  0  0
   -6.4142    8.5735  -31.4807 H   0  0  0  0  0  0  0  0  0  0  0  0
   -8.3697    8.7423  -33.9614 H   0  0  0  0  0  0  0  0  0  0  0  0
   -7.1078    8.7625  -35.2088 H   0  0  0  0  0  0  0  0  0  0  0  0
   -6.8924   10.6575  -33.6533 H   0  0  0  0  0  0  0  0  0  0  0  0
   -5.4521    9.6518  -33.6060 H   0  0  0  0  0  0  0  0  0  0  0  0
   -7.3191   10.3546  -28.1565 H   0  0  0  0  0  0  0  0  0  0  0  0
   -7.5833    7.5769  -32.0015 H   0  0  0  0  0  0  0  0  0  0  0  0
  1  2  1  0  0  0  0
  1  3  2  0  0  0  0
  2  4  2  0  0  0  0
  3  6  1  0  0  0  0
  4  5  1  0  0  0  0
  4  8  1  0  0  0  0
  5  6  2  0  0  0  0
  5 12  1  0  0  0  0
  6 14  1  0  0  0  0
  7  9  1  0  0  0  0
  7 11  2  0  0  0  0
  7 13  1  0  0  0  0
  8 10  1  0  0  0  0
  9 10  1  0  0  0  0
  1 15  1  0  0  0  0
  2 16  1  0  0  0  0
  3 17  1  0  0  0  0
  8 18  1  0  0  0  0
  8 19  1  0  0  0  0
  9 20  1  0  0  0  0
  9 21  1  0  0  0  0
 10 22  1  0  0  0  0
 10 23  1  0  0  0  0
 12 24  1  0  0  0  0
 13 25  1  0  0  0  0
M  END
> <id>
EN300-1923456

> <smiles>
OC(=O)CCCC=1C=CC=C(Br)C1O

> <IUPAC Name>
4-(3-bromo-2-hydroxyphenyl)butanoic acid

> <CAS>
1516255-40-5

> <URL>
https://www.enaminestore.com/catalog/EN300-1923456

> <ROCS_ShapeQuery>
_x1604L0AP1_x0771L0AP1

> <ROCS_TanimotoCombo>
0.886 

> <ROCS_ShapeTanimoto>
0.537 

> <ROCS_ColorTanimoto>
0.349 

> <ROCS_RefTversky>
0.481 

> <ROCS_RefColorTversky>
0.422 

> <ROCS_RefTverskyCombo>
0.904 

> <ROCS_FitTversky>
1.274 

> <ROCS_FitColorTversky>
0.668 

> <ROCS_FitTverskyCombo>
1.942 

> <ROCS_ColorScore>
-4.844

> <ROCS_Overlap>
816.704

> <ROCS_Rank>
423                 

$$$$
untitled-dbase-198_84
  -OEChem-06042309053D

 24 24  0     0  0  0  0  0  0999 V2000
   -5.1425   11.3177  -31.8095 C   0  0  0  0  0  0  0  0  0  0  0  0
   -4.4605   12.3918  -29.7556 C   0  0  0  0  0  0  0  0  0  0  0  0
   -6.1240   10.6114  -31.1142 C   0  0  0  0  0  0  0  0  0  0  0  0
   -6.2738   10.7953  -29.7397 C   0  0  0  0  0  0  0  0  0  0  0  0
   -4.3107   12.2079  -31.1301 C   0  0  0  0  0  0  0  0  0  0  0  0
   -5.4421   11.6855  -29.0603 C   0  0  0  0  0  0  0  0  0  0  0  0
   -6.9892    9.6759  -31.8537 C   0  0  0  0  0  0  0  0  0  0  0  0
   -6.2917    7.8294  -34.1622 C   0  0  0  0  0  0  0  0  0  0  0  0
   -7.2900    9.9846  -33.3191 C   0  0  0  0  0  0  0  0  0  0  0  0
   -6.2820    9.3453  -34.2745 C   0  0  0  0  0  0  0  0  0  0  0  0
   -7.4664    8.6682  -31.3283 O   0  0  0  0  0  0  0  0  0  0  0  0
   -7.2371   10.0969  -29.0704 O   0  0  0  0  0  0  0  0  0  0  0  0
   -3.0997   13.0790  -31.9887 Cl  0  0  0  0  0  0  0  0  0  0  0  0
   -5.6143   11.9632  -27.1927 Br  0  0  0  0  0  0  0  0  0  0  0  0
   -5.0273   11.1725  -32.8815 H   0  0  0  0  0  0  0  0  0  0  0  0
   -3.8096   13.0868  -29.2294 H   0  0  0  0  0  0  0  0  0  0  0  0
   -7.2874    7.4266  -34.3737 H   0  0  0  0  0  0  0  0  0  0  0  0
   -6.0090    7.5224  -33.1505 H   0  0  0  0  0  0  0  0  0  0  0  0
   -5.5824    7.3796  -34.8642 H   0  0  0  0  0  0  0  0  0  0  0  0
   -7.2720   11.0721  -33.4549 H   0  0  0  0  0  0  0  0  0  0  0  0
   -8.2926    9.6091  -33.5538 H   0  0  0  0  0  0  0  0  0  0  0  0
   -5.2735    9.7171  -34.0575 H   0  0  0  0  0  0  0  0  0  0  0  0
   -6.5113    9.6323  -35.3076 H   0  0  0  0  0  0  0  0  0  0  0  0
   -7.7218    9.5262  -29.6857 H   0  0  0  0  0  0  0  0  0  0  0  0
  1  3  2  0  0  0  0
  1  5  1  0  0  0  0
  2  5  2  0  0  0  0
  2  6  1  0  0  0  0
  3  4  1  0  0  0  0
  3  7  1  0  0  0  0
  4  6  2  0  0  0  0
  4 12  1  0  0  0  0
  5 13  1  0  0  0  0
  6 14  1  0  0  0  0
  7  9  1  0  0  0  0
  7 11  2  0  0  0  0
  8 10  1  0  0  0  0
  9 10  1  0  0  0  0
  1 15  1  0  0  0  0
  2 16  1  0  0  0  0
  8 17  1  0  0  0  0
  8 18  1  0  0  0  0
  8 19  1  0  0  0  0
  9 20  1  0  0  0  0
  9 21  1  0  0  0  0
 10 22  1  0  0  0  0
 10 23  1  0  0  0  0
 12 24  1  0  0  0  0
M  END
> <id>
EN300-1276935

> <smiles>
CCCC(=O)C=1C=C(Cl)C=C(Br)C1O

> <MDLNUMBER>
MFCD16742927

> <IUPAC Name>
1-(3-bromo-5-chloro-2-hydroxyphenyl)butan-1-one

> <CAS>
1248254-26-3

> <URL>
https://www.enaminestore.com/catalog/EN300-1276935

> <ROCS_ShapeQuery>
_x1604L0AP1_x0771L0AP1

> <ROCS_TanimotoCombo>
0.886 

> <ROCS_ShapeTanimoto>
0.605 

> <ROCS_ColorTanimoto>
0.281 

> <ROCS_RefTversky>
0.519 

> <ROCS_RefColorTversky>
0.341 

> <ROCS_RefTverskyCombo>
0.859 

> <ROCS_FitTversky>
1.377 

> <ROCS_FitColorTversky>
0.618 

> <ROCS_FitTverskyCombo>
1.995 

> <ROCS_ColorScore>
-3.888

> <ROCS_Overlap>
880.290

> <ROCS_Rank>
424                 

$$$$
untitled-dbase-1275_1062
  -OEChem-06042309053D

 27 27  0     0  0  0  0  0  0999 V2000
   -5.2076   11.3844  -31.8173 C   0  0  0  0  0  0  0  0  0  0  0  0
   -4.4114   12.3272  -29.7403 C   0  0  0  0  0  0  0  0  0  0  0  0
   -4.3201   12.2100  -31.1272 C   0  0  0  0  0  0  0  0  0  0  0  0
   -6.1867   10.6762  -31.1205 C   0  0  0  0  0  0  0  0  0  0  0  0
   -6.2780   10.7933  -29.7336 C   0  0  0  0  0  0  0  0  0  0  0  0
   -5.3904   11.6189  -29.0434 C   0  0  0  0  0  0  0  0  0  0  0  0
   -6.8485    8.9750  -34.0190 C   0  0  0  0  0  0  0  0  0  0  0  0
   -3.2729   12.9663  -31.8725 C   0  0  0  0  0  0  0  0  0  0  0  0
   -6.4733    8.8065  -32.5621 C   0  0  0  0  0  0  0  0  0  0  0  0
   -2.3857   13.8205  -30.9645 C   0  0  0  0  0  0  0  0  0  0  0  0
   -7.2418   10.0917  -29.0697 O   0  0  0  0  0  0  0  0  0  0  0  0
   -3.1899   14.7456  -30.2439 O   0  0  0  0  0  0  0  0  0  0  0  0
   -7.0459    9.8734  -31.8085 O   0  0  0  0  0  0  0  0  0  0  0  0
   -5.4835   11.8035  -27.1590 Br  0  0  0  0  0  0  0  0  0  0  0  0
   -5.1382   11.2912  -32.8985 H   0  0  0  0  0  0  0  0  0  0  0  0
   -3.7144   12.9732  -29.2109 H   0  0  0  0  0  0  0  0  0  0  0  0
   -7.9342    8.9497  -34.1477 H   0  0  0  0  0  0  0  0  0  0  0  0
   -6.4684    9.9252  -34.4081 H   0  0  0  0  0  0  0  0  0  0  0  0
   -6.4021    8.1809  -34.6267 H   0  0  0  0  0  0  0  0  0  0  0  0
   -2.6392   12.2707  -32.4446 H   0  0  0  0  0  0  0  0  0  0  0  0
   -3.7507   13.6249  -32.6140 H   0  0  0  0  0  0  0  0  0  0  0  0
   -5.3863    8.8328  -32.4403 H   0  0  0  0  0  0  0  0  0  0  0  0
   -6.8545    7.8570  -32.1747 H   0  0  0  0  0  0  0  0  0  0  0  0
   -1.8705   13.1860  -30.2360 H   0  0  0  0  0  0  0  0  0  0  0  0
   -1.6371   14.3761  -31.5390 H   0  0  0  0  0  0  0  0  0  0  0  0
   -7.7670    9.5720  -29.6971 H   0  0  0  0  0  0  0  0  0  0  0  0
   -3.6397   15.2978  -30.9034 H   0  0  0  0  0  0  0  0  0  0  0  0
  1  3  1  0  0  0  0
  1  4  2  0  0  0  0
  2  3  2  0  0  0  0
  2  6  1  0  0  0  0
  3  8  1  0  0  0  0
  4  5  1  0  0  0  0
  4 13  1  0  0  0  0
  5  6  2  0  0  0  0
  5 11  1  0  0  0  0
  6 14  1  0  0  0  0
  7  9  1  0  0  0  0
  8 10  1  0  0  0  0
  9 13  1  0  0  0  0
 10 12  1  0  0  0  0
  1 15  1  0  0  0  0
  2 16  1  0  0  0  0
  7 17  1  0  0  0  0
  7 18  1  0  0  0  0
  7 19  1  0  0  0  0
  8 20  1  0  0  0  0
  8 21  1  0  0  0  0
  9 22  1  0  0  0  0
  9 23  1  0  0  0  0
 10 24  1  0  0  0  0
 10 25  1  0  0  0  0
 11 26  1  0  0  0  0
 12 27  1  0  0  0  0
M  END
> <id>
EN300-1920248

> <smiles>
CCOC=1C=C(CCO)C=C(Br)C1O

> <IUPAC Name>
2-bromo-6-ethoxy-4-(2-hydroxyethyl)phenol

> <CAS>
2229485-49-6

> <URL>
https://www.enaminestore.com/catalog/EN300-1920248

> <ROCS_ShapeQuery>
_x1604L0AP1_x0771L0AP1

> <ROCS_TanimotoCombo>
0.886 

> <ROCS_ShapeTanimoto>
0.624 

> <ROCS_ColorTanimoto>
0.262 

> <ROCS_RefTversky>
0.530 

> <ROCS_RefColorTversky>
0.339 

> <ROCS_RefTverskyCombo>
0.869 

> <ROCS_FitTversky>
1.399 

> <ROCS_FitColorTversky>
0.537 

> <ROCS_FitTverskyCombo>
1.936 

> <ROCS_ColorScore>
-3.886

> <ROCS_Overlap>
898.603

> <ROCS_Rank>
425                 

$$$$
untitled-dbase-1045_61
  -OEChem-06042309053D

 19 19  0     0  0  0  0  0  0999 V2000
   -4.6078   12.4923  -29.8657 C   0  0  0  0  0  0  0  0  0  0  0  0
   -4.3640   12.1763  -31.2022 C   0  0  0  0  0  0  0  0  0  0  0  0
   -5.5739   11.7877  -29.1474 C   0  0  0  0  0  0  0  0  0  0  0  0
   -5.0863   11.1558  -31.8205 C   0  0  0  0  0  0  0  0  0  0  0  0
   -6.2962   10.7672  -29.7658 C   0  0  0  0  0  0  0  0  0  0  0  0
   -6.0525   10.4512  -31.1023 C   0  0  0  0  0  0  0  0  0  0  0  0
   -4.7876   10.8563  -33.2544 C   0  0  0  0  0  0  0  0  0  0  0  0
   -5.9432   11.0208  -34.0969 N   0  0  0  0  0  0  0  0  0  0  0  0
   -7.2329   10.1010  -29.0324 O   0  0  0  0  0  0  0  0  0  0  0  0
   -5.7809   10.0756  -35.1916 O   0  0  0  0  0  0  0  0  0  0  0  0
   -7.0439    9.0567  -31.9350 Br  0  0  0  0  0  0  0  0  0  0  0  0
   -4.0457   13.2873  -29.3844 H   0  0  0  0  0  0  0  0  0  0  0  0
   -3.6089   12.7320  -31.7525 H   0  0  0  0  0  0  0  0  0  0  0  0
   -5.7585   12.0402  -28.1067 H   0  0  0  0  0  0  0  0  0  0  0  0
   -3.9997   11.5177  -33.6376 H   0  0  0  0  0  0  0  0  0  0  0  0
   -4.4305    9.8264  -33.3813 H   0  0  0  0  0  0  0  0  0  0  0  0
   -6.7924   10.6691  -33.6442 H   0  0  0  0  0  0  0  0  0  0  0  0
   -7.6606    9.4210  -29.5754 H   0  0  0  0  0  0  0  0  0  0  0  0
   -4.9450   10.3834  -35.5829 H   0  0  0  0  0  0  0  0  0  0  0  0
  1  2  1  0  0  0  0
  1  3  2  0  0  0  0
  2  4  2  0  0  0  0
  3  5  1  0  0  0  0
  4  6  1  0  0  0  0
  4  7  1  0  0  0  0
  5  6  2  0  0  0  0
  5  9  1  0  0  0  0
  6 11  1  0  0  0  0
  7  8  1  0  0  0  0
  8 10  1  0  0  0  0
  1 12  1  0  0  0  0
  2 13  1  0  0  0  0
  3 14  1  0  0  0  0
  7 15  1  0  0  0  0
  7 16  1  0  0  0  0
  8 17  1  0  0  0  0
  9 18  1  0  0  0  0
 10 19  1  0  0  0  0
M  END
> <id>
EN300-1905038

> <smiles>
ONCC=1C=CC=C(O)C1Br

> <MDLNUMBER>
MFCD33535316

> <IUPAC Name>
2-bromo-3-[(hydroxyamino)methyl]phenol

> <CAS>
1935625-24-3

> <URL>
https://www.enaminestore.com/catalog/EN300-1905038

> <ROCS_ShapeQuery>
_x1604L0AP1_x0771L0AP1

> <ROCS_TanimotoCombo>
0.886 

> <ROCS_ShapeTanimoto>
0.473 

> <ROCS_ColorTanimoto>
0.413 

> <ROCS_RefTversky>
0.420 

> <ROCS_RefColorTversky>
0.429 

> <ROCS_RefTverskyCombo>
0.850 

> <ROCS_FitTversky>
1.363 

> <ROCS_FitColorTversky>
0.915 

> <ROCS_FitTverskyCombo>
2.278 

> <ROCS_ColorScore>
-4.881

> <ROCS_Overlap>
710.026

> <ROCS_Rank>
426                 

$$$$
untitled-dbase-2108_78
  -OEChem-06042309053D

 24 24  0     0  0  0  0  0  0999 V2000
   -4.5727   12.4604  -29.9177 C   0  0  0  0  0  0  0  0  0  0  0  0
   -4.3677   12.1429  -31.2603 C   0  0  0  0  0  0  0  0  0  0  0  0
   -5.5296   11.7681  -29.1755 C   0  0  0  0  0  0  0  0  0  0  0  0
   -5.1196   11.1332  -31.8609 C   0  0  0  0  0  0  0  0  0  0  0  0
   -6.2815   10.7583  -29.7761 C   0  0  0  0  0  0  0  0  0  0  0  0
   -6.0766   10.4409  -31.1188 C   0  0  0  0  0  0  0  0  0  0  0  0
   -5.8775   10.6661  -35.6174 C   0  0  0  0  0  0  0  0  0  0  0  0
   -6.0398    9.2330  -35.9991 C   0  0  0  0  0  0  0  0  0  0  0  0
   -4.8600   10.8292  -33.3136 C   0  0  0  0  0  0  0  0  0  0  0  0
   -6.1248   10.9787  -34.1572 C   0  0  0  0  0  0  0  0  0  0  0  0
   -5.5615   11.4927  -36.4634 O   0  0  0  0  0  0  0  0  0  0  0  0
   -7.2081   10.1040  -29.0195 O   0  0  0  0  0  0  0  0  0  0  0  0
   -7.1081    9.0612  -31.9271 Br  0  0  0  0  0  0  0  0  0  0  0  0
   -3.9876   13.2470  -29.4502 H   0  0  0  0  0  0  0  0  0  0  0  0
   -3.6195   12.6889  -31.8293 H   0  0  0  0  0  0  0  0  0  0  0  0
   -5.6840   12.0216  -28.1301 H   0  0  0  0  0  0  0  0  0  0  0  0
   -7.0689    8.9925  -36.3091 H   0  0  0  0  0  0  0  0  0  0  0  0
   -5.4010    8.9483  -36.8497 H   0  0  0  0  0  0  0  0  0  0  0  0
   -5.7988    8.5180  -35.1973 H   0  0  0  0  0  0  0  0  0  0  0  0
   -4.0709   11.4926  -33.6910 H   0  0  0  0  0  0  0  0  0  0  0  0
   -4.4573    9.8123  -33.4087 H   0  0  0  0  0  0  0  0  0  0  0  0
   -6.5058   12.0047  -34.0893 H   0  0  0  0  0  0  0  0  0  0  0  0
   -6.9057   10.3004  -33.7931 H   0  0  0  0  0  0  0  0  0  0  0  0
   -7.6589    9.4306  -29.5521 H   0  0  0  0  0  0  0  0  0  0  0  0
  1  2  1  0  0  0  0
  1  3  2  0  0  0  0
  2  4  2  0  0  0  0
  3  5  1  0  0  0  0
  4  6  1  0  0  0  0
  4  9  1  0  0  0  0
  5  6  2  0  0  0  0
  5 12  1  0  0  0  0
  6 13  1  0  0  0  0
  7  8  1  0  0  0  0
  7 10  1  0  0  0  0
  7 11  2  0  0  0  0
  9 10  1  0  0  0  0
  1 14  1  0  0  0  0
  2 15  1  0  0  0  0
  3 16  1  0  0  0  0
  8 17  1  0  0  0  0
  8 18  1  0  0  0  0
  8 19  1  0  0  0  0
  9 20  1  0  0  0  0
  9 21  1  0  0  0  0
 10 22  1  0  0  0  0
 10 23  1  0  0  0  0
 12 24  1  0  0  0  0
M  END
> <id>
EN300-1893665

> <smiles>
CC(=O)CCC=1C=CC=C(O)C1Br

> <MDLNUMBER>
MFCD26654040

> <IUPAC Name>
4-(2-bromo-3-hydroxyphenyl)butan-2-one

> <CAS>
1531046-93-1

> <URL>
https://www.enaminestore.com/catalog/EN300-1893665

> <ROCS_ShapeQuery>
_x1604L0AP1_x0771L0AP1

> <ROCS_TanimotoCombo>
0.886 

> <ROCS_ShapeTanimoto>
0.474 

> <ROCS_ColorTanimoto>
0.411 

> <ROCS_RefTversky>
0.436 

> <ROCS_RefColorTversky>
0.428 

> <ROCS_RefTverskyCombo>
0.864 

> <ROCS_FitTversky>
1.231 

> <ROCS_FitColorTversky>
0.913 

> <ROCS_FitTverskyCombo>
2.143 

> <ROCS_ColorScore>
-4.869

> <ROCS_Overlap>
738.394

> <ROCS_Rank>
427                 

$$$$
untitled-dbase-882_214
  -OEChem-06042309053D

 25 25  0     1  0  0  0  0  0999 V2000
   -4.4780   12.2219  -31.2974 C   0  0  0  0  0  0  0  0  0  0  0  0
   -4.9186   12.6927  -30.0606 C   0  0  0  0  0  0  0  0  0  0  0  0
   -5.0146   11.0491  -31.8288 C   0  0  0  0  0  0  0  0  0  0  0  0
   -5.8958   11.9906  -29.3550 C   0  0  0  0  0  0  0  0  0  0  0  0
   -6.4323   10.8178  -29.8863 C   0  0  0  0  0  0  0  0  0  0  0  0
   -5.9917   10.3470  -31.1232 C   0  0  0  0  0  0  0  0  0  0  0  0
   -6.3577   12.5179  -28.0163 C   0  0  0  0  0  0  0  0  0  0  0  0
   -5.5987   10.4367  -26.7452 C   0  0  0  0  0  0  0  0  0  0  0  0
   -5.5203   11.9619  -26.8561 C   0  0  2  0  0  0  0  0  0  0  0  0
   -6.8124   10.0201  -26.0809 N   0  0  0  0  0  0  0  0  0  0  0  0
   -7.3865   10.1412  -29.1832 O   0  0  0  0  0  0  0  0  0  0  0  0
   -5.9683   12.5473  -25.6334 O   0  0  0  0  0  0  0  0  0  0  0  0
   -6.6967    8.7580  -31.8796 Br  0  0  0  0  0  0  0  0  0  0  0  0
   -3.7175   12.7688  -31.8471 H   0  0  0  0  0  0  0  0  0  0  0  0
   -4.4969   13.6086  -29.6551 H   0  0  0  0  0  0  0  0  0  0  0  0
   -4.6590   10.6980  -32.7943 H   0  0  0  0  0  0  0  0  0  0  0  0
   -6.3114   13.6142  -28.0357 H   0  0  0  0  0  0  0  0  0  0  0  0
   -7.4142   12.2510  -27.8857 H   0  0  0  0  0  0  0  0  0  0  0  0
   -4.7469   10.0598  -26.1690 H   0  0  0  0  0  0  0  0  0  0  0  0
   -5.5583    9.9814  -27.7402 H   0  0  0  0  0  0  0  0  0  0  0  0
   -4.4680   12.2440  -26.9833 H   0  0  0  0  0  0  0  0  0  0  0  0
   -7.3366   10.8284  -25.8226 H   0  0  0  0  0  0  0  0  0  0  0  0
   -7.3469    9.4541  -26.7045 H   0  0  0  0  0  0  0  0  0  0  0  0
   -7.6633    9.3518  -29.6728 H   0  0  0  0  0  0  0  0  0  0  0  0
   -5.4163   12.1710  -24.9315 H   0  0  0  0  0  0  0  0  0  0  0  0
  1  2  1  0  0  0  0
  1  3  2  0  0  0  0
  2  4  2  0  0  0  0
  3  6  1  0  0  0  0
  4  5  1  0  0  0  0
  4  7  1  0  0  0  0
  5  6  2  0  0  0  0
  5 11  1  0  0  0  0
  6 13  1  0  0  0  0
  7  9  1  0  0  0  0
  8  9  1  0  0  0  0
  8 10  1  0  0  0  0
  9 12  1  0  0  0  0
  1 14  1  0  0  0  0
  2 15  1  0  0  0  0
  3 16  1  0  0  0  0
  7 17  1  0  0  0  0
  7 18  1  0  0  0  0
  8 19  1  0  0  0  0
  8 20  1  0  0  0  0
  9 21  1  0  0  0  0
 10 22  1  0  0  0  0
 10 23  1  0  0  0  0
 11 24  1  0  0  0  0
 12 25  1  0  0  0  0
M  END
> <id>
EN300-1923154

> <smiles>
NCC(O)CC=1C=CC=C(Br)C1O

> <IUPAC Name>
2-(3-amino-2-hydroxypropyl)-6-bromophenol

> <CAS>
2228256-28-6

> <URL>
https://www.enaminestore.com/catalog/EN300-1923154

> <ROCS_ShapeQuery>
_x1604L0AP1_x0771L0AP1

> <ROCS_TanimotoCombo>
0.886 

> <ROCS_ShapeTanimoto>
0.405 

> <ROCS_ColorTanimoto>
0.480 

> <ROCS_RefTversky>
0.390 

> <ROCS_RefColorTversky>
0.555 

> <ROCS_RefTverskyCombo>
0.946 

> <ROCS_FitTversky>
1.106 

> <ROCS_FitColorTversky>
0.781 

> <ROCS_FitTverskyCombo>
1.887 

> <ROCS_ColorScore>
-6.393

> <ROCS_Overlap>
661.372

> <ROCS_Rank>
428                 

$$$$
untitled-dbase-196_83
  -OEChem-06042309053D

 24 24  0     0  0  0  0  0  0999 V2000
   -5.1421   11.3167  -31.8104 C   0  0  0  0  0  0  0  0  0  0  0  0
   -4.4609   12.3947  -29.7583 C   0  0  0  0  0  0  0  0  0  0  0  0
   -6.1217   10.6093  -31.1136 C   0  0  0  0  0  0  0  0  0  0  0  0
   -6.2710   10.7946  -29.7392 C   0  0  0  0  0  0  0  0  0  0  0  0
   -4.3116   12.2093  -31.1327 C   0  0  0  0  0  0  0  0  0  0  0  0
   -5.4405   11.6873  -29.0615 C   0  0  0  0  0  0  0  0  0  0  0  0
   -6.9870    9.6741  -31.8534 C   0  0  0  0  0  0  0  0  0  0  0  0
   -6.2908    7.8316  -34.1654 C   0  0  0  0  0  0  0  0  0  0  0  0
   -7.2898    9.9848  -33.3180 C   0  0  0  0  0  0  0  0  0  0  0  0
   -6.2825    9.3477  -34.2755 C   0  0  0  0  0  0  0  0  0  0  0  0
   -7.4628    8.6653  -31.3289 O   0  0  0  0  0  0  0  0  0  0  0  0
   -7.2342   10.0971  -29.0690 O   0  0  0  0  0  0  0  0  0  0  0  0
   -3.3708   12.8885  -31.8021 F   0  0  0  0  0  0  0  0  0  0  0  0
   -5.6132   11.9696  -27.1946 Br  0  0  0  0  0  0  0  0  0  0  0  0
   -5.0163   11.1822  -32.8817 H   0  0  0  0  0  0  0  0  0  0  0  0
   -3.8045   13.0943  -29.2475 H   0  0  0  0  0  0  0  0  0  0  0  0
   -7.2864    7.4283  -34.3763 H   0  0  0  0  0  0  0  0  0  0  0  0
   -6.0067    7.5233  -33.1545 H   0  0  0  0  0  0  0  0  0  0  0  0
   -5.5820    7.3834  -34.8689 H   0  0  0  0  0  0  0  0  0  0  0  0
   -7.2728   11.0725  -33.4522 H   0  0  0  0  0  0  0  0  0  0  0  0
   -8.2924    9.6089  -33.5521 H   0  0  0  0  0  0  0  0  0  0  0  0
   -5.2740    9.7199  -34.0592 H   0  0  0  0  0  0  0  0  0  0  0  0
   -6.5132    9.6360  -35.3080 H   0  0  0  0  0  0  0  0  0  0  0  0
   -7.7192    9.5260  -29.6836 H   0  0  0  0  0  0  0  0  0  0  0  0
  1  3  2  0  0  0  0
  1  5  1  0  0  0  0
  2  5  2  0  0  0  0
  2  6  1  0  0  0  0
  3  4  1  0  0  0  0
  3  7  1  0  0  0  0
  4  6  2  0  0  0  0
  4 12  1  0  0  0  0
  5 13  1  0  0  0  0
  6 14  1  0  0  0  0
  7  9  1  0  0  0  0
  7 11  2  0  0  0  0
  8 10  1  0  0  0  0
  9 10  1  0  0  0  0
  1 15  1  0  0  0  0
  2 16  1  0  0  0  0
  8 17  1  0  0  0  0
  8 18  1  0  0  0  0
  8 19  1  0  0  0  0
  9 20  1  0  0  0  0
  9 21  1  0  0  0  0
 10 22  1  0  0  0  0
 10 23  1  0  0  0  0
 12 24  1  0  0  0  0
M  END
> <id>
EN300-1276631

> <smiles>
CCCC(=O)C=1C=C(F)C=C(Br)C1O

> <MDLNUMBER>
MFCD16742931

> <IUPAC Name>
1-(3-bromo-5-fluoro-2-hydroxyphenyl)butan-1-one

> <CAS>
1957-56-8

> <URL>
https://www.enaminestore.com/catalog/EN300-1276631

> <ROCS_ShapeQuery>
_x1604L0AP1_x0771L0AP1

> <ROCS_TanimotoCombo>
0.886 

> <ROCS_ShapeTanimoto>
0.604 

> <ROCS_ColorTanimoto>
0.281 

> <ROCS_RefTversky>
0.521 

> <ROCS_RefColorTversky>
0.341 

> <ROCS_RefTverskyCombo>
0.862 

> <ROCS_FitTversky>
1.360 

> <ROCS_FitColorTversky>
0.618 

> <ROCS_FitTverskyCombo>
1.978 

> <ROCS_ColorScore>
-3.888

> <ROCS_Overlap>
884.167

> <ROCS_Rank>
429                 

$$$$
untitled-dbase-133_0
  -OEChem-06042309053D

 23 24  0     0  0  0  0  0  0999 V2000
   -5.5062   11.2828  -33.3979 C   0  0  0  0  0  0  0  0  0  0  0  0
   -4.4661   12.1533  -31.3575 C   0  0  0  0  0  0  0  0  0  0  0  0
   -6.4861   10.5065  -34.0174 C   0  0  0  0  0  0  0  0  0  0  0  0
   -4.4207   12.2353  -29.9655 C   0  0  0  0  0  0  0  0  0  0  0  0
   -7.3713    9.8968  -31.8559 C   0  0  0  0  0  0  0  0  0  0  0  0
   -5.4455   11.3767  -31.9979 C   0  0  0  0  0  0  0  0  0  0  0  0
   -6.3920   10.6734  -31.2154 C   0  0  0  0  0  0  0  0  0  0  0  0
   -7.4168    9.8149  -33.2479 C   0  0  0  0  0  0  0  0  0  0  0  0
   -6.3313   10.7674  -29.8155 C   0  0  0  0  0  0  0  0  0  0  0  0
   -5.3515   11.5437  -29.1960 C   0  0  0  0  0  0  0  0  0  0  0  0
   -8.3614    9.0192  -35.2802 C   0  0  0  0  0  0  0  0  0  0  0  0
   -7.2386   10.0926  -29.0451 O   0  0  0  0  0  0  0  0  0  0  0  0
   -8.3724    9.0583  -33.8541 O   0  0  0  0  0  0  0  0  0  0  0  0
   -5.2509   11.6856  -27.3072 Br  0  0  0  0  0  0  0  0  0  0  0  0
   -4.7895   11.8153  -34.0193 H   0  0  0  0  0  0  0  0  0  0  0  0
   -3.7288   12.7025  -31.9398 H   0  0  0  0  0  0  0  0  0  0  0  0
   -6.5168   10.4466  -35.1019 H   0  0  0  0  0  0  0  0  0  0  0  0
   -3.6502   12.8450  -29.5005 H   0  0  0  0  0  0  0  0  0  0  0  0
   -8.1125    9.3456  -31.2804 H   0  0  0  0  0  0  0  0  0  0  0  0
   -9.1745    8.3808  -35.6343 H   0  0  0  0  0  0  0  0  0  0  0  0
   -7.4009    8.6303  -35.6276 H   0  0  0  0  0  0  0  0  0  0  0  0
   -8.5027   10.0321  -35.6647 H   0  0  0  0  0  0  0  0  0  0  0  0
   -7.0633   10.2595  -28.1078 H   0  0  0  0  0  0  0  0  0  0  0  0
  1  3  1  0  0  0  0
  1  6  2  0  0  0  0
  2  4  2  0  0  0  0
  2  6  1  0  0  0  0
  3  8  2  0  0  0  0
  4 10  1  0  0  0  0
  5  7  2  0  0  0  0
  5  8  1  0  0  0  0
  6  7  1  0  0  0  0
  7  9  1  0  0  0  0
  8 13  1  0  0  0  0
  9 10  2  0  0  0  0
  9 12  1  0  0  0  0
 10 14  1  0  0  0  0
 11 13  1  0  0  0  0
  1 15  1  0  0  0  0
  2 16  1  0  0  0  0
  3 17  1  0  0  0  0
  4 18  1  0  0  0  0
  5 19  1  0  0  0  0
 11 20  1  0  0  0  0
 11 21  1  0  0  0  0
 11 22  1  0  0  0  0
 12 23  1  0  0  0  0
M  END
> <id>
EN300-1144192

> <smiles>
COC=1C=CC=2C=CC(Br)=C(O)C2C1

> <MDLNUMBER>
MFCD21875091

> <IUPAC Name>
2-bromo-7-methoxynaphthalen-1-ol

> <CAS>
857091-21-5

> <URL>
https://www.enaminestore.com/catalog/EN300-1144192

> <ROCS_ShapeQuery>
_x1604L0AP1_x0771L0AP1

> <ROCS_TanimotoCombo>
0.885 

> <ROCS_ShapeTanimoto>
0.510 

> <ROCS_ColorTanimoto>
0.375 

> <ROCS_RefTversky>
0.473 

> <ROCS_RefColorTversky>
0.423 

> <ROCS_RefTverskyCombo>
0.896 

> <ROCS_FitTversky>
1.183 

> <ROCS_FitColorTversky>
0.768 

> <ROCS_FitTverskyCombo>
1.951 

> <ROCS_ColorScore>
-4.831

> <ROCS_Overlap>
803.241

> <ROCS_Rank>
430                 

$$$$
untitled-dbase-2294_2
  -OEChem-06042309053D

 22 22  0     0  0  0  0  0  0999 V2000
   -5.1017   11.2352  -31.8110 C   0  0  0  0  0  0  0  0  0  0  0  0
   -4.3337   12.2064  -31.1688 C   0  0  0  0  0  0  0  0  0  0  0  0
   -6.0730   10.5310  -31.0993 C   0  0  0  0  0  0  0  0  0  0  0  0
   -4.5369   12.4735  -29.8149 C   0  0  0  0  0  0  0  0  0  0  0  0
   -6.2762   10.7980  -29.7454 C   0  0  0  0  0  0  0  0  0  0  0  0
   -5.5082   11.7693  -29.1032 C   0  0  0  0  0  0  0  0  0  0  0  0
   -2.9326   14.3613  -30.2005 C   0  0  0  0  0  0  0  0  0  0  0  0
   -3.6862   13.5226  -29.1737 C   0  0  0  0  0  0  0  0  0  0  0  0
   -6.8839    9.4953  -31.8067 C   0  0  0  0  0  0  0  0  0  0  0  0
   -7.2301   10.0968  -29.0665 O   0  0  0  0  0  0  0  0  0  0  0  0
   -6.5610    9.3570  -33.1259 F   0  0  0  0  0  0  0  0  0  0  0  0
   -6.7552    8.2452  -31.2738 F   0  0  0  0  0  0  0  0  0  0  0  0
   -8.2198    9.7702  -31.7819 F   0  0  0  0  0  0  0  0  0  0  0  0
   -5.7897   12.1266  -27.2548 Br  0  0  0  0  0  0  0  0  0  0  0  0
   -4.9367   11.0348  -32.8664 H   0  0  0  0  0  0  0  0  0  0  0  0
   -3.5798   12.7493  -31.7330 H   0  0  0  0  0  0  0  0  0  0  0  0
   -2.3056   13.7311  -30.8403 H   0  0  0  0  0  0  0  0  0  0  0  0
   -2.2847   15.0894  -29.7024 H   0  0  0  0  0  0  0  0  0  0  0  0
   -3.6263   14.9104  -30.8462 H   0  0  0  0  0  0  0  0  0  0  0  0
   -4.3049   14.1844  -28.5488 H   0  0  0  0  0  0  0  0  0  0  0  0
   -2.9643   13.0581  -28.4848 H   0  0  0  0  0  0  0  0  0  0  0  0
   -7.2602   10.3857  -28.1418 H   0  0  0  0  0  0  0  0  0  0  0  0
  1  2  1  0  0  0  0
  1  3  2  0  0  0  0
  2  4  2  0  0  0  0
  3  5  1  0  0  0  0
  3  9  1  0  0  0  0
  4  6  1  0  0  0  0
  4  8  1  0  0  0  0
  5  6  2  0  0  0  0
  5 10  1  0  0  0  0
  6 14  1  0  0  0  0
  7  8  1  0  0  0  0
  9 11  1  0  0  0  0
  9 12  1  0  0  0  0
  9 13  1  0  0  0  0
  1 15  1  0  0  0  0
  2 16  1  0  0  0  0
  7 17  1  0  0  0  0
  7 18  1  0  0  0  0
  7 19  1  0  0  0  0
  8 20  1  0  0  0  0
  8 21  1  0  0  0  0
 10 22  1  0  0  0  0
M  END
> <id>
EN300-39852291

> <smiles>
CCC=1C=CC(=C(O)C1Br)C(F)(F)F

> <IUPAC Name>
2-bromo-3-ethyl-6-(trifluoromethyl)phenol

> <CAS>
2707898-91-5

> <Purity>
95

> <URL>
https://www.enaminestore.com/catalog/EN300-39852291

> <ROCS_ShapeQuery>
_x1604L0AP1_x0771L0AP1

> <ROCS_TanimotoCombo>
0.885 

> <ROCS_ShapeTanimoto>
0.582 

> <ROCS_ColorTanimoto>
0.303 

> <ROCS_RefTversky>
0.512 

> <ROCS_RefColorTversky>
0.342 

> <ROCS_RefTverskyCombo>
0.854 

> <ROCS_FitTversky>
1.308 

> <ROCS_FitColorTversky>
0.728 

> <ROCS_FitTverskyCombo>
2.037 

> <ROCS_ColorScore>
-3.886

> <ROCS_Overlap>
869.059

> <ROCS_Rank>
431                 

$$$$
untitled-dbase-2064_0
  -OEChem-06042309053D

 16 17  0     0  0  0  0  0  0999 V2000
   -4.4784   12.1069  -31.4631 C   0  0  0  0  0  0  0  0  0  0  0  0
   -4.4079   12.1954  -30.0715 C   0  0  0  0  0  0  0  0  0  0  0  0
   -7.3684    9.9252  -32.0788 C   0  0  0  0  0  0  0  0  0  0  0  0
   -7.1269   10.0719  -33.4241 C   0  0  0  0  0  0  0  0  0  0  0  0
   -6.4342   10.6462  -31.2616 C   0  0  0  0  0  0  0  0  0  0  0  0
   -6.3357   10.7560  -29.8534 C   0  0  0  0  0  0  0  0  0  0  0  0
   -5.4978   11.3280  -32.0449 C   0  0  0  0  0  0  0  0  0  0  0  0
   -5.3257   11.5278  -29.2731 C   0  0  0  0  0  0  0  0  0  0  0  0
   -7.2391   10.0981  -29.0573 O   0  0  0  0  0  0  0  0  0  0  0  0
   -5.7808   11.0728  -33.7266 S   0  0  0  0  0  0  0  0  0  0  0  0
   -5.1747   11.6875  -27.3886 Br  0  0  0  0  0  0  0  0  0  0  0  0
   -3.7556   12.6328  -32.0804 H   0  0  0  0  0  0  0  0  0  0  0  0
   -3.6184   12.7989  -29.6294 H   0  0  0  0  0  0  0  0  0  0  0  0
   -8.1825    9.3248  -31.6920 H   0  0  0  0  0  0  0  0  0  0  0  0
   -7.6811    9.6355  -34.2432 H   0  0  0  0  0  0  0  0  0  0  0  0
   -7.0398   10.2713  -28.1273 H   0  0  0  0  0  0  0  0  0  0  0  0
  1  2  2  0  0  0  0
  1  7  1  0  0  0  0
  2  8  1  0  0  0  0
  3  4  2  0  0  0  0
  3  5  1  0  0  0  0
  4 10  1  0  0  0  0
  5  6  1  0  0  0  0
  5  7  2  0  0  0  0
  6  8  2  0  0  0  0
  6  9  1  0  0  0  0
  7 10  1  0  0  0  0
  8 11  1  0  0  0  0
  1 12  1  0  0  0  0
  2 13  1  0  0  0  0
  3 14  1  0  0  0  0
  4 15  1  0  0  0  0
  9 16  1  0  0  0  0
M  END
> <id>
EN300-7720333

> <smiles>
OC=1C(Br)=CC=C2SC=CC12

> <MDLNUMBER>
MFCD08706252

> <IUPAC Name>
5-bromo-1-benzothiophen-4-ol

> <CAS>
34576-98-2

> <Purity>
95

> <URL>
https://www.enaminestore.com/catalog/EN300-7720333

> <MP>
129-130

> <ROCS_ShapeQuery>
_x1604L0AP1_x0771L0AP1

> <ROCS_TanimotoCombo>
0.885 

> <ROCS_ShapeTanimoto>
0.486 

> <ROCS_ColorTanimoto>
0.400 

> <ROCS_RefTversky>
0.430 

> <ROCS_RefColorTversky>
0.420 

> <ROCS_RefTverskyCombo>
0.850 

> <ROCS_FitTversky>
1.361 

> <ROCS_FitColorTversky>
0.893 

> <ROCS_FitTverskyCombo>
2.254 

> <ROCS_ColorScore>
-4.772

> <ROCS_Overlap>
727.451

> <ROCS_Rank>
432                 

$$$$
untitled-dbase-1905_371
  -OEChem-06042309053D

 22 22  0     0  0  0  0  0  0999 V2000
   -4.3296   12.1068  -31.2705 C   0  0  0  0  0  0  0  0  0  0  0  0
   -5.1472   11.1798  -31.9168 C   0  0  0  0  0  0  0  0  0  0  0  0
   -4.4849   12.3406  -29.9041 C   0  0  0  0  0  0  0  0  0  0  0  0
   -6.1202   10.4866  -31.1969 C   0  0  0  0  0  0  0  0  0  0  0  0
   -6.2756   10.7204  -29.8305 C   0  0  0  0  0  0  0  0  0  0  0  0
   -5.4579   11.6474  -29.1842 C   0  0  0  0  0  0  0  0  0  0  0  0
   -7.0559    7.8531  -33.7858 C   0  0  0  0  0  0  0  0  0  0  0  0
   -6.9856    9.4994  -31.9088 C   0  0  0  0  0  0  0  0  0  0  0  0
   -6.4728    9.1585  -33.3127 C   0  0  0  0  0  0  0  0  0  0  0  0
   -6.3880    6.8722  -34.0847 O   0  0  0  0  0  0  0  0  0  0  0  0
   -7.2331   10.0355  -29.1402 O   0  0  0  0  0  0  0  0  0  0  0  0
   -8.4086    7.8935  -33.8716 O   0  0  0  0  0  0  0  0  0  0  0  0
   -5.1141    9.1077  -33.2969 F   0  0  0  0  0  0  0  0  0  0  0  0
   -6.8097   10.1607  -34.1680 F   0  0  0  0  0  0  0  0  0  0  0  0
   -5.6370   11.9926  -27.3287 Br  0  0  0  0  0  0  0  0  0  0  0  0
   -3.5716   12.6463  -31.8309 H   0  0  0  0  0  0  0  0  0  0  0  0
   -5.0178   11.0021  -32.9811 H   0  0  0  0  0  0  0  0  0  0  0  0
   -3.8381   13.0664  -29.4176 H   0  0  0  0  0  0  0  0  0  0  0  0
   -7.0639    8.5760  -31.3112 H   0  0  0  0  0  0  0  0  0  0  0  0
   -8.0147    9.8895  -31.9794 H   0  0  0  0  0  0  0  0  0  0  0  0
   -7.2242   10.3000  -28.2077 H   0  0  0  0  0  0  0  0  0  0  0  0
   -8.8204    7.0641  -34.1966 H   0  0  0  0  0  0  0  0  0  0  0  0
  1  2  1  0  0  0  0
  1  3  2  0  0  0  0
  2  4  2  0  0  0  0
  3  6  1  0  0  0  0
  4  5  1  0  0  0  0
  4  8  1  0  0  0  0
  5  6  2  0  0  0  0
  5 11  1  0  0  0  0
  6 15  1  0  0  0  0
  7  9  1  0  0  0  0
  7 10  2  0  0  0  0
  7 12  1  0  0  0  0
  8  9  1  0  0  0  0
  9 13  1  0  0  0  0
  9 14  1  0  0  0  0
  1 16  1  0  0  0  0
  2 17  1  0  0  0  0
  3 18  1  0  0  0  0
  8 19  1  0  0  0  0
  8 20  1  0  0  0  0
 11 21  1  0  0  0  0
 12 22  1  0  0  0  0
M  END
> <id>
EN300-1963208

> <smiles>
OC(=O)C(F)(F)CC=1C=CC=C(Br)C1O

> <IUPAC Name>
3-(3-bromo-2-hydroxyphenyl)-2,2-difluoropropanoic acid

> <CAS>
2228691-56-1

> <URL>
https://www.enaminestore.com/catalog/EN300-1963208

> <ROCS_ShapeQuery>
_x1604L0AP1_x0771L0AP1

> <ROCS_TanimotoCombo>
0.885 

> <ROCS_ShapeTanimoto>
0.562 

> <ROCS_ColorTanimoto>
0.323 

> <ROCS_RefTversky>
0.510 

> <ROCS_RefColorTversky>
0.398 

> <ROCS_RefTverskyCombo>
0.908 

> <ROCS_FitTversky>
1.224 

> <ROCS_FitColorTversky>
0.630 

> <ROCS_FitTverskyCombo>
1.854 

> <ROCS_ColorScore>
-4.566

> <ROCS_Overlap>
867.131

> <ROCS_Rank>
433                 

$$$$
untitled-dbase-687_904
  -OEChem-06042309053D

 27 27  0     1  0  0  0  0  0999 V2000
   -4.9492   11.1518  -31.7124 C   0  0  0  0  0  0  0  0  0  0  0  0
   -4.5845   12.5213  -29.7558 C   0  0  0  0  0  0  0  0  0  0  0  0
   -4.2669   12.1862  -31.0721 C   0  0  0  0  0  0  0  0  0  0  0  0
   -5.9492   10.4525  -31.0366 C   0  0  0  0  0  0  0  0  0  0  0  0
   -6.2668   10.7876  -29.7204 C   0  0  0  0  0  0  0  0  0  0  0  0
   -5.5844   11.8220  -29.0800 C   0  0  0  0  0  0  0  0  0  0  0  0
   -6.7453    8.9983  -34.0234 C   0  0  0  0  0  0  0  0  0  0  0  0
   -7.3176    9.7850  -32.8636 C   0  0  0  0  0  0  0  0  0  0  0  0
   -3.1044   14.3995  -31.3700 C   0  0  0  0  0  0  0  0  0  0  0  0
   -3.1972   12.9329  -31.7947 C   0  0  2  0  0  0  0  0  0  0  0  0
   -7.2473   10.0913  -29.0757 O   0  0  0  0  0  0  0  0  0  0  0  0
   -3.4511   12.8811  -33.2039 O   0  0  0  0  0  0  0  0  0  0  0  0
   -6.6063    9.4444  -31.6753 O   0  0  0  0  0  0  0  0  0  0  0  0
   -2.4462   14.4736  -30.1791 F   0  0  0  0  0  0  0  0  0  0  0  0
   -5.9879   12.3061  -27.2920 Br  0  0  0  0  0  0  0  0  0  0  0  0
   -4.7032   10.8885  -32.7384 H   0  0  0  0  0  0  0  0  0  0  0  0
   -4.0465   13.3293  -29.2648 H   0  0  0  0  0  0  0  0  0  0  0  0
   -5.6875    9.2336  -34.1704 H   0  0  0  0  0  0  0  0  0  0  0  0
   -6.8471    7.9224  -33.8477 H   0  0  0  0  0  0  0  0  0  0  0  0
   -7.2887    9.2228  -34.9473 H   0  0  0  0  0  0  0  0  0  0  0  0
   -8.3756    9.5451  -32.7220 H   0  0  0  0  0  0  0  0  0  0  0  0
   -7.2143   10.8598  -33.0404 H   0  0  0  0  0  0  0  0  0  0  0  0
   -4.0952   14.8404  -31.2233 H   0  0  0  0  0  0  0  0  0  0  0  0
   -2.5426   15.0032  -32.0895 H   0  0  0  0  0  0  0  0  0  0  0  0
   -2.2115   12.4617  -31.6483 H   0  0  0  0  0  0  0  0  0  0  0  0
   -7.6138    9.4121  -29.6622 H   0  0  0  0  0  0  0  0  0  0  0  0
   -2.7341   13.3765  -33.6244 H   0  0  0  0  0  0  0  0  0  0  0  0
  1  3  1  0  0  0  0
  1  4  2  0  0  0  0
  2  3  2  0  0  0  0
  2  6  1  0  0  0  0
  3 10  1  0  0  0  0
  4  5  1  0  0  0  0
  4 13  1  0  0  0  0
  5  6  2  0  0  0  0
  5 11  1  0  0  0  0
  6 15  1  0  0  0  0
  7  8  1  0  0  0  0
  8 13  1  0  0  0  0
  9 10  1  0  0  0  0
  9 14  1  0  0  0  0
 10 12  1  0  0  0  0
  1 16  1  0  0  0  0
  2 17  1  0  0  0  0
  7 18  1  0  0  0  0
  7 19  1  0  0  0  0
  7 20  1  0  0  0  0
  8 21  1  0  0  0  0
  8 22  1  0  0  0  0
  9 23  1  0  0  0  0
  9 24  1  0  0  0  0
 10 25  1  0  0  0  0
 11 26  1  0  0  0  0
 12 27  1  0  0  0  0
M  END
> <id>
EN300-1920263

> <smiles>
CCOC=1C=C(C=C(Br)C1O)C(O)CF

> <IUPAC Name>
2-bromo-6-ethoxy-4-(2-fluoro-1-hydroxyethyl)phenol

> <CAS>
2228942-06-9

> <URL>
https://www.enaminestore.com/catalog/EN300-1920263

> <ROCS_ShapeQuery>
_x1604L0AP1_x0771L0AP1

> <ROCS_TanimotoCombo>
0.885 

> <ROCS_ShapeTanimoto>
0.623 

> <ROCS_ColorTanimoto>
0.262 

> <ROCS_RefTversky>
0.539 

> <ROCS_RefColorTversky>
0.339 

> <ROCS_RefTverskyCombo>
0.878 

> <ROCS_FitTversky>
1.332 

> <ROCS_FitColorTversky>
0.537 

> <ROCS_FitTverskyCombo>
1.868 

> <ROCS_ColorScore>
-3.883

> <ROCS_Overlap>
916.480

> <ROCS_Rank>
434                 

$$$$
untitled-dbase-1204_56
  -OEChem-06042309053D

 20 20  0     1  0  0  0  0  0999 V2000
   -5.0194   11.1984  -31.7624 C   0  0  0  0  0  0  0  0  0  0  0  0
   -4.5745   12.5146  -29.7858 C   0  0  0  0  0  0  0  0  0  0  0  0
   -6.0023   10.4910  -31.0701 C   0  0  0  0  0  0  0  0  0  0  0  0
   -6.2713   10.7955  -29.7357 C   0  0  0  0  0  0  0  0  0  0  0  0
   -4.3055   12.2101  -31.1202 C   0  0  0  0  0  0  0  0  0  0  0  0
   -5.5574   11.8073  -29.0935 C   0  0  0  0  0  0  0  0  0  0  0  0
   -6.7549    9.4117  -31.7766 C   0  0  2  0  0  0  0  0  0  0  0  0
   -6.3395    9.2620  -33.2386 C   0  0  0  0  0  0  0  0  0  0  0  0
   -7.2358   10.0943  -29.0719 O   0  0  0  0  0  0  0  0  0  0  0  0
   -8.1626    9.6669  -31.7170 O   0  0  0  0  0  0  0  0  0  0  0  0
   -6.5985   10.4030  -33.9237 F   0  0  0  0  0  0  0  0  0  0  0  0
   -7.0712    8.2819  -33.8280 F   0  0  0  0  0  0  0  0  0  0  0  0
   -3.0926   13.0826  -31.9749 Cl  0  0  0  0  0  0  0  0  0  0  0  0
   -5.8940   12.2500  -27.2810 Br  0  0  0  0  0  0  0  0  0  0  0  0
   -4.8130   10.9582  -32.8032 H   0  0  0  0  0  0  0  0  0  0  0  0
   -4.0151   13.3040  -29.2886 H   0  0  0  0  0  0  0  0  0  0  0  0
   -6.6090    8.4435  -31.2713 H   0  0  0  0  0  0  0  0  0  0  0  0
   -5.2791    9.0163  -33.3499 H   0  0  0  0  0  0  0  0  0  0  0  0
   -7.3111   10.4138  -28.1600 H   0  0  0  0  0  0  0  0  0  0  0  0
   -8.3934    9.6866  -30.7773 H   0  0  0  0  0  0  0  0  0  0  0  0
  1  3  2  0  0  0  0
  1  5  1  0  0  0  0
  2  5  2  0  0  0  0
  2  6  1  0  0  0  0
  3  4  1  0  0  0  0
  3  7  1  0  0  0  0
  4  6  2  0  0  0  0
  4  9  1  0  0  0  0
  5 13  1  0  0  0  0
  6 14  1  0  0  0  0
  7  8  1  0  0  0  0
  7 10  1  0  0  0  0
  8 11  1  0  0  0  0
  8 12  1  0  0  0  0
  1 15  1  0  0  0  0
  2 16  1  0  0  0  0
  7 17  1  0  0  0  0
  8 18  1  0  0  0  0
  9 19  1  0  0  0  0
 10 20  1  0  0  0  0
M  END
> <id>
EN300-1942155

> <smiles>
OC(C(F)F)C=1C=C(Cl)C=C(Br)C1O

> <IUPAC Name>
2-bromo-4-chloro-6-(2,2-difluoro-1-hydroxyethyl)phenol

> <CAS>
2229107-17-7

> <URL>
https://www.enaminestore.com/catalog/EN300-1942155

> <ROCS_ShapeQuery>
_x1604L0AP1_x0771L0AP1

> <ROCS_TanimotoCombo>
0.885 

> <ROCS_ShapeTanimoto>
0.604 

> <ROCS_ColorTanimoto>
0.281 

> <ROCS_RefTversky>
0.520 

> <ROCS_RefColorTversky>
0.340 

> <ROCS_RefTverskyCombo>
0.861 

> <ROCS_FitTversky>
1.360 

> <ROCS_FitColorTversky>
0.618 

> <ROCS_FitTverskyCombo>
1.978 

> <ROCS_ColorScore>
-3.886

> <ROCS_Overlap>
883.283

> <ROCS_Rank>
435                 

$$$$
untitled-dbase-950_13
  -OEChem-06042309053D

 22 22  0     0  0  0  0  0  0999 V2000
   -2.9859   15.3659  -30.9626 C   0  0  0  0  0  0  0  0  0  0  0  0
   -3.0987   14.2450  -31.3780 C   0  0  0  0  0  0  0  0  0  0  0  0
   -4.5596   12.4490  -29.8018 C   0  0  0  0  0  0  0  0  0  0  0  0
   -5.0336   11.1280  -31.7682 C   0  0  0  0  0  0  0  0  0  0  0  0
   -4.3009   12.1320  -31.1352 C   0  0  0  0  0  0  0  0  0  0  0  0
   -5.5510   11.7619  -29.1012 C   0  0  0  0  0  0  0  0  0  0  0  0
   -6.2838   10.7579  -29.7342 C   0  0  0  0  0  0  0  0  0  0  0  0
   -6.0251   10.4409  -31.0677 C   0  0  0  0  0  0  0  0  0  0  0  0
   -4.9976   13.1217  -27.2303 C   0  0  0  0  0  0  0  0  0  0  0  0
   -3.2415   12.8674  -31.8841 C   0  0  0  0  0  0  0  0  0  0  0  0
   -7.2501   10.0979  -29.0325 O   0  0  0  0  0  0  0  0  0  0  0  0
   -5.7924   12.0834  -27.7995 O   0  0  0  0  0  0  0  0  0  0  0  0
   -7.0001    9.0829  -31.9616 Br  0  0  0  0  0  0  0  0  0  0  0  0
   -2.8864   16.3599  -30.5937 H   0  0  0  0  0  0  0  0  0  0  0  0
   -3.9899   13.2315  -29.3062 H   0  0  0  0  0  0  0  0  0  0  0  0
   -4.8248   10.8882  -32.8086 H   0  0  0  0  0  0  0  0  0  0  0  0
   -5.2917   13.2779  -26.1895 H   0  0  0  0  0  0  0  0  0  0  0  0
   -5.1366   14.0430  -27.8015 H   0  0  0  0  0  0  0  0  0  0  0  0
   -3.9463   12.8265  -27.2690 H   0  0  0  0  0  0  0  0  0  0  0  0
   -3.4716   12.8981  -32.9611 H   0  0  0  0  0  0  0  0  0  0  0  0
   -2.2726   12.3488  -31.8044 H   0  0  0  0  0  0  0  0  0  0  0  0
   -7.2977   10.4416  -28.1274 H   0  0  0  0  0  0  0  0  0  0  0  0
  1  2  3  0  0  0  0
  2 10  1  0  0  0  0
  3  5  1  0  0  0  0
  3  6  2  0  0  0  0
  4  5  2  0  0  0  0
  4  8  1  0  0  0  0
  5 10  1  0  0  0  0
  6  7  1  0  0  0  0
  6 12  1  0  0  0  0
  7  8  2  0  0  0  0
  7 11  1  0  0  0  0
  8 13  1  0  0  0  0
  9 12  1  0  0  0  0
  1 14  1  0  0  0  0
  3 15  1  0  0  0  0
  4 16  1  0  0  0  0
  9 17  1  0  0  0  0
  9 18  1  0  0  0  0
  9 19  1  0  0  0  0
 10 20  1  0  0  0  0
 10 21  1  0  0  0  0
 11 22  1  0  0  0  0
M  END
> <id>
EN300-1927015

> <smiles>
COC=1C=C(CC#C)C=C(Br)C1O

> <IUPAC Name>
2-bromo-6-methoxy-4-(prop-2-yn-1-yl)phenol

> <CAS>
2228268-92-4

> <URL>
https://www.enaminestore.com/catalog/EN300-1927015

> <ROCS_ShapeQuery>
_x1604L0AP1_x0771L0AP1

> <ROCS_TanimotoCombo>
0.885 

> <ROCS_ShapeTanimoto>
0.502 

> <ROCS_ColorTanimoto>
0.383 

> <ROCS_RefTversky>
0.454 

> <ROCS_RefColorTversky>
0.429 

> <ROCS_RefTverskyCombo>
0.883 

> <ROCS_FitTversky>
1.266 

> <ROCS_FitColorTversky>
0.779 

> <ROCS_FitTverskyCombo>
2.045 

> <ROCS_ColorScore>
-4.898

> <ROCS_Overlap>
770.130

> <ROCS_Rank>
436                 

$$$$
untitled-dbase-1550_77
  -OEChem-06042309053D

 23 23  0     1  0  0  0  0  0999 V2000
   -4.5967   12.4766  -29.8145 C   0  0  0  0  0  0  0  0  0  0  0  0
   -4.3190   12.1543  -31.1428 C   0  0  0  0  0  0  0  0  0  0  0  0
   -5.5855   11.7799  -29.1198 C   0  0  0  0  0  0  0  0  0  0  0  0
   -5.0302   11.1353  -31.7766 C   0  0  0  0  0  0  0  0  0  0  0  0
   -6.2967   10.7609  -29.7535 C   0  0  0  0  0  0  0  0  0  0  0  0
   -6.0190   10.4386  -31.0819 C   0  0  0  0  0  0  0  0  0  0  0  0
   -4.6949   10.8289  -33.2009 C   0  0  0  0  0  0  0  0  0  0  0  0
   -5.5293   11.6510  -34.1983 C   0  0  2  0  0  0  0  0  0  0  0  0
   -6.8975   11.0396  -34.4328 C   0  0  0  0  0  0  0  0  0  0  0  0
   -7.2562   10.1025  -29.0430 O   0  0  0  0  0  0  0  0  0  0  0  0
   -4.8374   11.6970  -35.4448 O   0  0  0  0  0  0  0  0  0  0  0  0
   -7.5873   11.7456  -35.3559 F   0  0  0  0  0  0  0  0  0  0  0  0
   -7.6291   11.0353  -33.2970 F   0  0  0  0  0  0  0  0  0  0  0  0
   -6.8052    9.7659  -34.8705 F   0  0  0  0  0  0  0  0  0  0  0  0
   -6.9955    9.0464  -31.9359 Br  0  0  0  0  0  0  0  0  0  0  0  0
   -4.0433   13.2703  -29.3212 H   0  0  0  0  0  0  0  0  0  0  0  0
   -3.5465   12.7038  -31.6747 H   0  0  0  0  0  0  0  0  0  0  0  0
   -5.7965   12.0372  -28.0852 H   0  0  0  0  0  0  0  0  0  0  0  0
   -4.8495    9.7528  -33.3837 H   0  0  0  0  0  0  0  0  0  0  0  0
   -3.6218   11.0113  -33.3792 H   0  0  0  0  0  0  0  0  0  0  0  0
   -5.6473   12.6804  -33.8409 H   0  0  0  0  0  0  0  0  0  0  0  0
   -7.6730    9.4228  -29.5949 H   0  0  0  0  0  0  0  0  0  0  0  0
   -5.3890   12.2202  -36.0463 H   0  0  0  0  0  0  0  0  0  0  0  0
  1  2  1  0  0  0  0
  1  3  2  0  0  0  0
  2  4  2  0  0  0  0
  3  5  1  0  0  0  0
  4  6  1  0  0  0  0
  4  7  1  0  0  0  0
  5  6  2  0  0  0  0
  5 10  1  0  0  0  0
  6 15  1  0  0  0  0
  7  8  1  0  0  0  0
  8  9  1  0  0  0  0
  8 11  1  0  0  0  0
  9 12  1  0  0  0  0
  9 13  1  0  0  0  0
  9 14  1  0  0  0  0
  1 16  1  0  0  0  0
  2 17  1  0  0  0  0
  3 18  1  0  0  0  0
  7 19  1  0  0  0  0
  7 20  1  0  0  0  0
  8 21  1  0  0  0  0
 10 22  1  0  0  0  0
 11 23  1  0  0  0  0
M  END
> <id>
EN300-1950767

> <smiles>
OC(CC=1C=CC=C(O)C1Br)C(F)(F)F

> <IUPAC Name>
2-bromo-3-(3,3,3-trifluoro-2-hydroxypropyl)phenol

> <CAS>
2228693-39-6

> <URL>
https://www.enaminestore.com/catalog/EN300-1950767

> <ROCS_ShapeQuery>
_x1604L0AP1_x0771L0AP1

> <ROCS_TanimotoCombo>
0.885 

> <ROCS_ShapeTanimoto>
0.504 

> <ROCS_ColorTanimoto>
0.381 

> <ROCS_RefTversky>
0.473 

> <ROCS_RefColorTversky>
0.428 

> <ROCS_RefTverskyCombo>
0.901 

> <ROCS_FitTversky>
1.146 

> <ROCS_FitColorTversky>
0.777 

> <ROCS_FitTverskyCombo>
1.923 

> <ROCS_ColorScore>
-4.882

> <ROCS_Overlap>
804.799

> <ROCS_Rank>
437                 

$$$$
untitled-dbase-631_1
  -OEChem-06042309053D

 18 18  0     0  0  0  0  0  0999 V2000
   -4.3592   12.1700  -31.2301 C   0  0  0  0  0  0  0  0  0  0  0  0
   -5.0731   11.1232  -31.8132 C   0  0  0  0  0  0  0  0  0  0  0  0
   -5.5802   11.8548  -29.1693 C   0  0  0  0  0  0  0  0  0  0  0  0
   -4.6127   12.5359  -29.9081 C   0  0  0  0  0  0  0  0  0  0  0  0
   -6.2941   10.8080  -29.7524 C   0  0  0  0  0  0  0  0  0  0  0  0
   -6.0405   10.4421  -31.0744 C   0  0  0  0  0  0  0  0  0  0  0  0
   -5.8461   12.2351  -27.7861 C   0  0  0  0  0  0  0  0  0  0  0  0
   -3.8316   13.6610  -29.3106 C   0  0  0  0  0  0  0  0  0  0  0  0
   -6.2327   11.4339  -26.9343 O   0  0  0  0  0  0  0  0  0  0  0  0
   -7.2385   10.1472  -29.0208 O   0  0  0  0  0  0  0  0  0  0  0  0
   -6.9899    9.0261  -31.9038 Br  0  0  0  0  0  0  0  0  0  0  0  0
   -3.6080   12.6948  -31.8145 H   0  0  0  0  0  0  0  0  0  0  0  0
   -4.8620   10.8522  -32.8446 H   0  0  0  0  0  0  0  0  0  0  0  0
   -5.6863   13.2987  -27.5131 H   0  0  0  0  0  0  0  0  0  0  0  0
   -4.3476   14.6128  -29.4804 H   0  0  0  0  0  0  0  0  0  0  0  0
   -3.7000   13.5216  -28.2309 H   0  0  0  0  0  0  0  0  0  0  0  0
   -2.8285   13.7230  -29.7498 H   0  0  0  0  0  0  0  0  0  0  0  0
   -7.2898   10.5219  -28.1286 H   0  0  0  0  0  0  0  0  0  0  0  0
  1  2  1  0  0  0  0
  1  4  2  0  0  0  0
  2  6  2  0  0  0  0
  3  4  1  0  0  0  0
  3  5  2  0  0  0  0
  3  7  1  0  0  0  0
  4  8  1  0  0  0  0
  5  6  1  0  0  0  0
  5 10  1  0  0  0  0
  6 11  1  0  0  0  0
  7  9  2  0  0  0  0
  1 12  1  0  0  0  0
  2 13  1  0  0  0  0
  7 14  1  0  0  0  0
  8 15  1  0  0  0  0
  8 16  1  0  0  0  0
  8 17  1  0  0  0  0
 10 18  1  0  0  0  0
M  END
> <id>
EN300-180454

> <smiles>
CC=1C=CC(Br)=C(O)C1C=O

> <MDLNUMBER>
MFCD16657857

> <IUPAC Name>
3-bromo-2-hydroxy-6-methylbenzaldehyde

> <CAS>
160561-95-5

> <Purity>
95

> <URL>
https://www.enaminestore.com/catalog/EN300-180454

> <ROCS_ShapeQuery>
_x1604L0AP1_x0771L0AP1

> <ROCS_TanimotoCombo>
0.885 

> <ROCS_ShapeTanimoto>
0.460 

> <ROCS_ColorTanimoto>
0.424 

> <ROCS_RefTversky>
0.414 

> <ROCS_RefColorTversky>
0.438 

> <ROCS_RefTverskyCombo>
0.852 

> <ROCS_FitTversky>
1.318 

> <ROCS_FitColorTversky>
0.932 

> <ROCS_FitTverskyCombo>
2.250 

> <ROCS_ColorScore>
-4.974

> <ROCS_Overlap>
700.765

> <ROCS_Rank>
438                 

$$$$
untitled-dbase-1015_112
  -OEChem-06042309053D

 30 30  0     0  0  0  0  0  0999 V2000
   -2.6623   14.0673  -30.9626 C   0  0  0  0  0  0  0  0  0  0  0  0
   -4.9723   11.1722  -31.7217 C   0  0  0  0  0  0  0  0  0  0  0  0
   -4.6250   12.5582  -29.7736 C   0  0  0  0  0  0  0  0  0  0  0  0
   -4.3062   12.2218  -31.0892 C   0  0  0  0  0  0  0  0  0  0  0  0
   -5.9575   10.4590  -31.0386 C   0  0  0  0  0  0  0  0  0  0  0  0
   -6.2763   10.7954  -29.7230 C   0  0  0  0  0  0  0  0  0  0  0  0
   -5.6101   11.8450  -29.0905 C   0  0  0  0  0  0  0  0  0  0  0  0
   -6.7382    8.9752  -34.0149 C   0  0  0  0  0  0  0  0  0  0  0  0
   -3.7220   13.7000  -33.1284 C   0  0  0  0  0  0  0  0  0  0  0  0
   -2.0842   12.0450  -32.2526 C   0  0  0  0  0  0  0  0  0  0  0  0
   -7.3202    9.7577  -32.8571 C   0  0  0  0  0  0  0  0  0  0  0  0
   -3.2524   12.9835  -31.8196 C   0  0  0  0  0  0  0  0  0  0  0  0
   -2.2252   14.8967  -30.2783 N   0  0  0  0  0  0  0  0  0  0  0  0
   -7.2420   10.0852  -29.0712 O   0  0  0  0  0  0  0  0  0  0  0  0
   -6.5989    9.4360  -31.6696 O   0  0  0  0  0  0  0  0  0  0  0  0
   -6.0158   12.3313  -27.3036 Br  0  0  0  0  0  0  0  0  0  0  0  0
   -4.7254   10.9079  -32.7472 H   0  0  0  0  0  0  0  0  0  0  0  0
   -4.0996   13.3782  -29.2887 H   0  0  0  0  0  0  0  0  0  0  0  0
   -5.6852    9.2283  -34.1669 H   0  0  0  0  0  0  0  0  0  0  0  0
   -6.8204    7.8985  -33.8332 H   0  0  0  0  0  0  0  0  0  0  0  0
   -7.2887    9.1851  -34.9380 H   0  0  0  0  0  0  0  0  0  0  0  0
   -4.1726   12.9842  -33.8271 H   0  0  0  0  0  0  0  0  0  0  0  0
   -2.8789   14.1856  -33.6336 H   0  0  0  0  0  0  0  0  0  0  0  0
   -4.4763   14.4748  -32.9403 H   0  0  0  0  0  0  0  0  0  0  0  0
   -2.4398   11.2233  -32.8854 H   0  0  0  0  0  0  0  0  0  0  0  0
   -1.3384   12.6059  -32.8285 H   0  0  0  0  0  0  0  0  0  0  0  0
   -1.5703   11.5840  -31.3999 H   0  0  0  0  0  0  0  0  0  0  0  0
   -8.3733    9.5000  -32.7105 H   0  0  0  0  0  0  0  0  0  0  0  0
   -7.2365   10.8332  -33.0399 H   0  0  0  0  0  0  0  0  0  0  0  0
   -7.5986    9.3966  -29.6527 H   0  0  0  0  0  0  0  0  0  0  0  0
  1 12  1  0  0  0  0
  1 13  3  0  0  0  0
  2  4  1  0  0  0  0
  2  5  2  0  0  0  0
  3  4  2  0  0  0  0
  3  7  1  0  0  0  0
  4 12  1  0  0  0  0
  5  6  1  0  0  0  0
  5 15  1  0  0  0  0
  6  7  2  0  0  0  0
  6 14  1  0  0  0  0
  7 16  1  0  0  0  0
  8 11  1  0  0  0  0
  9 12  1  0  0  0  0
 10 12  1  0  0  0  0
 11 15  1  0  0  0  0
  2 17  1  0  0  0  0
  3 18  1  0  0  0  0
  8 19  1  0  0  0  0
  8 20  1  0  0  0  0
  8 21  1  0  0  0  0
  9 22  1  0  0  0  0
  9 23  1  0  0  0  0
  9 24  1  0  0  0  0
 10 25  1  0  0  0  0
 10 26  1  0  0  0  0
 10 27  1  0  0  0  0
 11 28  1  0  0  0  0
 11 29  1  0  0  0  0
 14 30  1  0  0  0  0
M  END
> <id>
EN300-1920246

> <smiles>
CCOC=1C=C(C=C(Br)C1O)C(C)(C)C#N

> <IUPAC Name>
2-(3-bromo-5-ethoxy-4-hydroxyphenyl)-2-methylpropanenitrile

> <CAS>
2228186-00-1

> <URL>
https://www.enaminestore.com/catalog/EN300-1920246

> <ROCS_ShapeQuery>
_x1604L0AP1_x0771L0AP1

> <ROCS_TanimotoCombo>
0.884 

> <ROCS_ShapeTanimoto>
0.622 

> <ROCS_ColorTanimoto>
0.262 

> <ROCS_RefTversky>
0.548 

> <ROCS_RefColorTversky>
0.339 

> <ROCS_RefTverskyCombo>
0.887 

> <ROCS_FitTversky>
1.279 

> <ROCS_FitColorTversky>
0.537 

> <ROCS_FitTverskyCombo>
1.816 

> <ROCS_ColorScore>
-3.884

> <ROCS_Overlap>
932.294

> <ROCS_Rank>
439                 

$$$$
untitled-dbase-429_162
  -OEChem-06042309053D

 27 27  0     1  0  0  0  0  0999 V2000
   -2.6974   14.0916  -31.0286 C   0  0  0  0  0  0  0  0  0  0  0  0
   -4.9853   11.1733  -31.7331 C   0  0  0  0  0  0  0  0  0  0  0  0
   -4.6277   12.5590  -29.7867 C   0  0  0  0  0  0  0  0  0  0  0  0
   -4.3159   12.2229  -31.1040 C   0  0  0  0  0  0  0  0  0  0  0  0
   -5.9667   10.4599  -31.0449 C   0  0  0  0  0  0  0  0  0  0  0  0
   -6.2786   10.7960  -29.7276 C   0  0  0  0  0  0  0  0  0  0  0  0
   -5.6091   11.8456  -29.0984 C   0  0  0  0  0  0  0  0  0  0  0  0
   -6.7632    8.9765  -34.0173 C   0  0  0  0  0  0  0  0  0  0  0  0
   -2.1259   12.0857  -32.3553 C   0  0  0  0  0  0  0  0  0  0  0  0
   -7.3391    9.7589  -32.8563 C   0  0  0  0  0  0  0  0  0  0  0  0
   -3.2661   12.9848  -31.8398 C   0  0  2  0  0  0  0  0  0  0  0  0
   -2.2640   14.9532  -30.3830 N   0  0  0  0  0  0  0  0  0  0  0  0
   -7.2408   10.0857  -29.0708 O   0  0  0  0  0  0  0  0  0  0  0  0
   -6.6114    9.4370  -31.6727 O   0  0  0  0  0  0  0  0  0  0  0  0
   -6.0054   12.3315  -27.3093 Br  0  0  0  0  0  0  0  0  0  0  0  0
   -4.7438   10.9092  -32.7599 H   0  0  0  0  0  0  0  0  0  0  0  0
   -4.0999   13.3789  -29.3044 H   0  0  0  0  0  0  0  0  0  0  0  0
   -5.7111    9.2297  -34.1748 H   0  0  0  0  0  0  0  0  0  0  0  0
   -6.8443    7.8999  -33.8354 H   0  0  0  0  0  0  0  0  0  0  0  0
   -7.3186    9.1866  -34.9374 H   0  0  0  0  0  0  0  0  0  0  0  0
   -1.6312   11.5772  -31.5201 H   0  0  0  0  0  0  0  0  0  0  0  0
   -1.3650   12.6612  -32.8951 H   0  0  0  0  0  0  0  0  0  0  0  0
   -2.4981   11.3176  -33.0432 H   0  0  0  0  0  0  0  0  0  0  0  0
   -8.3914    9.5010  -32.7042 H   0  0  0  0  0  0  0  0  0  0  0  0
   -7.2565   10.8344  -33.0393 H   0  0  0  0  0  0  0  0  0  0  0  0
   -3.7059   13.4545  -32.7404 H   0  0  0  0  0  0  0  0  0  0  0  0
   -7.6004    9.3971  -29.6506 H   0  0  0  0  0  0  0  0  0  0  0  0
  1 11  1  0  0  0  0
  1 12  3  0  0  0  0
  2  4  1  0  0  0  0
  2  5  2  0  0  0  0
  3  4  2  0  0  0  0
  3  7  1  0  0  0  0
  4 11  1  0  0  0  0
  5  6  1  0  0  0  0
  5 14  1  0  0  0  0
  6  7  2  0  0  0  0
  6 13  1  0  0  0  0
  7 15  1  0  0  0  0
  8 10  1  0  0  0  0
  9 11  1  0  0  0  0
 10 14  1  0  0  0  0
  2 16  1  0  0  0  0
  3 17  1  0  0  0  0
  8 18  1  0  0  0  0
  8 19  1  0  0  0  0
  8 20  1  0  0  0  0
  9 21  1  0  0  0  0
  9 22  1  0  0  0  0
  9 23  1  0  0  0  0
 10 24  1  0  0  0  0
 10 25  1  0  0  0  0
 11 26  1  0  0  0  0
 13 27  1  0  0  0  0
M  END
> <id>
EN300-1920243

> <smiles>
CCOC=1C=C(C=C(Br)C1O)C(C)C#N

> <IUPAC Name>
2-(3-bromo-5-ethoxy-4-hydroxyphenyl)propanenitrile

> <CAS>
2228163-27-5

> <URL>
https://www.enaminestore.com/catalog/EN300-1920243

> <ROCS_ShapeQuery>
_x1604L0AP1_x0771L0AP1

> <ROCS_TanimotoCombo>
0.884 

> <ROCS_ShapeTanimoto>
0.622 

> <ROCS_ColorTanimoto>
0.262 

> <ROCS_RefTversky>
0.538 

> <ROCS_RefColorTversky>
0.339 

> <ROCS_RefTverskyCombo>
0.877 

> <ROCS_FitTversky>
1.333 

> <ROCS_FitColorTversky>
0.537 

> <ROCS_FitTverskyCombo>
1.870 

> <ROCS_ColorScore>
-3.885

> <ROCS_Overlap>
914.903

> <ROCS_Rank>
440                 

$$$$
untitled-dbase-1924_0
  -OEChem-06042309053D

 15 15  0     0  0  0  0  0  0999 V2000
   -4.3383   12.1492  -31.2279 C   0  0  0  0  0  0  0  0  0  0  0  0
   -5.0782   11.1260  -31.8207 C   0  0  0  0  0  0  0  0  0  0  0  0
   -5.5330   11.8122  -29.1551 C   0  0  0  0  0  0  0  0  0  0  0  0
   -6.2729   10.7891  -29.7479 C   0  0  0  0  0  0  0  0  0  0  0  0
   -4.5657   12.4922  -29.8951 C   0  0  0  0  0  0  0  0  0  0  0  0
   -6.0455   10.4460  -31.0807 C   0  0  0  0  0  0  0  0  0  0  0  0
   -5.7546   12.1856  -27.7644 C   0  0  0  0  0  0  0  0  0  0  0  0
   -6.5899   11.6328  -27.0459 O   0  0  0  0  0  0  0  0  0  0  0  0
   -7.2169   10.1309  -29.0136 O   0  0  0  0  0  0  0  0  0  0  0  0
   -3.8476   13.4769  -29.3365 F   0  0  0  0  0  0  0  0  0  0  0  0
   -7.0302    9.0623  -31.9230 Br  0  0  0  0  0  0  0  0  0  0  0  0
   -3.5849   12.6782  -31.8040 H   0  0  0  0  0  0  0  0  0  0  0  0
   -4.8871   10.8725  -32.8602 H   0  0  0  0  0  0  0  0  0  0  0  0
   -5.1322   13.0083  -27.3530 H   0  0  0  0  0  0  0  0  0  0  0  0
   -7.2477   10.4896  -28.1139 H   0  0  0  0  0  0  0  0  0  0  0  0
  1  2  2  0  0  0  0
  1  5  1  0  0  0  0
  2  6  1  0  0  0  0
  3  4  1  0  0  0  0
  3  5  2  0  0  0  0
  3  7  1  0  0  0  0
  4  6  2  0  0  0  0
  4  9  1  0  0  0  0
  5 10  1  0  0  0  0
  6 11  1  0  0  0  0
  7  8  2  0  0  0  0
  1 12  1  0  0  0  0
  2 13  1  0  0  0  0
  7 14  1  0  0  0  0
  9 15  1  0  0  0  0
M  END
> <id>
EN300-306187

> <smiles>
OC=1C(Br)=CC=C(F)C1C=O

> <MDLNUMBER>
MFCD20528359

> <IUPAC Name>
3-bromo-6-fluoro-2-hydroxybenzaldehyde

> <CAS>
199287-82-6

> <Purity>
95

> <URL>
https://www.enaminestore.com/catalog/EN300-306187

> <ROCS_ShapeQuery>
_x1604L0AP1_x0771L0AP1

> <ROCS_TanimotoCombo>
0.884 

> <ROCS_ShapeTanimoto>
0.460 

> <ROCS_ColorTanimoto>
0.424 

> <ROCS_RefTversky>
0.415 

> <ROCS_RefColorTversky>
0.437 

> <ROCS_RefTverskyCombo>
0.853 

> <ROCS_FitTversky>
1.306 

> <ROCS_FitColorTversky>
0.931 

> <ROCS_FitTverskyCombo>
2.238 

> <ROCS_ColorScore>
-4.972

> <ROCS_Overlap>
702.618

> <ROCS_Rank>
441                 

$$$$
untitled-dbase-1074_242
  -OEChem-06042309053D

 27 27  0     1  0  0  0  0  0999 V2000
   -4.5729   12.4605  -29.8051 C   0  0  0  0  0  0  0  0  0  0  0  0
   -5.0431   11.1369  -31.7707 C   0  0  0  0  0  0  0  0  0  0  0  0
   -4.3143   12.1444  -31.1388 C   0  0  0  0  0  0  0  0  0  0  0  0
   -5.5603   11.7690  -29.1032 C   0  0  0  0  0  0  0  0  0  0  0  0
   -6.2892   10.7615  -29.7352 C   0  0  0  0  0  0  0  0  0  0  0  0
   -6.0306   10.4454  -31.0689 C   0  0  0  0  0  0  0  0  0  0  0  0
   -4.3693   15.1355  -31.5024 C   0  0  0  0  0  0  0  0  0  0  0  0
   -6.7787   13.0983  -27.5527 C   0  0  0  0  0  0  0  0  0  0  0  0
   -3.2591   12.8845  -31.8890 C   0  0  0  0  0  0  0  0  0  0  0  0
   -3.0789   14.3327  -31.3955 C   0  0  2  0  0  0  0  0  0  0  0  0
   -7.2516   10.0972  -29.0322 O   0  0  0  0  0  0  0  0  0  0  0  0
   -2.6645   14.3266  -30.0306 O   0  0  0  0  0  0  0  0  0  0  0  0
   -5.8017   12.0895  -27.8013 O   0  0  0  0  0  0  0  0  0  0  0  0
   -7.0004    9.0828  -31.9615 Br  0  0  0  0  0  0  0  0  0  0  0  0
   -4.0062   13.2457  -29.3103 H   0  0  0  0  0  0  0  0  0  0  0  0
   -4.8345   10.8979  -32.8113 H   0  0  0  0  0  0  0  0  0  0  0  0
   -5.1774   14.6594  -30.9363 H   0  0  0  0  0  0  0  0  0  0  0  0
   -4.2343   16.1555  -31.1299 H   0  0  0  0  0  0  0  0  0  0  0  0
   -4.7022   15.1855  -32.5448 H   0  0  0  0  0  0  0  0  0  0  0  0
   -6.8737   13.2571  -26.4757 H   0  0  0  0  0  0  0  0  0  0  0  0
   -7.7390   12.7880  -27.9723 H   0  0  0  0  0  0  0  0  0  0  0  0
   -6.4586   14.0282  -28.0289 H   0  0  0  0  0  0  0  0  0  0  0  0
   -2.2972   12.3476  -31.8150 H   0  0  0  0  0  0  0  0  0  0  0  0
   -3.5112   12.8918  -32.9635 H   0  0  0  0  0  0  0  0  0  0  0  0
   -2.2965   14.8381  -31.9723 H   0  0  0  0  0  0  0  0  0  0  0  0
   -7.2998   10.4408  -28.1271 H   0  0  0  0  0  0  0  0  0  0  0  0
   -1.8447   13.8105  -29.9944 H   0  0  0  0  0  0  0  0  0  0  0  0
  1  3  1  0  0  0  0
  1  4  2  0  0  0  0
  2  3  2  0  0  0  0
  2  6  1  0  0  0  0
  3  9  1  0  0  0  0
  4  5  1  0  0  0  0
  4 13  1  0  0  0  0
  5  6  2  0  0  0  0
  5 11  1  0  0  0  0
  6 14  1  0  0  0  0
  7 10  1  1  0  0  0
  8 13  1  0  0  0  0
  9 10  1  0  0  0  0
 10 12  1  0  0  0  0
  1 15  1  0  0  0  0
  2 16  1  0  0  0  0
  7 17  1  0  0  0  0
  7 18  1  0  0  0  0
  7 19  1  0  0  0  0
  8 20  1  0  0  0  0
  8 21  1  0  0  0  0
  8 22  1  0  0  0  0
  9 23  1  0  0  0  0
  9 24  1  0  0  0  0
 10 25  1  0  0  0  0
 11 26  1  0  0  0  0
 12 27  1  0  0  0  0
M  END
> <id>
EN300-1927012

> <smiles>
COC=1C=C(C[C@@H](C)O)C=C(Br)C1O

> <IUPAC Name>
2-bromo-4-[(2R)-2-hydroxypropyl]-6-methoxyphenol

> <CAS>
2227685-76-7

> <URL>
https://www.enaminestore.com/catalog/EN300-1927012

> <ROCS_ShapeQuery>
_x1604L0AP1_x0771L0AP1

> <ROCS_TanimotoCombo>
0.884 

> <ROCS_ShapeTanimoto>
0.529 

> <ROCS_ColorTanimoto>
0.355 

> <ROCS_RefTversky>
0.477 

> <ROCS_RefColorTversky>
0.427 

> <ROCS_RefTverskyCombo>
0.904 

> <ROCS_FitTversky>
1.258 

> <ROCS_FitColorTversky>
0.677 

> <ROCS_FitTverskyCombo>
1.935 

> <ROCS_ColorScore>
-4.898

> <ROCS_Overlap>
809.930

> <ROCS_Rank>
442                 

$$$$
untitled-dbase-1706_904
  -OEChem-06042309053D

 28 28  0     1  0  0  0  0  0999 V2000
   -4.9496   11.1495  -31.7134 C   0  0  0  0  0  0  0  0  0  0  0  0
   -4.5902   12.5265  -29.7611 C   0  0  0  0  0  0  0  0  0  0  0  0
   -4.2708   12.1880  -31.0761 C   0  0  0  0  0  0  0  0  0  0  0  0
   -5.9478   10.4494  -31.0358 C   0  0  0  0  0  0  0  0  0  0  0  0
   -6.2672   10.7879  -29.7209 C   0  0  0  0  0  0  0  0  0  0  0  0
   -5.5884   11.8264  -29.0835 C   0  0  0  0  0  0  0  0  0  0  0  0
   -6.7377    8.9829  -34.0183 C   0  0  0  0  0  0  0  0  0  0  0  0
   -3.0694   14.4019  -31.3672 C   0  0  0  0  0  0  0  0  0  0  0  0
   -7.3131    9.7717  -32.8614 C   0  0  0  0  0  0  0  0  0  0  0  0
   -3.2029   12.9356  -31.8005 C   0  0  2  0  0  0  0  0  0  0  0  0
   -2.3376   14.5416  -30.1359 N   0  0  0  0  0  0  0  0  0  0  0  0
   -7.2460   10.0907  -29.0745 O   0  0  0  0  0  0  0  0  0  0  0  0
   -6.6015    9.4371  -31.6715 O   0  0  0  0  0  0  0  0  0  0  0  0
   -3.3578   12.9325  -33.1662 F   0  0  0  0  0  0  0  0  0  0  0  0
   -5.9944   12.3152  -27.2974 Br  0  0  0  0  0  0  0  0  0  0  0  0
   -4.7022   10.8835  -32.7383 H   0  0  0  0  0  0  0  0  0  0  0  0
   -4.0549   13.3377  -29.2724 H   0  0  0  0  0  0  0  0  0  0  0  0
   -5.6806    9.2208  -34.1653 H   0  0  0  0  0  0  0  0  0  0  0  0
   -6.8364    7.9072  -33.8390 H   0  0  0  0  0  0  0  0  0  0  0  0
   -7.2812    9.2026  -34.9432 H   0  0  0  0  0  0  0  0  0  0  0  0
   -2.5526   14.9971  -32.1266 H   0  0  0  0  0  0  0  0  0  0  0  0
   -4.0561   14.8415  -31.1910 H   0  0  0  0  0  0  0  0  0  0  0  0
   -8.3705    9.5290  -32.7196 H   0  0  0  0  0  0  0  0  0  0  0  0
   -7.2129   10.8461  -33.0417 H   0  0  0  0  0  0  0  0  0  0  0  0
   -2.2353   12.4372  -31.6268 H   0  0  0  0  0  0  0  0  0  0  0  0
   -1.4039   14.2097  -30.2652 H   0  0  0  0  0  0  0  0  0  0  0  0
   -2.3166   15.5049  -29.8704 H   0  0  0  0  0  0  0  0  0  0  0  0
   -7.6101    9.4085  -29.6589 H   0  0  0  0  0  0  0  0  0  0  0  0
  1  3  1  0  0  0  0
  1  4  2  0  0  0  0
  2  3  2  0  0  0  0
  2  6  1  0  0  0  0
  3 10  1  0  0  0  0
  4  5  1  0  0  0  0
  4 13  1  0  0  0  0
  5  6  2  0  0  0  0
  5 12  1  0  0  0  0
  6 15  1  0  0  0  0
  7  9  1  0  0  0  0
  8 10  1  0  0  0  0
  8 11  1  0  0  0  0
  9 13  1  0  0  0  0
 10 14  1  0  0  0  0
  1 16  1  0  0  0  0
  2 17  1  0  0  0  0
  7 18  1  0  0  0  0
  7 19  1  0  0  0  0
  7 20  1  0  0  0  0
  8 21  1  0  0  0  0
  8 22  1  0  0  0  0
  9 23  1  0  0  0  0
  9 24  1  0  0  0  0
 10 25  1  0  0  0  0
 11 26  1  0  0  0  0
 11 27  1  0  0  0  0
 12 28  1  0  0  0  0
M  END
> <id>
EN300-1920271

> <smiles>
CCOC=1C=C(C=C(Br)C1O)C(F)CN

> <IUPAC Name>
4-(2-amino-1-fluoroethyl)-2-bromo-6-ethoxyphenol

> <CAS>
2228999-34-4

> <URL>
https://www.enaminestore.com/catalog/EN300-1920271

> <ROCS_ShapeQuery>
_x1604L0AP1_x0771L0AP1

> <ROCS_TanimotoCombo>
0.884 

> <ROCS_ShapeTanimoto>
0.622 

> <ROCS_ColorTanimoto>
0.262 

> <ROCS_RefTversky>
0.538 

> <ROCS_RefColorTversky>
0.339 

> <ROCS_RefTverskyCombo>
0.877 

> <ROCS_FitTversky>
1.332 

> <ROCS_FitColorTversky>
0.537 

> <ROCS_FitTverskyCombo>
1.869 

> <ROCS_ColorScore>
-3.884

> <ROCS_Overlap>
914.835

> <ROCS_Rank>
443                 

$$$$
untitled-dbase-897_101
  -OEChem-06042309053D

 31 31  0     0  0  0  0  0  0999 V2000
   -2.1836   14.9026  -30.2417 C   0  0  0  0  0  0  0  0  0  0  0  0
   -2.6411   14.0490  -30.9520 C   0  0  0  0  0  0  0  0  0  0  0  0
   -4.9693   11.1696  -31.7206 C   0  0  0  0  0  0  0  0  0  0  0  0
   -4.6125   12.5463  -29.7676 C   0  0  0  0  0  0  0  0  0  0  0  0
   -4.2965   12.2129  -31.0846 C   0  0  0  0  0  0  0  0  0  0  0  0
   -5.9582   10.4596  -31.0395 C   0  0  0  0  0  0  0  0  0  0  0  0
   -6.2742   10.7930  -29.7224 C   0  0  0  0  0  0  0  0  0  0  0  0
   -5.6014   11.8363  -29.0864 C   0  0  0  0  0  0  0  0  0  0  0  0
   -6.7495    8.9915  -34.0208 C   0  0  0  0  0  0  0  0  0  0  0  0
   -2.0763   12.0273  -32.2522 C   0  0  0  0  0  0  0  0  0  0  0  0
   -3.7055   13.6940  -33.1198 C   0  0  0  0  0  0  0  0  0  0  0  0
   -7.3262    9.7732  -32.8597 C   0  0  0  0  0  0  0  0  0  0  0  0
   -3.2067   12.9940  -31.8349 C   0  0  0  0  0  0  0  0  0  0  0  0
   -7.2437   10.0862  -29.0726 O   0  0  0  0  0  0  0  0  0  0  0  0
   -6.6060    9.4428  -31.6739 O   0  0  0  0  0  0  0  0  0  0  0  0
   -6.0031   12.3184  -27.2975 Br  0  0  0  0  0  0  0  0  0  0  0  0
   -1.7780   15.6595  -29.6120 H   0  0  0  0  0  0  0  0  0  0  0  0
   -4.7245   10.9076  -32.7472 H   0  0  0  0  0  0  0  0  0  0  0  0
   -4.0820   13.3613  -29.2800 H   0  0  0  0  0  0  0  0  0  0  0  0
   -5.6952    9.2389  -34.1725 H   0  0  0  0  0  0  0  0  0  0  0  0
   -6.8379    7.9147  -33.8430 H   0  0  0  0  0  0  0  0  0  0  0  0
   -7.2994    9.2081  -34.9427 H   0  0  0  0  0  0  0  0  0  0  0  0
   -2.4346   11.2244  -32.9070 H   0  0  0  0  0  0  0  0  0  0  0  0
   -1.6257   11.5408  -31.3782 H   0  0  0  0  0  0  0  0  0  0  0  0
   -1.2794   12.5580  -32.7868 H   0  0  0  0  0  0  0  0  0  0  0  0
   -4.1390   12.9716  -33.8232 H   0  0  0  0  0  0  0  0  0  0  0  0
   -4.4810   14.4373  -32.9006 H   0  0  0  0  0  0  0  0  0  0  0  0
   -2.8885   14.1989  -33.6500 H   0  0  0  0  0  0  0  0  0  0  0  0
   -8.3807    9.5211  -32.7134 H   0  0  0  0  0  0  0  0  0  0  0  0
   -7.2363   10.8488  -33.0385 H   0  0  0  0  0  0  0  0  0  0  0  0
   -7.6047    9.4018  -29.6565 H   0  0  0  0  0  0  0  0  0  0  0  0
  1  2  3  0  0  0  0
  2 13  1  0  0  0  0
  3  5  1  0  0  0  0
  3  6  2  0  0  0  0
  4  5  2  0  0  0  0
  4  8  1  0  0  0  0
  5 13  1  0  0  0  0
  6  7  1  0  0  0  0
  6 15  1  0  0  0  0
  7  8  2  0  0  0  0
  7 14  1  0  0  0  0
  8 16  1  0  0  0  0
  9 12  1  0  0  0  0
 10 13  1  0  0  0  0
 11 13  1  0  0  0  0
 12 15  1  0  0  0  0
  1 17  1  0  0  0  0
  3 18  1  0  0  0  0
  4 19  1  0  0  0  0
  9 20  1  0  0  0  0
  9 21  1  0  0  0  0
  9 22  1  0  0  0  0
 10 23  1  0  0  0  0
 10 24  1  0  0  0  0
 10 25  1  0  0  0  0
 11 26  1  0  0  0  0
 11 27  1  0  0  0  0
 11 28  1  0  0  0  0
 12 29  1  0  0  0  0
 12 30  1  0  0  0  0
 14 31  1  0  0  0  0
M  END
> <id>
EN300-1920244

> <smiles>
CCOC=1C=C(C=C(Br)C1O)C(C)(C)C#C

> <IUPAC Name>
2-bromo-6-ethoxy-4-(2-methylbut-3-yn-2-yl)phenol

> <CAS>
2228370-92-9

> <URL>
https://www.enaminestore.com/catalog/EN300-1920244

> <ROCS_ShapeQuery>
_x1604L0AP1_x0771L0AP1

> <ROCS_TanimotoCombo>
0.884 

> <ROCS_ShapeTanimoto>
0.622 

> <ROCS_ColorTanimoto>
0.262 

> <ROCS_RefTversky>
0.547 

> <ROCS_RefColorTversky>
0.339 

> <ROCS_RefTverskyCombo>
0.886 

> <ROCS_FitTversky>
1.280 

> <ROCS_FitColorTversky>
0.537 

> <ROCS_FitTverskyCombo>
1.817 

> <ROCS_ColorScore>
-3.884

> <ROCS_Overlap>
931.115

> <ROCS_Rank>
444                 

$$$$
untitled-dbase-1722_15
  -OEChem-06042309053D

 21 21  0     1  0  0  0  0  0999 V2000
   -4.6001   12.4797  -29.8386 C   0  0  0  0  0  0  0  0  0  0  0  0
   -5.5771   11.7818  -29.1286 C   0  0  0  0  0  0  0  0  0  0  0  0
   -5.0645   11.1400  -31.7947 C   0  0  0  0  0  0  0  0  0  0  0  0
   -4.3438   12.1589  -31.1716 C   0  0  0  0  0  0  0  0  0  0  0  0
   -6.2977   10.7629  -29.7517 C   0  0  0  0  0  0  0  0  0  0  0  0
   -6.0414   10.4420  -31.0848 C   0  0  0  0  0  0  0  0  0  0  0  0
   -3.2989   12.9056  -31.9295 C   0  0  2  0  0  0  0  0  0  0  0  0
   -2.1447   13.3841  -31.0364 C   0  0  0  0  0  0  0  0  0  0  0  0
   -3.8544   14.0679  -32.6469 N   0  0  0  0  0  0  0  0  0  0  0  0
   -7.2445   10.0989  -29.0299 O   0  0  0  0  0  0  0  0  0  0  0  0
   -1.0706   13.6767  -31.8157 F   0  0  0  0  0  0  0  0  0  0  0  0
   -2.4796   14.5431  -30.4106 F   0  0  0  0  0  0  0  0  0  0  0  0
   -7.0002    9.0626  -31.9628 Br  0  0  0  0  0  0  0  0  0  0  0  0
   -4.0440   13.2718  -29.3440 H   0  0  0  0  0  0  0  0  0  0  0  0
   -5.7712   12.0374  -28.0903 H   0  0  0  0  0  0  0  0  0  0  0  0
   -4.8581   10.8970  -32.8349 H   0  0  0  0  0  0  0  0  0  0  0  0
   -2.8460   12.2556  -32.7004 H   0  0  0  0  0  0  0  0  0  0  0  0
   -1.8397   12.6547  -30.2798 H   0  0  0  0  0  0  0  0  0  0  0  0
   -3.1062   14.5133  -33.1141 H   0  0  0  0  0  0  0  0  0  0  0  0
   -4.5273   13.7276  -33.2856 H   0  0  0  0  0  0  0  0  0  0  0  0
   -7.6680    9.4204  -29.5783 H   0  0  0  0  0  0  0  0  0  0  0  0
  1  2  1  0  0  0  0
  1  4  2  0  0  0  0
  2  5  2  0  0  0  0
  3  4  1  0  0  0  0
  3  6  2  0  0  0  0
  4  7  1  0  0  0  0
  5  6  1  0  0  0  0
  5 10  1  0  0  0  0
  6 13  1  0  0  0  0
  7  8  1  0  0  0  0
  7  9  1  0  0  0  0
  8 11  1  0  0  0  0
  8 12  1  0  0  0  0
  1 14  1  0  0  0  0
  2 15  1  0  0  0  0
  3 16  1  0  0  0  0
  7 17  1  0  0  0  0
  8 18  1  0  0  0  0
  9 19  1  0  0  0  0
  9 20  1  0  0  0  0
 10 21  1  0  0  0  0
M  END
> <id>
EN300-1937532

> <smiles>
NC(C(F)F)C=1C=CC(O)=C(Br)C1

> <MDLNUMBER>
MFCD26136569

> <IUPAC Name>
4-(1-amino-2,2-difluoroethyl)-2-bromophenol

> <CAS>
1824621-54-6

> <URL>
https://www.enaminestore.com/catalog/EN300-1937532

> <ROCS_ShapeQuery>
_x1604L0AP1_x0771L0AP1

> <ROCS_TanimotoCombo>
0.884 

> <ROCS_ShapeTanimoto>
0.503 

> <ROCS_ColorTanimoto>
0.380 

> <ROCS_RefTversky>
0.455 

> <ROCS_RefColorTversky>
0.427 

> <ROCS_RefTverskyCombo>
0.883 

> <ROCS_FitTversky>
1.265 

> <ROCS_FitColorTversky>
0.776 

> <ROCS_FitTverskyCombo>
2.041 

> <ROCS_ColorScore>
-4.878

> <ROCS_Overlap>
771.732

> <ROCS_Rank>
445                 

$$$$
untitled-dbase-1700_44
  -OEChem-06042309053D

 31 32  0     0  0  0  0  0  0999 V2000
   -4.3145   12.2272  -31.1385 C   0  0  0  0  0  0  0  0  0  0  0  0
   -5.0728   11.2745  -31.8188 C   0  0  0  0  0  0  0  0  0  0  0  0
   -4.5327   12.4512  -29.7791 C   0  0  0  0  0  0  0  0  0  0  0  0
   -6.0494   10.5459  -31.1399 C   0  0  0  0  0  0  0  0  0  0  0  0
   -6.2677   10.7700  -29.7805 C   0  0  0  0  0  0  0  0  0  0  0  0
   -5.5093   11.7227  -29.1001 C   0  0  0  0  0  0  0  0  0  0  0  0
   -5.1461    8.6529  -33.5519 C   0  0  0  0  0  0  0  0  0  0  0  0
   -7.5558    8.8511  -34.2371 C   0  0  0  0  0  0  0  0  0  0  0  0
   -5.3610    7.1450  -33.4131 C   0  0  0  0  0  0  0  0  0  0  0  0
   -7.6761    7.3354  -34.0709 C   0  0  0  0  0  0  0  0  0  0  0  0
   -6.4438    9.4519  -33.3656 C   0  0  0  0  0  0  0  0  0  0  0  0
   -6.8566    9.5241  -31.8933 C   0  0  0  0  0  0  0  0  0  0  0  0
   -6.4024    6.6573  -34.3195 N   0  0  0  0  0  0  0  0  0  0  0  0
   -7.2279   10.0503  -29.1305 O   0  0  0  0  0  0  0  0  0  0  0  0
   -5.7748   12.0558  -27.2528 Br  0  0  0  0  0  0  0  0  0  0  0  0
   -3.5537   12.7942  -31.6670 H   0  0  0  0  0  0  0  0  0  0  0  0
   -4.8945   11.1046  -32.8773 H   0  0  0  0  0  0  0  0  0  0  0  0
   -3.9316   13.1975  -29.2657 H   0  0  0  0  0  0  0  0  0  0  0  0
   -4.3956    8.9817  -32.8124 H   0  0  0  0  0  0  0  0  0  0  0  0
   -4.7135    8.8691  -34.5424 H   0  0  0  0  0  0  0  0  0  0  0  0
   -7.3685    9.0874  -35.2972 H   0  0  0  0  0  0  0  0  0  0  0  0
   -8.5222    9.3207  -33.9853 H   0  0  0  0  0  0  0  0  0  0  0  0
   -4.4209    6.6105  -33.5972 H   0  0  0  0  0  0  0  0  0  0  0  0
   -5.6584    6.9209  -32.3828 H   0  0  0  0  0  0  0  0  0  0  0  0
   -7.9995    7.1133  -33.0482 H   0  0  0  0  0  0  0  0  0  0  0  0
   -8.4489    6.9420  -34.7426 H   0  0  0  0  0  0  0  0  0  0  0  0
   -6.2599   10.4848  -33.7133 H   0  0  0  0  0  0  0  0  0  0  0  0
   -6.7354    8.5388  -31.4312 H   0  0  0  0  0  0  0  0  0  0  0  0
   -7.9224    9.7662  -31.8241 H   0  0  0  0  0  0  0  0  0  0  0  0
   -6.1147    6.8252  -35.2838 H   0  0  0  0  0  0  0  0  0  0  0  0
   -7.2658   10.3121  -28.1980 H   0  0  0  0  0  0  0  0  0  0  0  0
  1  2  1  0  0  0  0
  1  3  2  0  0  0  0
  2  4  2  0  0  0  0
  3  6  1  0  0  0  0
  4  5  1  0  0  0  0
  4 12  1  0  0  0  0
  5  6  2  0  0  0  0
  5 14  1  0  0  0  0
  6 15  1  0  0  0  0
  7  9  1  0  0  0  0
  7 11  1  0  0  0  0
  8 10  1  0  0  0  0
  8 11  1  0  0  0  0
  9 13  1  0  0  0  0
 10 13  1  0  0  0  0
 11 12  1  0  0  0  0
  1 16  1  0  0  0  0
  2 17  1  0  0  0  0
  3 18  1  0  0  0  0
  7 19  1  0  0  0  0
  7 20  1  0  0  0  0
  8 21  1  0  0  0  0
  8 22  1  0  0  0  0
  9 23  1  0  0  0  0
  9 24  1  0  0  0  0
 10 25  1  0  0  0  0
 10 26  1  0  0  0  0
 11 27  1  0  0  0  0
 12 28  1  0  0  0  0
 12 29  1  0  0  0  0
 13 30  1  0  0  0  0
 14 31  1  0  0  0  0
M  END
> <id>
EN300-1923133

> <smiles>
OC=1C(Br)=CC=CC1CC2CCNCC2

> <IUPAC Name>
2-bromo-6-[(piperidin-4-yl)methyl]phenol

> <CAS>
1785507-23-4

> <URL>
https://www.enaminestore.com/catalog/EN300-1923133

> <ROCS_ShapeQuery>
_x1604L0AP1_x0771L0AP1

> <ROCS_TanimotoCombo>
0.884 

> <ROCS_ShapeTanimoto>
0.538 

> <ROCS_ColorTanimoto>
0.346 

> <ROCS_RefTversky>
0.492 

> <ROCS_RefColorTversky>
0.419 

> <ROCS_RefTverskyCombo>
0.911 

> <ROCS_FitTversky>
1.210 

> <ROCS_FitColorTversky>
0.664 

> <ROCS_FitTverskyCombo>
1.874 

> <ROCS_ColorScore>
-4.802

> <ROCS_Overlap>
836.492

> <ROCS_Rank>
446                 

$$$$
untitled-dbase-2172_35
  -OEChem-06042309053D

 27 27  0     0  0  0  0  0  0999 V2000
   -4.3616   12.1781  -31.1909 C   0  0  0  0  0  0  0  0  0  0  0  0
   -4.6078   12.4967  -29.8555 C   0  0  0  0  0  0  0  0  0  0  0  0
   -5.0822   11.1557  -31.8083 C   0  0  0  0  0  0  0  0  0  0  0  0
   -5.5744   11.7928  -29.1373 C   0  0  0  0  0  0  0  0  0  0  0  0
   -6.2950   10.7703  -29.7546 C   0  0  0  0  0  0  0  0  0  0  0  0
   -6.0488   10.4518  -31.0901 C   0  0  0  0  0  0  0  0  0  0  0  0
   -5.0225   13.1736  -27.2813 C   0  0  0  0  0  0  0  0  0  0  0  0
   -4.7811   10.8546  -33.2414 C   0  0  0  0  0  0  0  0  0  0  0  0
   -5.7990   11.4376  -34.2386 C   0  0  0  0  0  0  0  0  0  0  0  0
   -5.4636   11.0868  -35.6879 C   0  0  0  0  0  0  0  0  0  0  0  0
   -7.2356   10.0964  -29.0311 O   0  0  0  0  0  0  0  0  0  0  0  0
   -5.8034   12.1158  -27.8336 O   0  0  0  0  0  0  0  0  0  0  0  0
   -5.4369    9.2851  -35.9199 S   0  0  0  0  0  0  0  0  0  0  0  0
   -7.0430    9.0612  -31.9274 Br  0  0  0  0  0  0  0  0  0  0  0  0
   -3.6064   12.7333  -31.7412 H   0  0  0  0  0  0  0  0  0  0  0  0
   -4.0437   13.2951  -29.3810 H   0  0  0  0  0  0  0  0  0  0  0  0
   -5.3045   13.3288  -26.2371 H   0  0  0  0  0  0  0  0  0  0  0  0
   -5.1894   14.0888  -27.8549 H   0  0  0  0  0  0  0  0  0  0  0  0
   -3.9659   12.9004  -27.3343 H   0  0  0  0  0  0  0  0  0  0  0  0
   -4.7000    9.7677  -33.4044 H   0  0  0  0  0  0  0  0  0  0  0  0
   -3.7844   11.2557  -33.4861 H   0  0  0  0  0  0  0  0  0  0  0  0
   -5.8054   12.5288  -34.1189 H   0  0  0  0  0  0  0  0  0  0  0  0
   -6.8069   11.0830  -33.9881 H   0  0  0  0  0  0  0  0  0  0  0  0
   -4.4801   11.4746  -35.9688 H   0  0  0  0  0  0  0  0  0  0  0  0
   -6.2062   11.5123  -36.3704 H   0  0  0  0  0  0  0  0  0  0  0  0
   -7.2743   10.4462  -28.1280 H   0  0  0  0  0  0  0  0  0  0  0  0
   -6.7104    9.0781  -35.5591 H   0  0  0  0  0  0  0  0  0  0  0  0
  1  2  1  0  0  0  0
  1  3  2  0  0  0  0
  2  4  2  0  0  0  0
  3  6  1  0  0  0  0
  3  8  1  0  0  0  0
  4  5  1  0  0  0  0
  4 12  1  0  0  0  0
  5  6  2  0  0  0  0
  5 11  1  0  0  0  0
  6 14  1  0  0  0  0
  7 12  1  0  0  0  0
  8  9  1  0  0  0  0
  9 10  1  0  0  0  0
 10 13  1  0  0  0  0
  1 15  1  0  0  0  0
  2 16  1  0  0  0  0
  7 17  1  0  0  0  0
  7 18  1  0  0  0  0
  7 19  1  0  0  0  0
  8 20  1  0  0  0  0
  8 21  1  0  0  0  0
  9 22  1  0  0  0  0
  9 23  1  0  0  0  0
 10 24  1  0  0  0  0
 10 25  1  0  0  0  0
 11 26  1  0  0  0  0
 13 27  1  0  0  0  0
M  END
> <id>
EN300-1936287

> <smiles>
COC=1C=CC(CCCS)=C(Br)C1O

> <IUPAC Name>
2-bromo-6-methoxy-3-(3-sulfanylpropyl)phenol

> <CAS>
2229626-77-9

> <URL>
https://www.enaminestore.com/catalog/EN300-1936287

> <ROCS_ShapeQuery>
_x1604L0AP1_x0771L0AP1

> <ROCS_TanimotoCombo>
0.884 

> <ROCS_ShapeTanimoto>
0.468 

> <ROCS_ColorTanimoto>
0.415 

> <ROCS_RefTversky>
0.438 

> <ROCS_RefColorTversky>
0.431 

> <ROCS_RefTverskyCombo>
0.869 

> <ROCS_FitTversky>
1.175 

> <ROCS_FitColorTversky>
0.918 

> <ROCS_FitTverskyCombo>
2.094 

> <ROCS_ColorScore>
-4.900

> <ROCS_Overlap>
742.565

> <ROCS_Rank>
447                 

$$$$
untitled-dbase-1247_14
  -OEChem-06042309053D

 25 25  0     0  0  0  0  0  0999 V2000
   -4.6003   12.4842  -29.8442 C   0  0  0  0  0  0  0  0  0  0  0  0
   -4.3467   12.1690  -31.1790 C   0  0  0  0  0  0  0  0  0  0  0  0
   -5.5749   11.7823  -29.1348 C   0  0  0  0  0  0  0  0  0  0  0  0
   -5.0678   11.1519  -31.8046 C   0  0  0  0  0  0  0  0  0  0  0  0
   -6.2960   10.7652  -29.7603 C   0  0  0  0  0  0  0  0  0  0  0  0
   -6.0424   10.4500  -31.0952 C   0  0  0  0  0  0  0  0  0  0  0  0
   -3.6554    9.7879  -33.4534 C   0  0  0  0  0  0  0  0  0  0  0  0
   -4.3644   12.1426  -33.9889 C   0  0  0  0  0  0  0  0  0  0  0  0
   -4.7584   10.8531  -33.2364 C   0  0  0  0  0  0  0  0  0  0  0  0
   -6.7642   11.4527  -34.2333 N   0  0  0  0  0  0  0  0  0  0  0  0
   -7.2411   10.1016  -29.0355 O   0  0  0  0  0  0  0  0  0  0  0  0
   -5.9253   10.3206  -33.9018 O   0  0  0  0  0  0  0  0  0  0  0  0
   -7.0322    9.0603  -31.9379 Br  0  0  0  0  0  0  0  0  0  0  0  0
   -4.0392   13.2764  -29.3572 H   0  0  0  0  0  0  0  0  0  0  0  0
   -3.5851   12.7225  -31.7223 H   0  0  0  0  0  0  0  0  0  0  0  0
   -5.7672   12.0341  -28.0952 H   0  0  0  0  0  0  0  0  0  0  0  0
   -3.4669    9.6058  -34.5183 H   0  0  0  0  0  0  0  0  0  0  0  0
   -2.7045   10.0780  -32.9955 H   0  0  0  0  0  0  0  0  0  0  0  0
   -3.9665    8.8272  -33.0261 H   0  0  0  0  0  0  0  0  0  0  0  0
   -4.1324   11.9494  -35.0427 H   0  0  0  0  0  0  0  0  0  0  0  0
   -3.4944   12.6223  -33.5274 H   0  0  0  0  0  0  0  0  0  0  0  0
   -5.1932   12.8605  -33.9824 H   0  0  0  0  0  0  0  0  0  0  0  0
   -7.6356   11.1612  -33.7930 H   0  0  0  0  0  0  0  0  0  0  0  0
   -6.8789   11.3004  -35.2341 H   0  0  0  0  0  0  0  0  0  0  0  0
   -7.6669    9.4239  -29.5830 H   0  0  0  0  0  0  0  0  0  0  0  0
  1  2  1  0  0  0  0
  1  3  2  0  0  0  0
  2  4  2  0  0  0  0
  3  5  1  0  0  0  0
  4  6  1  0  0  0  0
  4  9  1  0  0  0  0
  5  6  2  0  0  0  0
  5 11  1  0  0  0  0
  6 13  1  0  0  0  0
  7  9  1  0  0  0  0
  8  9  1  0  0  0  0
  9 12  1  0  0  0  0
 10 12  1  0  0  0  0
  1 14  1  0  0  0  0
  2 15  1  0  0  0  0
  3 16  1  0  0  0  0
  7 17  1  0  0  0  0
  7 18  1  0  0  0  0
  7 19  1  0  0  0  0
  8 20  1  0  0  0  0
  8 21  1  0  0  0  0
  8 22  1  0  0  0  0
 10 23  1  0  0  0  0
 10 24  1  0  0  0  0
 11 25  1  0  0  0  0
M  END
> <id>
EN300-1904535

> <smiles>
CC(C)(ON)C=1C=CC=C(O)C1Br

> <IUPAC Name>
3-[2-(aminooxy)propan-2-yl]-2-bromophenol

> <CAS>
2228745-91-1

> <URL>
https://www.enaminestore.com/catalog/EN300-1904535

> <ROCS_ShapeQuery>
_x1604L0AP1_x0771L0AP1

> <ROCS_TanimotoCombo>
0.884 

> <ROCS_ShapeTanimoto>
0.470 

> <ROCS_ColorTanimoto>
0.413 

> <ROCS_RefTversky>
0.435 

> <ROCS_RefColorTversky>
0.430 

> <ROCS_RefTverskyCombo>
0.865 

> <ROCS_FitTversky>
1.206 

> <ROCS_FitColorTversky>
0.915 

> <ROCS_FitTverskyCombo>
2.122 

> <ROCS_ColorScore>
-4.883

> <ROCS_Overlap>
737.986

> <ROCS_Rank>
448                 

$$$$
untitled-dbase-523_57
  -OEChem-06042309053D

 21 21  0     0  0  0  0  0  0999 V2000
   -4.3490   12.1804  -31.1722 C   0  0  0  0  0  0  0  0  0  0  0  0
   -4.6051   12.4974  -29.8382 C   0  0  0  0  0  0  0  0  0  0  0  0
   -5.0649   11.1588  -31.7962 C   0  0  0  0  0  0  0  0  0  0  0  0
   -5.5771   11.7927  -29.1282 C   0  0  0  0  0  0  0  0  0  0  0  0
   -6.2931   10.7710  -29.7521 C   0  0  0  0  0  0  0  0  0  0  0  0
   -6.0370   10.4541  -31.0861 C   0  0  0  0  0  0  0  0  0  0  0  0
   -5.0390   13.1712  -27.2665 C   0  0  0  0  0  0  0  0  0  0  0  0
   -4.7532   10.8594  -33.2274 C   0  0  0  0  0  0  0  0  0  0  0  0
   -7.2392   10.0963  -29.0364 O   0  0  0  0  0  0  0  0  0  0  0  0
   -5.8158   12.1141  -27.8259 O   0  0  0  0  0  0  0  0  0  0  0  0
   -6.2064   11.0344  -34.3047 S   0  0  0  0  0  0  0  0  0  0  0  0
   -7.0249    9.0646  -31.9325 Br  0  0  0  0  0  0  0  0  0  0  0  0
   -3.5897   12.7363  -31.7161 H   0  0  0  0  0  0  0  0  0  0  0  0
   -4.0445   13.2952  -29.3586 H   0  0  0  0  0  0  0  0  0  0  0  0
   -5.3288   13.3252  -26.2242 H   0  0  0  0  0  0  0  0  0  0  0  0
   -5.2016   14.0871  -27.8401 H   0  0  0  0  0  0  0  0  0  0  0  0
   -3.9821   12.8980  -27.3118 H   0  0  0  0  0  0  0  0  0  0  0  0
   -3.9619   11.5246  -33.5997 H   0  0  0  0  0  0  0  0  0  0  0  0
   -4.3662    9.8364  -33.3317 H   0  0  0  0  0  0  0  0  0  0  0  0
   -7.2845   10.4450  -28.1332 H   0  0  0  0  0  0  0  0  0  0  0  0
   -6.4251   12.3284  -34.0355 H   0  0  0  0  0  0  0  0  0  0  0  0
  1  2  1  0  0  0  0
  1  3  2  0  0  0  0
  2  4  2  0  0  0  0
  3  6  1  0  0  0  0
  3  8  1  0  0  0  0
  4  5  1  0  0  0  0
  4 10  1  0  0  0  0
  5  6  2  0  0  0  0
  5  9  1  0  0  0  0
  6 12  1  0  0  0  0
  7 10  1  0  0  0  0
  8 11  1  0  0  0  0
  1 13  1  0  0  0  0
  2 14  1  0  0  0  0
  7 15  1  0  0  0  0
  7 16  1  0  0  0  0
  7 17  1  0  0  0  0
  8 18  1  0  0  0  0
  8 19  1  0  0  0  0
  9 20  1  0  0  0  0
 11 21  1  0  0  0  0
M  END
> <id>
EN300-1936285

> <smiles>
COC=1C=CC(CS)=C(Br)C1O

> <IUPAC Name>
2-bromo-6-methoxy-3-(sulfanylmethyl)phenol

> <CAS>
2228975-81-1

> <URL>
https://www.enaminestore.com/catalog/EN300-1936285

> <ROCS_ShapeQuery>
_x1604L0AP1_x0771L0AP1

> <ROCS_TanimotoCombo>
0.884 

> <ROCS_ShapeTanimoto>
0.468 

> <ROCS_ColorTanimoto>
0.415 

> <ROCS_RefTversky>
0.424 

> <ROCS_RefColorTversky>
0.431 

> <ROCS_RefTverskyCombo>
0.856 

> <ROCS_FitTversky>
1.282 

> <ROCS_FitColorTversky>
0.919 

> <ROCS_FitTverskyCombo>
2.201 

> <ROCS_ColorScore>
-4.902

> <ROCS_Overlap>
718.130

> <ROCS_Rank>
449                 

$$$$
untitled-dbase-64_0
  -OEChem-06042309053D

 14 14  0     0  0  0  0  0  0999 V2000
   -3.8402   13.5225  -29.2725 C   0  0  0  0  0  0  0  0  0  0  0  0
   -4.3503   12.1432  -31.2262 C   0  0  0  0  0  0  0  0  0  0  0  0
   -5.0815   11.1215  -31.8321 C   0  0  0  0  0  0  0  0  0  0  0  0
   -5.5609   11.7878  -29.1658 C   0  0  0  0  0  0  0  0  0  0  0  0
   -4.5899   12.4763  -29.8930 C   0  0  0  0  0  0  0  0  0  0  0  0
   -6.2922   10.7661  -29.7717 C   0  0  0  0  0  0  0  0  0  0  0  0
   -6.0525   10.4330  -31.1049 C   0  0  0  0  0  0  0  0  0  0  0  0
   -3.2313   14.3723  -28.7685 N   0  0  0  0  0  0  0  0  0  0  0  0
   -7.2326   10.1110  -29.0336 O   0  0  0  0  0  0  0  0  0  0  0  0
   -7.0251    9.0495  -31.9604 Br  0  0  0  0  0  0  0  0  0  0  0  0
   -3.5950   12.6695  -31.8053 H   0  0  0  0  0  0  0  0  0  0  0  0
   -4.8800   10.8752  -32.8715 H   0  0  0  0  0  0  0  0  0  0  0  0
   -5.7536   12.0409  -28.1255 H   0  0  0  0  0  0  0  0  0  0  0  0
   -7.6645    9.4295  -29.5715 H   0  0  0  0  0  0  0  0  0  0  0  0
  1  5  1  0  0  0  0
  1  8  3  0  0  0  0
  2  3  1  0  0  0  0
  2  5  2  0  0  0  0
  3  7  2  0  0  0  0
  4  5  1  0  0  0  0
  4  6  2  0  0  0  0
  6  7  1  0  0  0  0
  6  9  1  0  0  0  0
  7 10  1  0  0  0  0
  2 11  1  0  0  0  0
  3 12  1  0  0  0  0
  4 13  1  0  0  0  0
  9 14  1  0  0  0  0
M  END
> <id>
EN300-223878

> <smiles>
OC=1C=C(C#N)C=CC1Br

> <MDLNUMBER>
MFCD16999194

> <IUPAC Name>
4-bromo-3-hydroxybenzonitrile

> <CAS>
916213-60-0

> <Purity>
95

> <URL>
https://www.enaminestore.com/catalog/EN300-223878

> <MP>
158-160

> <ROCS_ShapeQuery>
_x1604L0AP1_x0771L0AP1

> <ROCS_TanimotoCombo>
0.883 

> <ROCS_ShapeTanimoto>
0.471 

> <ROCS_ColorTanimoto>
0.413 

> <ROCS_RefTversky>
0.413 

> <ROCS_RefColorTversky>
0.429 

> <ROCS_RefTverskyCombo>
0.842 

> <ROCS_FitTversky>
1.430 

> <ROCS_FitColorTversky>
0.914 

> <ROCS_FitTverskyCombo>
2.344 

> <ROCS_ColorScore>
-4.878

> <ROCS_Overlap>
696.617

> <ROCS_Rank>
450                 

$$$$
untitled-dbase-2164_3378
  -OEChem-06042309053D

 33 33  0     0  0  0  0  0  0999 V2000
   -5.1308   11.3109  -31.7822 C   0  0  0  0  0  0  0  0  0  0  0  0
   -4.4248   12.3412  -29.7142 C   0  0  0  0  0  0  0  0  0  0  0  0
   -4.2804   12.1741  -31.0914 C   0  0  0  0  0  0  0  0  0  0  0  0
   -6.1258   10.6148  -31.0957 C   0  0  0  0  0  0  0  0  0  0  0  0
   -6.2702   10.7819  -29.7185 C   0  0  0  0  0  0  0  0  0  0  0  0
   -5.4198   11.6451  -29.0277 C   0  0  0  0  0  0  0  0  0  0  0  0
   -6.6809   10.0168  -34.1511 C   0  0  0  0  0  0  0  0  0  0  0  0
   -1.7495   12.6273  -31.3533 C   0  0  0  0  0  0  0  0  0  0  0  0
   -3.2341   12.5538  -33.3453 C   0  0  0  0  0  0  0  0  0  0  0  0
   -6.4077    9.1451  -32.9440 C   0  0  0  0  0  0  0  0  0  0  0  0
   -3.4103   14.4703  -31.7257 C   0  0  0  0  0  0  0  0  0  0  0  0
   -3.1813   12.9418  -31.8497 C   0  0  0  0  0  0  0  0  0  0  0  0
   -7.2487   10.0915  -29.0646 O   0  0  0  0  0  0  0  0  0  0  0  0
   -3.3627   14.8772  -30.3623 O   0  0  0  0  0  0  0  0  0  0  0  0
   -6.9483    9.7749  -31.7842 O   0  0  0  0  0  0  0  0  0  0  0  0
   -5.5853   11.8980  -27.1561 Br  0  0  0  0  0  0  0  0  0  0  0  0
   -5.0200   11.1787  -32.8559 H   0  0  0  0  0  0  0  0  0  0  0  0
   -3.7565   13.0164  -29.1842 H   0  0  0  0  0  0  0  0  0  0  0  0
   -7.7558   10.1544  -34.2978 H   0  0  0  0  0  0  0  0  0  0  0  0
   -6.2117   10.9990  -34.0321 H   0  0  0  0  0  0  0  0  0  0  0  0
   -6.2556    9.5684  -35.0551 H   0  0  0  0  0  0  0  0  0  0  0  0
   -0.9966   13.1917  -31.9161 H   0  0  0  0  0  0  0  0  0  0  0  0
   -1.6322   12.8987  -30.2973 H   0  0  0  0  0  0  0  0  0  0  0  0
   -1.5074   11.5622  -31.4408 H   0  0  0  0  0  0  0  0  0  0  0  0
   -2.4633   13.0826  -33.9185 H   0  0  0  0  0  0  0  0  0  0  0  0
   -4.2067   12.8052  -33.7845 H   0  0  0  0  0  0  0  0  0  0  0  0
   -3.0809   11.4802  -33.5005 H   0  0  0  0  0  0  0  0  0  0  0  0
   -5.3310    9.0114  -32.8030 H   0  0  0  0  0  0  0  0  0  0  0  0
   -6.8779    8.1645  -33.0642 H   0  0  0  0  0  0  0  0  0  0  0  0
   -2.6293   15.0195  -32.2646 H   0  0  0  0  0  0  0  0  0  0  0  0
   -4.3754   14.7797  -32.1405 H   0  0  0  0  0  0  0  0  0  0  0  0
   -7.7435    9.5414  -29.6909 H   0  0  0  0  0  0  0  0  0  0  0  0
   -3.5120   15.8358  -30.3532 H   0  0  0  0  0  0  0  0  0  0  0  0
  1  3  1  0  0  0  0
  1  4  2  0  0  0  0
  2  3  2  0  0  0  0
  2  6  1  0  0  0  0
  3 12  1  0  0  0  0
  4  5  1  0  0  0  0
  4 15  1  0  0  0  0
  5  6  2  0  0  0  0
  5 13  1  0  0  0  0
  6 16  1  0  0  0  0
  7 10  1  0  0  0  0
  8 12  1  0  0  0  0
  9 12  1  0  0  0  0
 10 15  1  0  0  0  0
 11 12  1  0  0  0  0
 11 14  1  0  0  0  0
  1 17  1  0  0  0  0
  2 18  1  0  0  0  0
  7 19  1  0  0  0  0
  7 20  1  0  0  0  0
  7 21  1  0  0  0  0
  8 22  1  0  0  0  0
  8 23  1  0  0  0  0
  8 24  1  0  0  0  0
  9 25  1  0  0  0  0
  9 26  1  0  0  0  0
  9 27  1  0  0  0  0
 10 28  1  0  0  0  0
 10 29  1  0  0  0  0
 11 30  1  0  0  0  0
 11 31  1  0  0  0  0
 13 32  1  0  0  0  0
 14 33  1  0  0  0  0
M  END
> <id>
EN300-1920239

> <smiles>
CCOC=1C=C(C=C(Br)C1O)C(C)(C)CO

> <IUPAC Name>
2-bromo-6-ethoxy-4-(1-hydroxy-2-methylpropan-2-yl)phenol

> <CAS>
2229210-42-6

> <URL>
https://www.enaminestore.com/catalog/EN300-1920239

> <ROCS_ShapeQuery>
_x1604L0AP1_x0771L0AP1

> <ROCS_TanimotoCombo>
0.883 

> <ROCS_ShapeTanimoto>
0.638 

> <ROCS_ColorTanimoto>
0.246 

> <ROCS_RefTversky>
0.555 

> <ROCS_RefColorTversky>
0.337 

> <ROCS_RefTverskyCombo>
0.893 

> <ROCS_FitTversky>
1.305 

> <ROCS_FitColorTversky>
0.475 

> <ROCS_FitTverskyCombo>
1.779 

> <ROCS_ColorScore>
-3.885

> <ROCS_Overlap>
944.340

> <ROCS_Rank>
451                 

$$$$
untitled-dbase-2215_14
  -OEChem-06042309053D

 21 21  0     0  0  0  0  0  0999 V2000
   -3.1073   14.2410  -31.3740 C   0  0  0  0  0  0  0  0  0  0  0  0
   -4.5617   12.4496  -29.8018 C   0  0  0  0  0  0  0  0  0  0  0  0
   -5.0357   11.1285  -31.7682 C   0  0  0  0  0  0  0  0  0  0  0  0
   -4.3030   12.1326  -31.1352 C   0  0  0  0  0  0  0  0  0  0  0  0
   -5.5529   11.7623  -29.1011 C   0  0  0  0  0  0  0  0  0  0  0  0
   -6.2856   10.7582  -29.7341 C   0  0  0  0  0  0  0  0  0  0  0  0
   -6.0270   10.4413  -31.0676 C   0  0  0  0  0  0  0  0  0  0  0  0
   -6.7671   13.0968  -27.5517 C   0  0  0  0  0  0  0  0  0  0  0  0
   -3.2438   12.8682  -31.8842 C   0  0  0  0  0  0  0  0  0  0  0  0
   -2.9999   15.3245  -30.9728 N   0  0  0  0  0  0  0  0  0  0  0  0
   -7.2517   10.0981  -29.0323 O   0  0  0  0  0  0  0  0  0  0  0  0
   -5.7943   12.0837  -27.7994 O   0  0  0  0  0  0  0  0  0  0  0  0
   -7.0018    9.0831  -31.9615 Br  0  0  0  0  0  0  0  0  0  0  0  0
   -3.9921   13.2322  -29.3062 H   0  0  0  0  0  0  0  0  0  0  0  0
   -4.8269   10.8888  -32.8085 H   0  0  0  0  0  0  0  0  0  0  0  0
   -6.8627   13.2557  -26.4748 H   0  0  0  0  0  0  0  0  0  0  0  0
   -7.7283   12.7908  -27.9723 H   0  0  0  0  0  0  0  0  0  0  0  0
   -6.4425   14.0253  -28.0273 H   0  0  0  0  0  0  0  0  0  0  0  0
   -3.4789   12.8963  -32.9569 H   0  0  0  0  0  0  0  0  0  0  0  0
   -2.2801   12.3475  -31.8013 H   0  0  0  0  0  0  0  0  0  0  0  0
   -7.2994   10.4417  -28.1272 H   0  0  0  0  0  0  0  0  0  0  0  0
  1  9  1  0  0  0  0
  1 10  3  0  0  0  0
  2  4  1  0  0  0  0
  2  5  2  0  0  0  0
  3  4  2  0  0  0  0
  3  7  1  0  0  0  0
  4  9  1  0  0  0  0
  5  6  1  0  0  0  0
  5 12  1  0  0  0  0
  6  7  2  0  0  0  0
  6 11  1  0  0  0  0
  7 13  1  0  0  0  0
  8 12  1  0  0  0  0
  2 14  1  0  0  0  0
  3 15  1  0  0  0  0
  8 16  1  0  0  0  0
  8 17  1  0  0  0  0
  8 18  1  0  0  0  0
  9 19  1  0  0  0  0
  9 20  1  0  0  0  0
 11 21  1  0  0  0  0
M  END
> <id>
EN300-1910632

> <smiles>
COC=1C=C(CC#N)C=C(Br)C1O

> <MDLNUMBER>
MFCD00060307

> <IUPAC Name>
2-(3-bromo-4-hydroxy-5-methoxyphenyl)acetonitrile

> <CAS>
81038-44-0

> <URL>
https://www.enaminestore.com/catalog/EN300-1910632

> <MP>
145-146

> <ROCS_ShapeQuery>
_x1604L0AP1_x0771L0AP1

> <ROCS_TanimotoCombo>
0.883 

> <ROCS_ShapeTanimoto>
0.501 

> <ROCS_ColorTanimoto>
0.383 

> <ROCS_RefTversky>
0.454 

> <ROCS_RefColorTversky>
0.429 

> <ROCS_RefTverskyCombo>
0.883 

> <ROCS_FitTversky>
1.262 

> <ROCS_FitColorTversky>
0.779 

> <ROCS_FitTverskyCombo>
2.041 

> <ROCS_ColorScore>
-4.898

> <ROCS_Overlap>
768.956

> <ROCS_Rank>
452                 

$$$$
untitled-dbase-1667_0
  -OEChem-06042309053D

 25 26  0     0  0  0  0  0  0999 V2000
   -6.6921   11.7000  -32.9428 C   0  0  0  0  0  0  0  0  0  0  0  0
   -7.1869   11.2835  -34.1786 C   0  0  0  0  0  0  0  0  0  0  0  0
   -6.2848    9.3987  -32.3302 C   0  0  0  0  0  0  0  0  0  0  0  0
   -5.2685   11.6135  -28.6327 C   0  0  0  0  0  0  0  0  0  0  0  0
   -6.2409   10.7576  -32.0186 C   0  0  0  0  0  0  0  0  0  0  0  0
   -6.1560   10.9058  -29.4653 C   0  0  0  0  0  0  0  0  0  0  0  0
   -7.2307    9.9245  -34.4902 C   0  0  0  0  0  0  0  0  0  0  0  0
   -6.7797    8.9821  -33.5660 C   0  0  0  0  0  0  0  0  0  0  0  0
   -5.7304   11.1890  -30.7402 C   0  0  0  0  0  0  0  0  0  0  0  0
   -3.8515   12.5940  -31.6525 C   0  0  0  0  0  0  0  0  0  0  0  0
   -4.3485   12.2949  -29.3207 N   0  0  0  0  0  0  0  0  0  0  0  0
   -4.6555   12.0165  -30.5991 N   0  0  0  0  0  0  0  0  0  0  0  0
   -7.1904   10.1287  -29.0875 N   0  0  0  0  0  0  0  0  0  0  0  0
   -7.7227    9.5505  -35.7053 O   0  0  0  0  0  0  0  0  0  0  0  0
   -6.8303    7.1273  -33.9532 Br  0  0  0  0  0  0  0  0  0  0  0  0
   -6.6651   12.7626  -32.7137 H   0  0  0  0  0  0  0  0  0  0  0  0
   -7.5348   12.0236  -34.8942 H   0  0  0  0  0  0  0  0  0  0  0  0
   -5.9337    8.6656  -31.6064 H   0  0  0  0  0  0  0  0  0  0  0  0
   -5.2519   11.6643  -27.5532 H   0  0  0  0  0  0  0  0  0  0  0  0
   -4.2956   13.5542  -31.9279 H   0  0  0  0  0  0  0  0  0  0  0  0
   -2.8281   12.7349  -31.2938 H   0  0  0  0  0  0  0  0  0  0  0  0
   -3.8400   11.9166  -32.5110 H   0  0  0  0  0  0  0  0  0  0  0  0
   -7.8217    9.6821  -29.7707 H   0  0  0  0  0  0  0  0  0  0  0  0
   -7.4616   10.0165  -28.0982 H   0  0  0  0  0  0  0  0  0  0  0  0
   -7.6972    8.5851  -35.7934 H   0  0  0  0  0  0  0  0  0  0  0  0
  1  2  1  0  0  0  0
  1  5  2  0  0  0  0
  2  7  2  0  0  0  0
  3  5  1  0  0  0  0
  3  8  2  0  0  0  0
  4  6  1  0  0  0  0
  4 11  2  0  0  0  0
  5  9  1  0  0  0  0
  6  9  2  0  0  0  0
  6 13  1  0  0  0  0
  7  8  1  0  0  0  0
  7 14  1  0  0  0  0
  8 15  1  0  0  0  0
  9 12  1  0  0  0  0
 10 12  1  0  0  0  0
 11 12  1  0  0  0  0
  1 16  1  0  0  0  0
  2 17  1  0  0  0  0
  3 18  1  0  0  0  0
  4 19  1  0  0  0  0
 10 20  1  0  0  0  0
 10 21  1  0  0  0  0
 10 22  1  0  0  0  0
 13 23  1  0  0  0  0
 13 24  1  0  0  0  0
 14 25  1  0  0  0  0
M  END
> <id>
EN300-1905177

> <smiles>
CN1N=CC(N)=C1C=2C=CC(O)=C(Br)C2

> <IUPAC Name>
4-(4-amino-1-methyl-1H-pyrazol-5-yl)-2-bromophenol

> <CAS>
2228763-41-3

> <URL>
https://www.enaminestore.com/catalog/EN300-1905177

> <ROCS_ShapeQuery>
_x1604L0AP1_x0771L0AP1

> <ROCS_TanimotoCombo>
0.883 

> <ROCS_ShapeTanimoto>
0.612 

> <ROCS_ColorTanimoto>
0.271 

> <ROCS_RefTversky>
0.542 

> <ROCS_RefColorTversky>
0.365 

> <ROCS_RefTverskyCombo>
0.907 

> <ROCS_FitTversky>
1.268 

> <ROCS_FitColorTversky>
0.513 

> <ROCS_FitTverskyCombo>
1.781 

> <ROCS_ColorScore>
-4.201

> <ROCS_Overlap>
922.122

> <ROCS_Rank>
453                 

$$$$
untitled-dbase-127_18
  -OEChem-06042309053D

 25 26  0     0  0  0  0  0  0999 V2000
   -4.6395   12.2367  -30.6571 C   0  0  0  0  0  0  0  0  0  0  0  0
   -4.4587   12.4158  -28.2546 C   0  0  0  0  0  0  0  0  0  0  0  0
   -5.7060   11.3497  -30.5108 C   0  0  0  0  0  0  0  0  0  0  0  0
   -6.1489   10.9958  -29.2363 C   0  0  0  0  0  0  0  0  0  0  0  0
   -4.0158   12.7697  -29.5290 C   0  0  0  0  0  0  0  0  0  0  0  0
   -5.5253   11.5288  -28.1082 C   0  0  0  0  0  0  0  0  0  0  0  0
   -6.3854    9.4303  -31.9531 C   0  0  0  0  0  0  0  0  0  0  0  0
   -7.1011    9.1169  -33.2529 C   0  0  0  0  0  0  0  0  0  0  0  0
   -7.0876   11.6897  -32.5797 C   0  0  0  0  0  0  0  0  0  0  0  0
   -6.8505   11.3359  -34.0474 C   0  0  0  0  0  0  0  0  0  0  0  0
   -6.3361   10.8114  -31.6844 N   0  0  0  0  0  0  0  0  0  0  0  0
   -5.9812    8.5167  -31.2372 O   0  0  0  0  0  0  0  0  0  0  0  0
   -6.6052    9.9521  -34.2781 O   0  0  0  0  0  0  0  0  0  0  0  0
   -7.1936   10.1266  -29.1046 O   0  0  0  0  0  0  0  0  0  0  0  0
   -2.6994   13.8638  -29.7101 Cl  0  0  0  0  0  0  0  0  0  0  0  0
   -6.0988   11.0732  -26.3595 Br  0  0  0  0  0  0  0  0  0  0  0  0
   -4.2959   12.5123  -31.6520 H   0  0  0  0  0  0  0  0  0  0  0  0
   -3.9694   12.8335  -27.3774 H   0  0  0  0  0  0  0  0  0  0  0  0
   -6.8855    8.1041  -33.5217 H   0  0  0  0  0  0  0  0  0  0  0  0
   -8.1504    9.2732  -33.1207 H   0  0  0  0  0  0  0  0  0  0  0  0
   -6.7331   12.7056  -32.3934 H   0  0  0  0  0  0  0  0  0  0  0  0
   -8.1512   11.6275  -32.3484 H   0  0  0  0  0  0  0  0  0  0  0  0
   -7.7023   11.6800  -34.6879 H   0  0  0  0  0  0  0  0  0  0  0  0
   -5.9660   11.9001  -34.4264 H   0  0  0  0  0  0  0  0  0  0  0  0
   -7.3855    9.9779  -28.1665 H   0  0  0  0  0  0  0  0  0  0  0  0
  1  3  2  0  0  0  0
  1  5  1  0  0  0  0
  2  5  2  0  0  0  0
  2  6  1  0  0  0  0
  3  4  1  0  0  0  0
  3 11  1  0  0  0  0
  4  6  2  0  0  0  0
  4 14  1  0  0  0  0
  5 15  1  0  0  0  0
  6 16  1  0  0  0  0
  7  8  1  0  0  0  0
  7 11  1  0  0  0  0
  7 12  2  0  0  0  0
  8 13  1  0  0  0  0
  9 10  1  0  0  0  0
  9 11  1  0  0  0  0
 10 13  1  0  0  0  0
  1 17  1  0  0  0  0
  2 18  1  0  0  0  0
  8 19  1  0  0  0  0
  8 20  1  0  0  0  0
  9 21  1  0  0  0  0
  9 22  1  0  0  0  0
 10 23  1  0  0  0  0
 10 24  1  0  0  0  0
 14 25  1  0  0  0  0
M  END
> <id>
EN300-1086174

> <smiles>
OC=1C(Br)=CC(Cl)=CC1N2CCOCC2=O

> <MDLNUMBER>
MFCD31586724

> <IUPAC Name>
4-(3-bromo-5-chloro-2-hydroxyphenyl)morpholin-3-one

> <CAS>
2138171-92-1

> <URL>
https://www.enaminestore.com/catalog/EN300-1086174

> <ROCS_ShapeQuery>
_x1604L0AP1_x0771L0AP1

> <ROCS_TanimotoCombo>
0.883 

> <ROCS_ShapeTanimoto>
0.607 

> <ROCS_ColorTanimoto>
0.276 

> <ROCS_RefTversky>
0.545 

> <ROCS_RefColorTversky>
0.353 

> <ROCS_RefTverskyCombo>
0.898 

> <ROCS_FitTversky>
1.232 

> <ROCS_FitColorTversky>
0.559 

> <ROCS_FitTverskyCombo>
1.791 

> <ROCS_ColorScore>
-4.042

> <ROCS_Overlap>
928.006

> <ROCS_Rank>
454                 

$$$$
untitled-dbase-1374_1
  -OEChem-06042309053D

 21 21  0     0  0  0  0  0  0999 V2000
   -4.8204   12.6494  -29.5602 C   0  0  0  0  0  0  0  0  0  0  0  0
   -4.9664   11.2622  -31.5329 C   0  0  0  0  0  0  0  0  0  0  0  0
   -5.8262   11.8955  -28.9556 C   0  0  0  0  0  0  0  0  0  0  0  0
   -4.3905   12.3328  -30.8489 C   0  0  0  0  0  0  0  0  0  0  0  0
   -6.4021   10.8249  -29.6396 C   0  0  0  0  0  0  0  0  0  0  0  0
   -5.9722   10.5083  -30.9283 C   0  0  0  0  0  0  0  0  0  0  0  0
   -6.2571   12.2459  -27.6091 C   0  0  0  0  0  0  0  0  0  0  0  0
   -3.3154   13.1394  -31.4953 C   0  0  0  0  0  0  0  0  0  0  0  0
   -7.6969   12.6218  -27.4200 C   0  0  0  0  0  0  0  0  0  0  0  0
   -5.5268   12.2608  -26.6175 O   0  0  0  0  0  0  0  0  0  0  0  0
   -7.3853   10.0945  -29.0368 O   0  0  0  0  0  0  0  0  0  0  0  0
   -6.7290    9.0600  -31.8899 Br  0  0  0  0  0  0  0  0  0  0  0  0
   -4.3688   13.4847  -29.0293 H   0  0  0  0  0  0  0  0  0  0  0  0
   -4.6251   11.0227  -32.5376 H   0  0  0  0  0  0  0  0  0  0  0  0
   -2.3301   12.7138  -31.2687 H   0  0  0  0  0  0  0  0  0  0  0  0
   -3.4396   13.1681  -32.5856 H   0  0  0  0  0  0  0  0  0  0  0  0
   -3.3336   14.1801  -31.1461 H   0  0  0  0  0  0  0  0  0  0  0  0
   -8.3549   11.7701  -27.1858 H   0  0  0  0  0  0  0  0  0  0  0  0
   -8.1271   13.1419  -28.2900 H   0  0  0  0  0  0  0  0  0  0  0  0
   -7.8571   13.3168  -26.5765 H   0  0  0  0  0  0  0  0  0  0  0  0
   -7.6862    9.3893  -29.6296 H   0  0  0  0  0  0  0  0  0  0  0  0
  1  3  2  0  0  0  0
  1  4  1  0  0  0  0
  2  4  2  0  0  0  0
  2  6  1  0  0  0  0
  3  5  1  0  0  0  0
  3  7  1  0  0  0  0
  4  8  1  0  0  0  0
  5  6  2  0  0  0  0
  5 11  1  0  0  0  0
  6 12  1  0  0  0  0
  7  9  1  0  0  0  0
  7 10  2  0  0  0  0
  1 13  1  0  0  0  0
  2 14  1  0  0  0  0
  8 15  1  0  0  0  0
  8 16  1  0  0  0  0
  8 17  1  0  0  0  0
  9 18  1  0  0  0  0
  9 19  1  0  0  0  0
  9 20  1  0  0  0  0
 11 21  1  0  0  0  0
M  END
> <id>
EN300-217930

> <smiles>
CC(=O)C=1C=C(C)C=C(Br)C1O

> <MDLNUMBER>
MFCD00464334

> <IUPAC Name>
1-(3-bromo-2-hydroxy-5-methylphenyl)ethan-1-one

> <CAS>
56609-15-5

> <Purity>
95

> <URL>
https://www.enaminestore.com/catalog/EN300-217930

> <MP>
88-89

> <ROCS_ShapeQuery>
_x1604L0AP1_x0771L0AP1

> <ROCS_TanimotoCombo>
0.883 

> <ROCS_ShapeTanimoto>
0.448 

> <ROCS_ColorTanimoto>
0.435 

> <ROCS_RefTversky>
0.414 

> <ROCS_RefColorTversky>
0.445 

> <ROCS_RefTverskyCombo>
0.859 

> <ROCS_FitTversky>
1.225 

> <ROCS_FitColorTversky>
0.949 

> <ROCS_FitTverskyCombo>
2.174 

> <ROCS_ColorScore>
-5.062

> <ROCS_Overlap>
701.044

> <ROCS_Rank>
455                 

$$$$
untitled-dbase-674_1468
  -OEChem-06042309053D

 30 30  0     1  0  0  0  0  0999 V2000
   -4.5660   12.4522  -29.8010 C   0  0  0  0  0  0  0  0  0  0  0  0
   -5.0422   11.1359  -31.7701 C   0  0  0  0  0  0  0  0  0  0  0  0
   -4.3099   12.1395  -31.1360 C   0  0  0  0  0  0  0  0  0  0  0  0
   -5.5544   11.7611  -29.1000 C   0  0  0  0  0  0  0  0  0  0  0  0
   -6.2867   10.7575  -29.7342 C   0  0  0  0  0  0  0  0  0  0  0  0
   -6.0306   10.4448  -31.0692 C   0  0  0  0  0  0  0  0  0  0  0  0
   -6.4278   13.5648  -26.0305 C   0  0  0  0  0  0  0  0  0  0  0  0
   -4.3575   15.1319  -31.4903 C   0  0  0  0  0  0  0  0  0  0  0  0
   -3.2537   12.8792  -31.8852 C   0  0  0  0  0  0  0  0  0  0  0  0
   -6.1989   13.4172  -27.5196 C   0  0  0  0  0  0  0  0  0  0  0  0
   -3.0691   14.3254  -31.3875 C   0  0  2  0  0  0  0  0  0  0  0  0
   -7.2500   10.0936  -29.0321 O   0  0  0  0  0  0  0  0  0  0  0  0
   -2.6531   14.3140  -30.0231 O   0  0  0  0  0  0  0  0  0  0  0  0
   -5.7933   12.0783  -27.7968 O   0  0  0  0  0  0  0  0  0  0  0  0
   -7.0050    9.0875  -31.9647 Br  0  0  0  0  0  0  0  0  0  0  0  0
   -3.9967   13.2344  -29.3045 H   0  0  0  0  0  0  0  0  0  0  0  0
   -4.8354   10.8995  -32.8116 H   0  0  0  0  0  0  0  0  0  0  0  0
   -7.2119   12.8845  -25.6869 H   0  0  0  0  0  0  0  0  0  0  0  0
   -5.5078   13.3531  -25.4757 H   0  0  0  0  0  0  0  0  0  0  0  0
   -6.7184   14.5917  -25.7847 H   0  0  0  0  0  0  0  0  0  0  0  0
   -5.1662   14.6561  -30.9247 H   0  0  0  0  0  0  0  0  0  0  0  0
   -4.2194   16.1503  -31.1148 H   0  0  0  0  0  0  0  0  0  0  0  0
   -4.6916   15.1859  -32.5321 H   0  0  0  0  0  0  0  0  0  0  0  0
   -2.2931   12.3396  -31.8141 H   0  0  0  0  0  0  0  0  0  0  0  0
   -3.5071   12.8905  -32.9594 H   0  0  0  0  0  0  0  0  0  0  0  0
   -5.4136   14.1003  -27.8568 H   0  0  0  0  0  0  0  0  0  0  0  0
   -7.1192   13.6283  -28.0723 H   0  0  0  0  0  0  0  0  0  0  0  0
   -2.2861   14.8305  -31.9637 H   0  0  0  0  0  0  0  0  0  0  0  0
   -7.2961   10.4345  -28.1259 H   0  0  0  0  0  0  0  0  0  0  0  0
   -2.5129   15.2394  -29.7706 H   0  0  0  0  0  0  0  0  0  0  0  0
  1  3  1  0  0  0  0
  1  4  2  0  0  0  0
  2  3  2  0  0  0  0
  2  6  1  0  0  0  0
  3  9  1  0  0  0  0
  4  5  1  0  0  0  0
  4 14  1  0  0  0  0
  5  6  2  0  0  0  0
  5 12  1  0  0  0  0
  6 15  1  0  0  0  0
  7 10  1  0  0  0  0
  8 11  1  1  0  0  0
  9 11  1  0  0  0  0
 10 14  1  0  0  0  0
 11 13  1  0  0  0  0
  1 16  1  0  0  0  0
  2 17  1  0  0  0  0
  7 18  1  0  0  0  0
  7 19  1  0  0  0  0
  7 20  1  0  0  0  0
  8 21  1  0  0  0  0
  8 22  1  0  0  0  0
  8 23  1  0  0  0  0
  9 24  1  0  0  0  0
  9 25  1  0  0  0  0
 10 26  1  0  0  0  0
 10 27  1  0  0  0  0
 11 28  1  0  0  0  0
 12 29  1  0  0  0  0
 13 30  1  0  0  0  0
M  END
> <id>
EN300-1920234

> <smiles>
CCOC=1C=C(C[C@@H](C)O)C=C(Br)C1O

> <IUPAC Name>
2-bromo-6-ethoxy-4-[(2R)-2-hydroxypropyl]phenol

> <CAS>
2227642-64-8

> <URL>
https://www.enaminestore.com/catalog/EN300-1920234

> <ROCS_ShapeQuery>
_x1604L0AP1_x0771L0AP1

> <ROCS_TanimotoCombo>
0.883 

> <ROCS_ShapeTanimoto>
0.528 

> <ROCS_ColorTanimoto>
0.355 

> <ROCS_RefTversky>
0.484 

> <ROCS_RefColorTversky>
0.427 

> <ROCS_RefTverskyCombo>
0.911 

> <ROCS_FitTversky>
1.208 

> <ROCS_FitColorTversky>
0.677 

> <ROCS_FitTverskyCombo>
1.885 

> <ROCS_ColorScore>
-4.898

> <ROCS_Overlap>
822.642

> <ROCS_Rank>
456                 

$$$$
untitled-dbase-134_0
  -OEChem-06042309053D

 19 20  0     0  0  0  0  0  0999 V2000
   -5.5164   11.2754  -33.4027 C   0  0  0  0  0  0  0  0  0  0  0  0
   -4.4647   12.1423  -31.3668 C   0  0  0  0  0  0  0  0  0  0  0  0
   -6.5018   10.5029  -34.0181 C   0  0  0  0  0  0  0  0  0  0  0  0
   -4.4133   12.2246  -29.9750 C   0  0  0  0  0  0  0  0  0  0  0  0
   -7.3809    9.8974  -31.8528 C   0  0  0  0  0  0  0  0  0  0  0  0
   -5.4497   11.3695  -32.0031 C   0  0  0  0  0  0  0  0  0  0  0  0
   -6.3959   10.6702  -31.2165 C   0  0  0  0  0  0  0  0  0  0  0  0
   -6.3293   10.7644  -29.8169 C   0  0  0  0  0  0  0  0  0  0  0  0
   -7.4323    9.8152  -33.2446 C   0  0  0  0  0  0  0  0  0  0  0  0
   -5.3438   11.5369  -29.2016 C   0  0  0  0  0  0  0  0  0  0  0  0
   -7.2358   10.0933  -29.0423 O   0  0  0  0  0  0  0  0  0  0  0  0
   -8.7658    8.7696  -34.0825 Br  0  0  0  0  0  0  0  0  0  0  0  0
   -5.2345   11.6787  -27.3132 Br  0  0  0  0  0  0  0  0  0  0  0  0
   -4.7993   11.8050  -34.0265 H   0  0  0  0  0  0  0  0  0  0  0  0
   -3.7269   12.6884  -31.9508 H   0  0  0  0  0  0  0  0  0  0  0  0
   -6.5280   10.4499  -35.1034 H   0  0  0  0  0  0  0  0  0  0  0  0
   -3.6387   12.8311  -29.5126 H   0  0  0  0  0  0  0  0  0  0  0  0
   -8.1170    9.3520  -31.2646 H   0  0  0  0  0  0  0  0  0  0  0  0
   -7.0559   10.2600  -28.1059 H   0  0  0  0  0  0  0  0  0  0  0  0
  1  3  1  0  0  0  0
  1  6  2  0  0  0  0
  2  4  2  0  0  0  0
  2  6  1  0  0  0  0
  3  9  2  0  0  0  0
  4 10  1  0  0  0  0
  5  7  2  0  0  0  0
  5  9  1  0  0  0  0
  6  7  1  0  0  0  0
  7  8  1  0  0  0  0
  8 10  2  0  0  0  0
  8 11  1  0  0  0  0
  9 12  1  0  0  0  0
 10 13  1  0  0  0  0
  1 14  1  0  0  0  0
  2 15  1  0  0  0  0
  3 16  1  0  0  0  0
  4 17  1  0  0  0  0
  5 18  1  0  0  0  0
 11 19  1  0  0  0  0
M  END
> <id>
EN300-1144194

> <smiles>
OC=1C(Br)=CC=C2C=CC(Br)=CC12

> <MDLNUMBER>
MFCD31603924

> <IUPAC Name>
2,7-dibromonaphthalen-1-ol

> <CAS>
1476093-90-9

> <URL>
https://www.enaminestore.com/catalog/EN300-1144194

> <ROCS_ShapeQuery>
_x1604L0AP1_x0771L0AP1

> <ROCS_TanimotoCombo>
0.883 

> <ROCS_ShapeTanimoto>
0.508 

> <ROCS_ColorTanimoto>
0.375 

> <ROCS_RefTversky>
0.461 

> <ROCS_RefColorTversky>
0.423 

> <ROCS_RefTverskyCombo>
0.884 

> <ROCS_FitTversky>
1.251 

> <ROCS_FitColorTversky>
0.768 

> <ROCS_FitTverskyCombo>
2.020 

> <ROCS_ColorScore>
-4.833

> <ROCS_Overlap>
781.159

> <ROCS_Rank>
457                 

$$$$
untitled-dbase-2210_41
  -OEChem-06042309053D

 21 22  0     0  0  0  0  0  0999 V2000
   -4.9654   12.5488  -28.7650 C   0  0  0  0  0  0  0  0  0  0  0  0
   -4.8966   11.6328  -30.9996 C   0  0  0  0  0  0  0  0  0  0  0  0
   -5.9879   11.6604  -28.4323 C   0  0  0  0  0  0  0  0  0  0  0  0
   -6.4648   10.7581  -29.3831 C   0  0  0  0  0  0  0  0  0  0  0  0
   -4.4198   12.5351  -30.0487 C   0  0  0  0  0  0  0  0  0  0  0  0
   -5.9191   10.7443  -30.6668 C   0  0  0  0  0  0  0  0  0  0  0  0
   -7.1034   10.4159  -26.4640 C   0  0  0  0  0  0  0  0  0  0  0  0
   -8.0436   11.5045  -26.8782 C   0  0  0  0  0  0  0  0  0  0  0  0
   -6.5584   11.6917  -27.0532 C   0  0  0  0  0  0  0  0  0  0  0  0
   -7.4654    9.8940  -29.0441 O   0  0  0  0  0  0  0  0  0  0  0  0
   -5.9158   12.5953  -26.1393 O   0  0  0  0  0  0  0  0  0  0  0  0
   -3.1580   13.6315  -30.4587 Cl  0  0  0  0  0  0  0  0  0  0  0  0
   -6.5412    9.5335  -31.9867 Br  0  0  0  0  0  0  0  0  0  0  0  0
   -4.5955   13.2509  -28.0209 H   0  0  0  0  0  0  0  0  0  0  0  0
   -4.4690   11.6259  -31.9999 H   0  0  0  0  0  0  0  0  0  0  0  0
   -6.9647   10.2457  -25.4028 H   0  0  0  0  0  0  0  0  0  0  0  0
   -7.0891    9.5115  -27.0611 H   0  0  0  0  0  0  0  0  0  0  0  0
   -8.6613   11.3292  -27.7514 H   0  0  0  0  0  0  0  0  0  0  0  0
   -8.5380   12.0694  -26.0965 H   0  0  0  0  0  0  0  0  0  0  0  0
   -7.6904    9.3323  -29.8011 H   0  0  0  0  0  0  0  0  0  0  0  0
   -4.9957   12.3048  -26.0833 H   0  0  0  0  0  0  0  0  0  0  0  0
  1  3  2  0  0  0  0
  1  5  1  0  0  0  0
  2  5  2  0  0  0  0
  2  6  1  0  0  0  0
  3  4  1  0  0  0  0
  3  9  1  0  0  0  0
  4  6  2  0  0  0  0
  4 10  1  0  0  0  0
  5 12  1  0  0  0  0
  6 13  1  0  0  0  0
  7  8  1  0  0  0  0
  7  9  1  0  0  0  0
  8  9  1  0  0  0  0
  9 11  1  0  0  0  0
  1 14  1  0  0  0  0
  2 15  1  0  0  0  0
  7 16  1  0  0  0  0
  7 17  1  0  0  0  0
  8 18  1  0  0  0  0
  8 19  1  0  0  0  0
 10 20  1  0  0  0  0
 11 21  1  0  0  0  0
M  END
> <id>
EN300-1922577

> <smiles>
OC=1C(Br)=CC(Cl)=CC1C2(O)CC2

> <IUPAC Name>
2-bromo-4-chloro-6-(1-hydroxycyclopropyl)phenol

> <CAS>
2228708-80-1

> <URL>
https://www.enaminestore.com/catalog/EN300-1922577

> <ROCS_ShapeQuery>
_x1604L0AP1_x0771L0AP1

> <ROCS_TanimotoCombo>
0.883 

> <ROCS_ShapeTanimoto>
0.422 

> <ROCS_ColorTanimoto>
0.461 

> <ROCS_RefTversky>
0.404 

> <ROCS_RefColorTversky>
0.490 

> <ROCS_RefTverskyCombo>
0.893 

> <ROCS_FitTversky>
1.118 

> <ROCS_FitColorTversky>
0.889 

> <ROCS_FitTverskyCombo>
2.007 

> <ROCS_ColorScore>
-5.589

> <ROCS_Overlap>
684.157

> <ROCS_Rank>
458                 

$$$$
untitled-dbase-1987_24
  -OEChem-06042309053D

 20 20  0     0  0  0  0  0  0999 V2000
   -4.5824   12.5286  -30.2876 C   0  0  0  0  0  0  0  0  0  0  0  0
   -5.1309   10.9392  -32.0225 C   0  0  0  0  0  0  0  0  0  0  0  0
   -5.5169   11.9293  -29.4431 C   0  0  0  0  0  0  0  0  0  0  0  0
   -6.2583   10.8349  -29.8883 C   0  0  0  0  0  0  0  0  0  0  0  0
   -4.3895   12.0336  -31.5774 C   0  0  0  0  0  0  0  0  0  0  0  0
   -6.0653   10.3398  -31.1780 C   0  0  0  0  0  0  0  0  0  0  0  0
   -5.7016   12.4651  -28.1014 C   0  0  0  0  0  0  0  0  0  0  0  0
   -6.1294   11.5326  -26.9617 C   0  0  0  0  0  0  0  0  0  0  0  0
   -6.2508   12.2575  -25.7191 N   0  0  0  0  0  0  0  0  0  0  0  0
   -5.5136   13.6761  -27.8693 O   0  0  0  0  0  0  0  0  0  0  0  0
   -7.1709   10.2582  -29.0527 O   0  0  0  0  0  0  0  0  0  0  0  0
   -3.2364   12.7738  -32.6189 Cl  0  0  0  0  0  0  0  0  0  0  0  0
   -7.0532    8.8542  -31.8199 Br  0  0  0  0  0  0  0  0  0  0  0  0
   -4.0055   13.3824  -29.9383 H   0  0  0  0  0  0  0  0  0  0  0  0
   -4.9775   10.5563  -33.0293 H   0  0  0  0  0  0  0  0  0  0  0  0
   -5.3768   10.7488  -26.8392 H   0  0  0  0  0  0  0  0  0  0  0  0
   -7.0990   11.0918  -27.2103 H   0  0  0  0  0  0  0  0  0  0  0  0
   -6.0276   13.2172  -25.8768 H   0  0  0  0  0  0  0  0  0  0  0  0
   -7.1878   12.1787  -25.3850 H   0  0  0  0  0  0  0  0  0  0  0  0
   -7.6052    9.5147  -29.4974 H   0  0  0  0  0  0  0  0  0  0  0  0
  1  3  2  0  0  0  0
  1  5  1  0  0  0  0
  2  5  2  0  0  0  0
  2  6  1  0  0  0  0
  3  4  1  0  0  0  0
  3  7  1  0  0  0  0
  4  6  2  0  0  0  0
  4 11  1  0  0  0  0
  5 12  1  0  0  0  0
  6 13  1  0  0  0  0
  7  8  1  0  0  0  0
  7 10  2  0  0  0  0
  8  9  1  0  0  0  0
  1 14  1  0  0  0  0
  2 15  1  0  0  0  0
  8 16  1  0  0  0  0
  8 17  1  0  0  0  0
  9 18  1  0  0  0  0
  9 19  1  0  0  0  0
 11 20  1  0  0  0  0
M  END
> <id>
EN300-1912794

> <smiles>
NCC(=O)C=1C=C(Cl)C=C(Br)C1O

> <MDLNUMBER>
MFCD28979688

> <IUPAC Name>
2-amino-1-(3-bromo-5-chloro-2-hydroxyphenyl)ethan-1-one

> <CAS>
1379950-30-7

> <URL>
https://www.enaminestore.com/catalog/EN300-1912794

> <ROCS_ShapeQuery>
_x1604L0AP1_x0771L0AP1

> <ROCS_TanimotoCombo>
0.883 

> <ROCS_ShapeTanimoto>
0.457 

> <ROCS_ColorTanimoto>
0.426 

> <ROCS_RefTversky>
0.426 

> <ROCS_RefColorTversky>
0.487 

> <ROCS_RefTverskyCombo>
0.913 

> <ROCS_FitTversky>
1.193 

> <ROCS_FitColorTversky>
0.772 

> <ROCS_FitTverskyCombo>
1.965 

> <ROCS_ColorScore>
-5.587

> <ROCS_Overlap>
721.214

> <ROCS_Rank>
459                 

$$$$
untitled-dbase-254_1
  -OEChem-06042309053D

 18 18  0     0  0  0  0  0  0999 V2000
   -4.8270   12.6535  -29.5580 C   0  0  0  0  0  0  0  0  0  0  0  0
   -4.9681   11.2667  -31.5313 C   0  0  0  0  0  0  0  0  0  0  0  0
   -5.8310   11.8965  -28.9542 C   0  0  0  0  0  0  0  0  0  0  0  0
   -6.4035   10.8246  -29.6390 C   0  0  0  0  0  0  0  0  0  0  0  0
   -4.3955   12.3386  -30.8466 C   0  0  0  0  0  0  0  0  0  0  0  0
   -5.9721   10.5097  -30.9275 C   0  0  0  0  0  0  0  0  0  0  0  0
   -6.2657   12.2457  -27.6087 C   0  0  0  0  0  0  0  0  0  0  0  0
   -7.7073   12.6162  -27.4223 C   0  0  0  0  0  0  0  0  0  0  0  0
   -5.5373   12.2637  -26.6157 O   0  0  0  0  0  0  0  0  0  0  0  0
   -7.3865   10.0925  -29.0378 O   0  0  0  0  0  0  0  0  0  0  0  0
   -3.1567   13.2732  -31.5911 Cl  0  0  0  0  0  0  0  0  0  0  0  0
   -6.7251    9.0606  -31.8908 Br  0  0  0  0  0  0  0  0  0  0  0  0
   -4.3820   13.4893  -29.0221 H   0  0  0  0  0  0  0  0  0  0  0  0
   -4.6289   11.0245  -32.5363 H   0  0  0  0  0  0  0  0  0  0  0  0
   -8.3624   11.7620  -27.1890 H   0  0  0  0  0  0  0  0  0  0  0  0
   -8.1378   13.1343  -28.2932 H   0  0  0  0  0  0  0  0  0  0  0  0
   -7.8717   13.3108  -26.5793 H   0  0  0  0  0  0  0  0  0  0  0  0
   -7.6849    9.3865  -29.6308 H   0  0  0  0  0  0  0  0  0  0  0  0
  1  3  2  0  0  0  0
  1  5  1  0  0  0  0
  2  5  2  0  0  0  0
  2  6  1  0  0  0  0
  3  4  1  0  0  0  0
  3  7  1  0  0  0  0
  4  6  2  0  0  0  0
  4 10  1  0  0  0  0
  5 11  1  0  0  0  0
  6 12  1  0  0  0  0
  7  8  1  0  0  0  0
  7  9  2  0  0  0  0
  1 13  1  0  0  0  0
  2 14  1  0  0  0  0
  8 15  1  0  0  0  0
  8 16  1  0  0  0  0
  8 17  1  0  0  0  0
 10 18  1  0  0  0  0
M  END
> <id>
EN300-1276933

> <smiles>
CC(=O)C=1C=C(Cl)C=C(Br)C1O

> <MDLNUMBER>
MFCD00857068

> <IUPAC Name>
1-(3-bromo-5-chloro-2-hydroxyphenyl)ethan-1-one

> <CAS>
59443-15-1

> <URL>
https://www.enaminestore.com/catalog/EN300-1276933

> <ROCS_ShapeQuery>
_x1604L0AP1_x0771L0AP1

> <ROCS_TanimotoCombo>
0.883 

> <ROCS_ShapeTanimoto>
0.448 

> <ROCS_ColorTanimoto>
0.435 

> <ROCS_RefTversky>
0.413 

> <ROCS_RefColorTversky>
0.446 

> <ROCS_RefTverskyCombo>
0.858 

> <ROCS_FitTversky>
1.234 

> <ROCS_FitColorTversky>
0.949 

> <ROCS_FitTverskyCombo>
2.183 

> <ROCS_ColorScore>
-5.063

> <ROCS_Overlap>
698.676

> <ROCS_Rank>
460                 

$$$$
untitled-dbase-2196_30
  -OEChem-06042309053D

 25 26  0     0  0  0  0  0  0999 V2000
   -5.0123   11.2745  -31.7185 C   0  0  0  0  0  0  0  0  0  0  0  0
   -4.5367   12.4979  -29.6902 C   0  0  0  0  0  0  0  0  0  0  0  0
   -6.0051   10.5560  -31.0524 C   0  0  0  0  0  0  0  0  0  0  0  0
   -6.2638   10.8084  -29.7052 C   0  0  0  0  0  0  0  0  0  0  0  0
   -4.2781   12.2454  -31.0374 C   0  0  0  0  0  0  0  0  0  0  0  0
   -5.5296   11.7794  -29.0241 C   0  0  0  0  0  0  0  0  0  0  0  0
   -6.7152   10.5707  -34.1914 C   0  0  0  0  0  0  0  0  0  0  0  0
   -7.2337    8.5617  -34.1975 C   0  0  0  0  0  0  0  0  0  0  0  0
   -6.3449    9.4009  -33.2517 C   0  0  0  0  0  0  0  0  0  0  0  0
   -6.7874    9.5102  -31.8083 C   0  0  0  0  0  0  0  0  0  0  0  0
   -6.9657    9.5671  -35.2504 N   0  0  0  0  0  0  0  0  0  0  0  0
   -7.2382   10.0970  -29.0674 O   0  0  0  0  0  0  0  0  0  0  0  0
   -3.0530   13.1316  -31.8598 Cl  0  0  0  0  0  0  0  0  0  0  0  0
   -5.8517   12.1509  -27.1929 Br  0  0  0  0  0  0  0  0  0  0  0  0
   -4.8139   11.0749  -32.7695 H   0  0  0  0  0  0  0  0  0  0  0  0
   -3.9616   13.2555  -29.1625 H   0  0  0  0  0  0  0  0  0  0  0  0
   -7.6103   11.1339  -33.9013 H   0  0  0  0  0  0  0  0  0  0  0  0
   -5.9080   11.2746  -34.4111 H   0  0  0  0  0  0  0  0  0  0  0  0
   -6.8678    7.5560  -34.4216 H   0  0  0  0  0  0  0  0  0  0  0  0
   -8.2896    8.5014  -33.9077 H   0  0  0  0  0  0  0  0  0  0  0  0
   -5.2823    9.1265  -33.3222 H   0  0  0  0  0  0  0  0  0  0  0  0
   -6.6776    8.5391  -31.3051 H   0  0  0  0  0  0  0  0  0  0  0  0
   -7.8589    9.7508  -31.7589 H   0  0  0  0  0  0  0  0  0  0  0  0
   -7.7575    9.7731  -35.8570 H   0  0  0  0  0  0  0  0  0  0  0  0
   -7.3045   10.3788  -28.1424 H   0  0  0  0  0  0  0  0  0  0  0  0
  1  3  2  0  0  0  0
  1  5  1  0  0  0  0
  2  5  2  0  0  0  0
  2  6  1  0  0  0  0
  3  4  1  0  0  0  0
  3 10  1  0  0  0  0
  4  6  2  0  0  0  0
  4 12  1  0  0  0  0
  5 13  1  0  0  0  0
  6 14  1  0  0  0  0
  7  9  1  0  0  0  0
  7 11  1  0  0  0  0
  8  9  1  0  0  0  0
  8 11  1  0  0  0  0
  9 10  1  0  0  0  0
  1 15  1  0  0  0  0
  2 16  1  0  0  0  0
  7 17  1  0  0  0  0
  7 18  1  0  0  0  0
  8 19  1  0  0  0  0
  8 20  1  0  0  0  0
  9 21  1  0  0  0  0
 10 22  1  0  0  0  0
 10 23  1  0  0  0  0
 11 24  1  0  0  0  0
 12 25  1  0  0  0  0
M  END
> <id>
EN300-2003994

> <smiles>
OC=1C(Br)=CC(Cl)=CC1CC2CNC2

> <IUPAC Name>
2-[(azetidin-3-yl)methyl]-6-bromo-4-chlorophenol

> <CAS>
2229090-74-6

> <URL>
https://www.enaminestore.com/catalog/EN300-2003994

> <ROCS_ShapeQuery>
_x1604L0AP1_x0771L0AP1

> <ROCS_TanimotoCombo>
0.883 

> <ROCS_ShapeTanimoto>
0.618 

> <ROCS_ColorTanimoto>
0.264 

> <ROCS_RefTversky>
0.528 

> <ROCS_RefColorTversky>
0.341 

> <ROCS_RefTverskyCombo>
0.869 

> <ROCS_FitTversky>
1.383 

> <ROCS_FitColorTversky>
0.540 

> <ROCS_FitTverskyCombo>
1.923 

> <ROCS_ColorScore>
-3.910

> <ROCS_Overlap>
896.112

> <ROCS_Rank>
461                 

$$$$
untitled-dbase-1077_25
  -OEChem-06042309053D

 21 21  0     1  0  0  0  0  0999 V2000
   -5.0322   11.2040  -31.7678 C   0  0  0  0  0  0  0  0  0  0  0  0
   -4.5612   12.4971  -29.7821 C   0  0  0  0  0  0  0  0  0  0  0  0
   -6.0157   10.4982  -31.0749 C   0  0  0  0  0  0  0  0  0  0  0  0
   -6.2719   10.7918  -29.7356 C   0  0  0  0  0  0  0  0  0  0  0  0
   -4.3049   12.2035  -31.1214 C   0  0  0  0  0  0  0  0  0  0  0  0
   -5.5447   11.7913  -29.0891 C   0  0  0  0  0  0  0  0  0  0  0  0
   -6.7826    9.4320  -31.7860 C   0  0  2  0  0  0  0  0  0  0  0  0
   -6.3271    9.2445  -33.2398 C   0  0  0  0  0  0  0  0  0  0  0  0
   -8.2335    9.6894  -31.7730 N   0  0  0  0  0  0  0  0  0  0  0  0
   -7.2372   10.0922  -29.0712 O   0  0  0  0  0  0  0  0  0  0  0  0
   -7.0919    8.2869  -33.8269 F   0  0  0  0  0  0  0  0  0  0  0  0
   -6.5408   10.3824  -33.9516 F   0  0  0  0  0  0  0  0  0  0  0  0
   -3.0913   13.0741  -31.9769 Cl  0  0  0  0  0  0  0  0  0  0  0  0
   -5.8638   12.2190  -27.2698 Br  0  0  0  0  0  0  0  0  0  0  0  0
   -4.8357   10.9723  -32.8125 H   0  0  0  0  0  0  0  0  0  0  0  0
   -3.9915   13.2770  -29.2815 H   0  0  0  0  0  0  0  0  0  0  0  0
   -6.6364    8.4584  -31.2852 H   0  0  0  0  0  0  0  0  0  0  0  0
   -5.2746    8.9624  -33.3410 H   0  0  0  0  0  0  0  0  0  0  0  0
   -8.6709    8.9517  -32.2643 H   0  0  0  0  0  0  0  0  0  0  0  0
   -8.5222    9.7138  -30.8279 H   0  0  0  0  0  0  0  0  0  0  0  0
   -7.3029   10.4033  -28.1556 H   0  0  0  0  0  0  0  0  0  0  0  0
  1  3  2  0  0  0  0
  1  5  1  0  0  0  0
  2  5  2  0  0  0  0
  2  6  1  0  0  0  0
  3  4  1  0  0  0  0
  3  7  1  0  0  0  0
  4  6  2  0  0  0  0
  4 10  1  0  0  0  0
  5 13  1  0  0  0  0
  6 14  1  0  0  0  0
  7  8  1  0  0  0  0
  7  9  1  0  0  0  0
  8 11  1  0  0  0  0
  8 12  1  0  0  0  0
  1 15  1  0  0  0  0
  2 16  1  0  0  0  0
  7 17  1  0  0  0  0
  8 18  1  0  0  0  0
  9 19  1  0  0  0  0
  9 20  1  0  0  0  0
 10 21  1  0  0  0  0
M  END
> <id>
EN300-1941850

> <smiles>
NC(C(F)F)C=1C=C(Cl)C=C(Br)C1O

> <IUPAC Name>
2-(1-amino-2,2-difluoroethyl)-6-bromo-4-chlorophenol

> <CAS>
1936695-65-6

> <URL>
https://www.enaminestore.com/catalog/EN300-1941850

> <ROCS_ShapeQuery>
_x1604L0AP1_x0771L0AP1

> <ROCS_TanimotoCombo>
0.883 

> <ROCS_ShapeTanimoto>
0.601 

> <ROCS_ColorTanimoto>
0.281 

> <ROCS_RefTversky>
0.519 

> <ROCS_RefColorTversky>
0.340 

> <ROCS_RefTverskyCombo>
0.859 

> <ROCS_FitTversky>
1.360 

> <ROCS_FitColorTversky>
0.618 

> <ROCS_FitTverskyCombo>
1.978 

> <ROCS_ColorScore>
-3.886

> <ROCS_Overlap>
880.599

> <ROCS_Rank>
462                 

$$$$
untitled-dbase-1725_23
  -OEChem-06042309053D

 24 24  0     1  0  0  0  0  0999 V2000
   -4.6625   12.6048  -30.3535 C   0  0  0  0  0  0  0  0  0  0  0  0
   -5.1236   10.9144  -32.0169 C   0  0  0  0  0  0  0  0  0  0  0  0
   -5.5911   12.0146  -29.4962 C   0  0  0  0  0  0  0  0  0  0  0  0
   -6.2860   10.8742  -29.8993 C   0  0  0  0  0  0  0  0  0  0  0  0
   -4.4288   12.0548  -31.6139 C   0  0  0  0  0  0  0  0  0  0  0  0
   -6.0522   10.3241  -31.1596 C   0  0  0  0  0  0  0  0  0  0  0  0
   -4.0279   11.6099  -26.6413 C   0  0  0  0  0  0  0  0  0  0  0  0
   -5.8287   12.6263  -28.1364 C   0  0  0  0  0  0  0  0  0  0  0  0
   -5.5200   11.6718  -26.9684 C   0  0  2  0  0  0  0  0  0  0  0  0
   -6.2369   12.1167  -25.7697 N   0  0  0  0  0  0  0  0  0  0  0  0
   -7.1914   10.3084  -29.0492 O   0  0  0  0  0  0  0  0  0  0  0  0
   -3.2830   12.7837  -32.6714 Cl  0  0  0  0  0  0  0  0  0  0  0  0
   -6.9769    8.7752  -31.7433 Br  0  0  0  0  0  0  0  0  0  0  0  0
   -4.1223   13.4939  -30.0351 H   0  0  0  0  0  0  0  0  0  0  0  0
   -4.9388   10.4889  -33.0008 H   0  0  0  0  0  0  0  0  0  0  0  0
   -3.6402   12.6050  -26.3948 H   0  0  0  0  0  0  0  0  0  0  0  0
   -3.4460   11.2210  -27.4846 H   0  0  0  0  0  0  0  0  0  0  0  0
   -3.8394   10.9672  -25.7753 H   0  0  0  0  0  0  0  0  0  0  0  0
   -5.2406   13.5486  -28.0363 H   0  0  0  0  0  0  0  0  0  0  0  0
   -6.8803   12.9425  -28.0955 H   0  0  0  0  0  0  0  0  0  0  0  0
   -5.8651   10.6594  -27.2081 H   0  0  0  0  0  0  0  0  0  0  0  0
   -7.2064   12.1098  -25.9738 H   0  0  0  0  0  0  0  0  0  0  0  0
   -6.0243   11.4856  -25.0360 H   0  0  0  0  0  0  0  0  0  0  0  0
   -7.2311   10.8121  -28.2221 H   0  0  0  0  0  0  0  0  0  0  0  0
  1  3  2  0  0  0  0
  1  5  1  0  0  0  0
  2  5  2  0  0  0  0
  2  6  1  0  0  0  0
  3  4  1  0  0  0  0
  3  8  1  0  0  0  0
  4  6  2  0  0  0  0
  4 11  1  0  0  0  0
  5 12  1  0  0  0  0
  6 13  1  0  0  0  0
  7  9  1  6  0  0  0
  8  9  1  0  0  0  0
  9 10  1  0  0  0  0
  1 14  1  0  0  0  0
  2 15  1  0  0  0  0
  7 16  1  0  0  0  0
  7 17  1  0  0  0  0
  7 18  1  0  0  0  0
  8 19  1  0  0  0  0
  8 20  1  0  0  0  0
  9 21  1  0  0  0  0
 10 22  1  0  0  0  0
 10 23  1  0  0  0  0
 11 24  1  0  0  0  0
M  END
> <id>
EN300-1922595

> <smiles>
C[C@@H](N)CC=1C=C(Cl)C=C(Br)C1O

> <MDLNUMBER>
MFCD32329816

> <IUPAC Name>
2-[(2R)-2-aminopropyl]-6-bromo-4-chlorophenol

> <CAS>
1336357-97-1

> <URL>
https://www.enaminestore.com/catalog/EN300-1922595

> <ROCS_ShapeQuery>
_x1604L0AP1_x0771L0AP1

> <ROCS_TanimotoCombo>
0.883 

> <ROCS_ShapeTanimoto>
0.443 

> <ROCS_ColorTanimoto>
0.440 

> <ROCS_RefTversky>
0.414 

> <ROCS_RefColorTversky>
0.474 

> <ROCS_RefTverskyCombo>
0.888 

> <ROCS_FitTversky>
1.186 

> <ROCS_FitColorTversky>
0.860 

> <ROCS_FitTverskyCombo>
2.046 

> <ROCS_ColorScore>
-5.406

> <ROCS_Overlap>
701.660

> <ROCS_Rank>
463                 

$$$$
untitled-dbase-1493_27
  -OEChem-06042309053D

 30 30  0     0  0  0  0  0  0999 V2000
   -4.9014   11.0416  -31.7167 C   0  0  0  0  0  0  0  0  0  0  0  0
   -4.7227   12.6248  -29.9004 C   0  0  0  0  0  0  0  0  0  0  0  0
   -5.8787   10.3410  -31.0098 C   0  0  0  0  0  0  0  0  0  0  0  0
   -6.2780   10.7822  -29.7483 C   0  0  0  0  0  0  0  0  0  0  0  0
   -4.3233   12.1835  -31.1619 C   0  0  0  0  0  0  0  0  0  0  0  0
   -5.7000   11.9241  -29.1935 C   0  0  0  0  0  0  0  0  0  0  0  0
   -6.6431    8.9108  -32.9284 C   0  0  0  0  0  0  0  0  0  0  0  0
   -7.7717    9.6883  -35.4387 C   0  0  0  0  0  0  0  0  0  0  0  0
   -5.7229   11.1163  -35.7079 C   0  0  0  0  0  0  0  0  0  0  0  0
   -5.4945    8.6209  -35.5383 C   0  0  0  0  0  0  0  0  0  0  0  0
   -6.2928    9.8430  -35.0867 C   0  0  0  0  0  0  0  0  0  0  0  0
   -6.4534    9.1864  -31.5882 N   0  0  0  0  0  0  0  0  0  0  0  0
   -7.1413    7.9077  -33.4245 O   0  0  0  0  0  0  0  0  0  0  0  0
   -7.2353   10.0888  -29.0651 O   0  0  0  0  0  0  0  0  0  0  0  0
   -6.1736    9.9653  -33.6688 O   0  0  0  0  0  0  0  0  0  0  0  0
   -3.1170   13.0475  -32.0342 Cl  0  0  0  0  0  0  0  0  0  0  0  0
   -6.2168   12.5560  -27.4824 Br  0  0  0  0  0  0  0  0  0  0  0  0
   -4.5917   10.6965  -32.7009 H   0  0  0  0  0  0  0  0  0  0  0  0
   -4.2692   13.5156  -29.4712 H   0  0  0  0  0  0  0  0  0  0  0  0
   -8.1845    8.7754  -34.9946 H   0  0  0  0  0  0  0  0  0  0  0  0
   -8.3610   10.5423  -35.0891 H   0  0  0  0  0  0  0  0  0  0  0  0
   -7.9079    9.5939  -36.5221 H   0  0  0  0  0  0  0  0  0  0  0  0
   -4.6620   11.2313  -35.4579 H   0  0  0  0  0  0  0  0  0  0  0  0
   -6.2308   12.0040  -35.3139 H   0  0  0  0  0  0  0  0  0  0  0  0
   -5.8239   11.1142  -36.7980 H   0  0  0  0  0  0  0  0  0  0  0  0
   -4.4337    8.7316  -35.2859 H   0  0  0  0  0  0  0  0  0  0  0  0
   -5.8663    7.7020  -35.0734 H   0  0  0  0  0  0  0  0  0  0  0  0
   -5.5428    8.5045  -36.6271 H   0  0  0  0  0  0  0  0  0  0  0  0
   -6.7658    8.4700  -30.9372 H   0  0  0  0  0  0  0  0  0  0  0  0
   -7.4063   10.5127  -28.2107 H   0  0  0  0  0  0  0  0  0  0  0  0
  1  3  2  0  0  0  0
  1  5  1  0  0  0  0
  2  5  2  0  0  0  0
  2  6  1  0  0  0  0
  3  4  1  0  0  0  0
  3 12  1  0  0  0  0
  4  6  2  0  0  0  0
  4 14  1  0  0  0  0
  5 16  1  0  0  0  0
  6 17  1  0  0  0  0
  7 12  1  0  0  0  0
  7 13  2  0  0  0  0
  7 15  1  0  0  0  0
  8 11  1  0  0  0  0
  9 11  1  0  0  0  0
 10 11  1  0  0  0  0
 11 15  1  0  0  0  0
  1 18  1  0  0  0  0
  2 19  1  0  0  0  0
  8 20  1  0  0  0  0
  8 21  1  0  0  0  0
  8 22  1  0  0  0  0
  9 23  1  0  0  0  0
  9 24  1  0  0  0  0
  9 25  1  0  0  0  0
 10 26  1  0  0  0  0
 10 27  1  0  0  0  0
 10 28  1  0  0  0  0
 12 29  1  0  0  0  0
 14 30  1  0  0  0  0
M  END
> <id>
EN300-26665229

> <smiles>
CC(C)(C)OC(=O)NC=1C=C(Cl)C=C(Br)C1O

> <IUPAC Name>
tert-butyl N-(3-bromo-5-chloro-2-hydroxyphenyl)carbamate

> <CAS>
2413897-85-3

> <URL>
https://www.enaminestore.com/catalog/EN300-26665229

> <ROCS_ShapeQuery>
_x1604L0AP1_x0771L0AP1

> <ROCS_TanimotoCombo>
0.883 

> <ROCS_ShapeTanimoto>
0.618 

> <ROCS_ColorTanimoto>
0.264 

> <ROCS_RefTversky>
0.556 

> <ROCS_RefColorTversky>
0.341 

> <ROCS_RefTverskyCombo>
0.897 

> <ROCS_FitTversky>
1.220 

> <ROCS_FitColorTversky>
0.540 

> <ROCS_FitTverskyCombo>
1.760 

> <ROCS_ColorScore>
-3.910

> <ROCS_Overlap>
947.840

> <ROCS_Rank>
464                 

$$$$
untitled-dbase-2048_1
  -OEChem-06042309053D

 15 15  0     0  0  0  0  0  0999 V2000
   -5.0532   11.1673  -31.7495 C   0  0  0  0  0  0  0  0  0  0  0  0
   -5.5745   11.7859  -29.0796 C   0  0  0  0  0  0  0  0  0  0  0  0
   -6.2952   10.7746  -29.7148 C   0  0  0  0  0  0  0  0  0  0  0  0
   -4.3325   12.1786  -31.1145 C   0  0  0  0  0  0  0  0  0  0  0  0
   -4.5931   12.4879  -29.7795 C   0  0  0  0  0  0  0  0  0  0  0  0
   -6.0347   10.4653  -31.0497 C   0  0  0  0  0  0  0  0  0  0  0  0
   -5.8284   12.1150  -27.7191 N   0  3  0  0  0  0  0  0  0  0  0  0
   -5.1600   13.0296  -27.1825 O   0  5  0  0  0  0  0  0  0  0  0  0
   -6.7128   11.4801  -27.0976 O   0  0  0  0  0  0  0  0  0  0  0  0
   -7.2553   10.0920  -29.0234 O   0  0  0  0  0  0  0  0  0  0  0  0
   -3.3894   12.8521  -31.7864 F   0  0  0  0  0  0  0  0  0  0  0  0
   -3.8918   13.4622  -29.1823 F   0  0  0  0  0  0  0  0  0  0  0  0
   -6.9913    9.0980  -31.9498 Br  0  0  0  0  0  0  0  0  0  0  0  0
   -4.8364   10.9412  -32.7903 H   0  0  0  0  0  0  0  0  0  0  0  0
   -7.3115   10.4268  -28.1159 H   0  0  0  0  0  0  0  0  0  0  0  0
  1  4  2  0  0  0  0
  1  6  1  0  0  0  0
  2  3  1  0  0  0  0
  2  5  2  0  0  0  0
  2  7  1  0  0  0  0
  3  6  2  0  0  0  0
  3 10  1  0  0  0  0
  4  5  1  0  0  0  0
  4 11  1  0  0  0  0
  5 12  1  0  0  0  0
  6 13  1  0  0  0  0
  7  8  1  0  0  0  0
  7  9  2  0  0  0  0
  1 14  1  0  0  0  0
 10 15  1  0  0  0  0
M  CHG  2   7   1   8  -1
M  END
> <id>
EN300-2940789

> <smiles>
OC=1C(Br)=CC(F)=C(F)C1[N+](=O)[O-]

> <MDLNUMBER>
MFCD26099166

> <IUPAC Name>
6-bromo-3,4-difluoro-2-nitrophenol

> <CAS>
1644281-87-7

> <Purity>
95

> <URL>
https://www.enaminestore.com/catalog/EN300-2940789

> <ROCS_ShapeQuery>
_x1604L0AP1_x0771L0AP1

> <ROCS_TanimotoCombo>
0.882 

> <ROCS_ShapeTanimoto>
0.490 

> <ROCS_ColorTanimoto>
0.392 

> <ROCS_RefTversky>
0.452 

> <ROCS_RefColorTversky>
0.437 

> <ROCS_RefTverskyCombo>
0.889 

> <ROCS_FitTversky>
1.210 

> <ROCS_FitColorTversky>
0.792 

> <ROCS_FitTverskyCombo>
2.002 

> <ROCS_ColorScore>
-4.989

> <ROCS_Overlap>
766.588

> <ROCS_Rank>
465                 

$$$$
untitled-dbase-2137_1
  -OEChem-06042309053D

 18 18  0     0  0  0  0  0  0999 V2000
   -4.8235   12.6498  -29.5600 C   0  0  0  0  0  0  0  0  0  0  0  0
   -4.9686   11.2630  -31.5330 C   0  0  0  0  0  0  0  0  0  0  0  0
   -5.8290   11.8953  -28.9556 C   0  0  0  0  0  0  0  0  0  0  0  0
   -6.4043   10.8246  -29.6399 C   0  0  0  0  0  0  0  0  0  0  0  0
   -4.3934   12.3337  -30.8487 C   0  0  0  0  0  0  0  0  0  0  0  0
   -5.9741   10.5084  -30.9286 C   0  0  0  0  0  0  0  0  0  0  0  0
   -6.2589   12.2449  -27.6083 C   0  0  0  0  0  0  0  0  0  0  0  0
   -7.6984   12.6209  -27.4180 C   0  0  0  0  0  0  0  0  0  0  0  0
   -5.5278   12.2590  -26.6175 O   0  0  0  0  0  0  0  0  0  0  0  0
   -7.3868   10.0933  -29.0370 O   0  0  0  0  0  0  0  0  0  0  0  0
   -3.4277   13.0585  -31.4289 F   0  0  0  0  0  0  0  0  0  0  0  0
   -6.7285    9.0594  -31.8909 Br  0  0  0  0  0  0  0  0  0  0  0  0
   -4.3663   13.4859  -29.0370 H   0  0  0  0  0  0  0  0  0  0  0  0
   -4.6205   11.0319  -32.5363 H   0  0  0  0  0  0  0  0  0  0  0  0
   -8.3564   11.7692  -27.1839 H   0  0  0  0  0  0  0  0  0  0  0  0
   -8.1291   13.1417  -28.2873 H   0  0  0  0  0  0  0  0  0  0  0  0
   -7.8578   13.3153  -26.5739 H   0  0  0  0  0  0  0  0  0  0  0  0
   -7.6874    9.3881  -29.6298 H   0  0  0  0  0  0  0  0  0  0  0  0
  1  3  2  0  0  0  0
  1  5  1  0  0  0  0
  2  5  2  0  0  0  0
  2  6  1  0  0  0  0
  3  4  1  0  0  0  0
  3  7  1  0  0  0  0
  4  6  2  0  0  0  0
  4 10  1  0  0  0  0
  5 11  1  0  0  0  0
  6 12  1  0  0  0  0
  7  8  1  0  0  0  0
  7  9  2  0  0  0  0
  1 13  1  0  0  0  0
  2 14  1  0  0  0  0
  8 15  1  0  0  0  0
  8 16  1  0  0  0  0
  8 17  1  0  0  0  0
 10 18  1  0  0  0  0
M  END
> <id>
EN300-1256227

> <smiles>
CC(=O)C=1C=C(F)C=C(Br)C1O

> <MDLNUMBER>
MFCD16742831

> <IUPAC Name>
1-(3-bromo-5-fluoro-2-hydroxyphenyl)ethan-1-one

> <CAS>
393-62-4

> <Purity>
95

> <URL>
https://www.enaminestore.com/catalog/EN300-1256227

> <MP>
96-97

> <ROCS_ShapeQuery>
_x1604L0AP1_x0771L0AP1

> <ROCS_TanimotoCombo>
0.882 

> <ROCS_ShapeTanimoto>
0.448 

> <ROCS_ColorTanimoto>
0.435 

> <ROCS_RefTversky>
0.415 

> <ROCS_RefColorTversky>
0.445 

> <ROCS_RefTverskyCombo>
0.860 

> <ROCS_FitTversky>
1.217 

> <ROCS_FitColorTversky>
0.948 

> <ROCS_FitTverskyCombo>
2.165 

> <ROCS_ColorScore>
-5.060

> <ROCS_Overlap>
702.139

> <ROCS_Rank>
466                 

$$$$
untitled-dbase-1276_481
  -OEChem-06042309053D

 27 27  0     0  0  0  0  0  0999 V2000
   -4.6267   11.2074  -31.9080 C   0  0  0  0  0  0  0  0  0  0  0  0
   -4.3936   11.7293  -30.6356 C   0  0  0  0  0  0  0  0  0  0  0  0
   -5.7368   10.3940  -32.1356 C   0  0  0  0  0  0  0  0  0  0  0  0
   -5.2705   11.4377  -29.5908 C   0  0  0  0  0  0  0  0  0  0  0  0
   -6.3806   10.6242  -29.8183 C   0  0  0  0  0  0  0  0  0  0  0  0
   -6.6137   10.1024  -31.0908 C   0  0  0  0  0  0  0  0  0  0  0  0
   -3.8723   12.7761  -28.2090 C   0  0  0  0  0  0  0  0  0  0  0  0
   -5.9422    9.8614  -33.5173 C   0  0  0  0  0  0  0  0  0  0  0  0
   -5.9859    8.3286  -33.5409 C   0  0  0  0  0  0  0  0  0  0  0  0
   -6.1460    7.7831  -34.9531 C   0  0  0  0  0  0  0  0  0  0  0  0
   -7.2240   10.3536  -28.7801 O   0  0  0  0  0  0  0  0  0  0  0  0
   -6.1938    6.3643  -34.8948 O   0  0  0  0  0  0  0  0  0  0  0  0
   -5.0293   11.9549  -28.3536 O   0  0  0  0  0  0  0  0  0  0  0  0
   -8.1360    9.0008  -31.3946 Br  0  0  0  0  0  0  0  0  0  0  0  0
   -3.9372   11.4414  -32.7149 H   0  0  0  0  0  0  0  0  0  0  0  0
   -3.5276   12.3631  -30.4655 H   0  0  0  0  0  0  0  0  0  0  0  0
   -3.7976   13.1228  -27.1754 H   0  0  0  0  0  0  0  0  0  0  0  0
   -3.9438   13.6305  -28.8868 H   0  0  0  0  0  0  0  0  0  0  0  0
   -2.9858   12.1885  -28.4588 H   0  0  0  0  0  0  0  0  0  0  0  0
   -5.1396   10.2114  -34.1866 H   0  0  0  0  0  0  0  0  0  0  0  0
   -6.8772   10.2573  -33.9458 H   0  0  0  0  0  0  0  0  0  0  0  0
   -6.8095    7.9612  -32.9146 H   0  0  0  0  0  0  0  0  0  0  0  0
   -5.0726    7.9147  -33.0934 H   0  0  0  0  0  0  0  0  0  0  0  0
   -7.0739    8.1440  -35.4084 H   0  0  0  0  0  0  0  0  0  0  0  0
   -5.3009    8.0775  -35.5835 H   0  0  0  0  0  0  0  0  0  0  0  0
   -6.9127   10.7944  -27.9750 H   0  0  0  0  0  0  0  0  0  0  0  0
   -6.2959    6.0492  -35.8076 H   0  0  0  0  0  0  0  0  0  0  0  0
  1  2  1  0  0  0  0
  1  3  2  0  0  0  0
  2  4  2  0  0  0  0
  3  6  1  0  0  0  0
  3  8  1  0  0  0  0
  4  5  1  0  0  0  0
  4 13  1  0  0  0  0
  5  6  2  0  0  0  0
  5 11  1  0  0  0  0
  6 14  1  0  0  0  0
  7 13  1  0  0  0  0
  8  9  1  0  0  0  0
  9 10  1  0  0  0  0
 10 12  1  0  0  0  0
  1 15  1  0  0  0  0
  2 16  1  0  0  0  0
  7 17  1  0  0  0  0
  7 18  1  0  0  0  0
  7 19  1  0  0  0  0
  8 20  1  0  0  0  0
  8 21  1  0  0  0  0
  9 22  1  0  0  0  0
  9 23  1  0  0  0  0
 10 24  1  0  0  0  0
 10 25  1  0  0  0  0
 11 26  1  0  0  0  0
 12 27  1  0  0  0  0
M  END
> <id>
EN300-1935979

> <smiles>
COC=1C=CC(CCCO)=C(Br)C1O

> <IUPAC Name>
2-bromo-3-(3-hydroxypropyl)-6-methoxyphenol

> <CAS>
2228635-82-1

> <URL>
https://www.enaminestore.com/catalog/EN300-1935979

> <ROCS_ShapeQuery>
_x1604L0AP1_x0771L0AP1

> <ROCS_TanimotoCombo>
0.882 

> <ROCS_ShapeTanimoto>
0.517 

> <ROCS_ColorTanimoto>
0.366 

> <ROCS_RefTversky>
0.469 

> <ROCS_RefColorTversky>
0.437 

> <ROCS_RefTverskyCombo>
0.906 

> <ROCS_FitTversky>
1.242 

> <ROCS_FitColorTversky>
0.692 

> <ROCS_FitTverskyCombo>
1.934 

> <ROCS_ColorScore>
-5.008

> <ROCS_Overlap>
796.434

> <ROCS_Rank>
467                 

$$$$
untitled-dbase-157_22
  -OEChem-06042309053D

 25 26  0     1  0  0  0  0  0999 V2000
   -4.9822   11.1668  -31.7430 C   0  0  0  0  0  0  0  0  0  0  0  0
   -4.5970   12.5384  -29.7917 C   0  0  0  0  0  0  0  0  0  0  0  0
   -5.9682   10.4618  -31.0528 C   0  0  0  0  0  0  0  0  0  0  0  0
   -6.2686   10.7950  -29.7321 C   0  0  0  0  0  0  0  0  0  0  0  0
   -4.2965   12.2051  -31.1124 C   0  0  0  0  0  0  0  0  0  0  0  0
   -5.5831   11.8334  -29.1015 C   0  0  0  0  0  0  0  0  0  0  0  0
   -7.1232    8.4928  -34.1993 C   0  0  0  0  0  0  0  0  0  0  0  0
   -6.7793    9.9520  -34.3109 C   0  0  0  0  0  0  0  0  0  0  0  0
   -6.2109    9.1296  -33.1879 C   0  0  0  0  0  0  0  0  0  0  0  0
   -6.6901    9.3537  -31.7468 C   0  0  2  0  0  0  0  0  0  0  0  0
   -8.1292    9.5485  -31.7324 N   0  0  0  0  0  0  0  0  0  0  0  0
   -7.2358   10.0958  -29.0702 O   0  0  0  0  0  0  0  0  0  0  0  0
   -3.0798   13.0747  -31.9644 Cl  0  0  0  0  0  0  0  0  0  0  0  0
   -5.9629   12.3156  -27.3077 Br  0  0  0  0  0  0  0  0  0  0  0  0
   -4.7511   10.9041  -32.7732 H   0  0  0  0  0  0  0  0  0  0  0  0
   -4.0597   13.3484  -29.3034 H   0  0  0  0  0  0  0  0  0  0  0  0
   -8.1312    8.2346  -33.8990 H   0  0  0  0  0  0  0  0  0  0  0  0
   -6.6820    7.8145  -34.9193 H   0  0  0  0  0  0  0  0  0  0  0  0
   -6.1072   10.2522  -35.1055 H   0  0  0  0  0  0  0  0  0  0  0  0
   -7.5571   10.6711  -34.0855 H   0  0  0  0  0  0  0  0  0  0  0  0
   -5.1582    8.8775  -33.2319 H   0  0  0  0  0  0  0  0  0  0  0  0
   -6.5347    8.4033  -31.2076 H   0  0  0  0  0  0  0  0  0  0  0  0
   -8.5596    8.7788  -32.1933 H   0  0  0  0  0  0  0  0  0  0  0  0
   -8.4340    9.5983  -30.7865 H   0  0  0  0  0  0  0  0  0  0  0  0
   -7.3343   10.4365  -28.1683 H   0  0  0  0  0  0  0  0  0  0  0  0
  1  3  2  0  0  0  0
  1  5  1  0  0  0  0
  2  5  2  0  0  0  0
  2  6  1  0  0  0  0
  3  4  1  0  0  0  0
  3 10  1  0  0  0  0
  4  6  2  0  0  0  0
  4 12  1  0  0  0  0
  5 13  1  0  0  0  0
  6 14  1  0  0  0  0
  7  8  1  0  0  0  0
  7  9  1  0  0  0  0
  8  9  1  0  0  0  0
  9 10  1  0  0  0  0
 10 11  1  0  0  0  0
  1 15  1  0  0  0  0
  2 16  1  0  0  0  0
  7 17  1  0  0  0  0
  7 18  1  0  0  0  0
  8 19  1  0  0  0  0
  8 20  1  0  0  0  0
  9 21  1  0  0  0  0
 10 22  1  0  0  0  0
 11 23  1  0  0  0  0
 11 24  1  0  0  0  0
 12 25  1  0  0  0  0
M  END
> <id>
EN300-1277248

> <smiles>
NC(C1CC1)C=2C=C(Cl)C=C(Br)C2O

> <MDLNUMBER>
MFCD24522675

> <IUPAC Name>
2-[amino(cyclopropyl)methyl]-6-bromo-4-chlorophenol

> <CAS>
1337266-69-9

> <URL>
https://www.enaminestore.com/catalog/EN300-1277248

> <ROCS_ShapeQuery>
_x1604L0AP1_x0771L0AP1

> <ROCS_TanimotoCombo>
0.882 

> <ROCS_ShapeTanimoto>
0.601 

> <ROCS_ColorTanimoto>
0.281 

> <ROCS_RefTversky>
0.518 

> <ROCS_RefColorTversky>
0.340 

> <ROCS_RefTverskyCombo>
0.858 

> <ROCS_FitTversky>
1.364 

> <ROCS_FitColorTversky>
0.618 

> <ROCS_FitTverskyCombo>
1.982 

> <ROCS_ColorScore>
-3.885

> <ROCS_Overlap>
878.869

> <ROCS_Rank>
468                 

$$$$
untitled-dbase-1130_174
  -OEChem-06042309053D

 22 22  0     1  0  0  0  0  0999 V2000
   -4.5498   12.4350  -29.8104 C   0  0  0  0  0  0  0  0  0  0  0  0
   -5.5463   11.7533  -29.1119 C   0  0  0  0  0  0  0  0  0  0  0  0
   -5.0259   11.1155  -31.7775 C   0  0  0  0  0  0  0  0  0  0  0  0
   -4.2896   12.1161  -31.1432 C   0  0  0  0  0  0  0  0  0  0  0  0
   -6.2826   10.7527  -29.7461 C   0  0  0  0  0  0  0  0  0  0  0  0
   -6.0224   10.4338  -31.0789 C   0  0  0  0  0  0  0  0  0  0  0  0
   -3.5149   15.1170  -31.1537 C   0  0  0  0  0  0  0  0  0  0  0  0
   -3.2239   12.8454  -31.8889 C   0  0  0  0  0  0  0  0  0  0  0  0
   -3.6323   14.1740  -32.2691 N   0  0  1  0  0  0  0  0  0  0  0  0
   -7.2483   10.1043  -29.0353 O   0  0  0  0  0  0  0  0  0  0  0  0
   -5.0680   14.0817  -32.5039 O   0  0  0  0  0  0  0  0  0  0  0  0
   -7.0021    9.0789  -31.9719 Br  0  0  0  0  0  0  0  0  0  0  0  0
   -3.9815   13.2129  -29.3072 H   0  0  0  0  0  0  0  0  0  0  0  0
   -5.7433   12.0073  -28.0737 H   0  0  0  0  0  0  0  0  0  0  0  0
   -4.8165   10.8739  -32.8173 H   0  0  0  0  0  0  0  0  0  0  0  0
   -3.8348   16.1166  -31.4828 H   0  0  0  0  0  0  0  0  0  0  0  0
   -4.1533   14.7829  -30.3225 H   0  0  0  0  0  0  0  0  0  0  0  0
   -2.4682   15.1592  -30.8181 H   0  0  0  0  0  0  0  0  0  0  0  0
   -2.3116   12.9414  -31.2835 H   0  0  0  0  0  0  0  0  0  0  0  0
   -2.9398   12.3147  -32.8081 H   0  0  0  0  0  0  0  0  0  0  0  0
   -7.6812    9.4375  -29.5907 H   0  0  0  0  0  0  0  0  0  0  0  0
   -5.0757   13.4509  -33.2437 H   0  0  0  0  0  0  0  0  0  0  0  0
  1  2  1  0  0  0  0
  1  4  2  0  0  0  0
  2  5  2  0  0  0  0
  3  4  1  0  0  0  0
  3  6  2  0  0  0  0
  4  8  1  0  0  0  0
  5  6  1  0  0  0  0
  5 10  1  0  0  0  0
  6 12  1  0  0  0  0
  7  9  1  0  0  0  0
  8  9  1  0  0  0  0
  9 11  1  0  0  0  0
  1 13  1  0  0  0  0
  2 14  1  0  0  0  0
  3 15  1  0  0  0  0
  7 16  1  0  0  0  0
  7 17  1  0  0  0  0
  7 18  1  0  0  0  0
  8 19  1  0  0  0  0
  8 20  1  0  0  0  0
 10 21  1  0  0  0  0
 11 22  1  0  0  0  0
M  END
> <id>
EN300-1906300

> <smiles>
CN(O)CC=1C=CC(O)=C(Br)C1

> <IUPAC Name>
2-bromo-4-{[hydroxy(methyl)amino]methyl}phenol

> <CAS>
1519334-15-6

> <URL>
https://www.enaminestore.com/catalog/EN300-1906300

> <ROCS_ShapeQuery>
_x1604L0AP1_x0771L0AP1

> <ROCS_TanimotoCombo>
0.882 

> <ROCS_ShapeTanimoto>
0.470 

> <ROCS_ColorTanimoto>
0.412 

> <ROCS_RefTversky>
0.426 

> <ROCS_RefColorTversky>
0.429 

> <ROCS_RefTverskyCombo>
0.855 

> <ROCS_FitTversky>
1.278 

> <ROCS_FitColorTversky>
0.914 

> <ROCS_FitTverskyCombo>
2.192 

> <ROCS_ColorScore>
-4.877

> <ROCS_Overlap>
721.421

> <ROCS_Rank>
469                 

$$$$
untitled-dbase-163_21
  -OEChem-06042309053D

 28 29  0     1  0  0  0  0  0999 V2000
   -4.9856   11.1663  -31.7473 C   0  0  0  0  0  0  0  0  0  0  0  0
   -4.6025   12.5407  -29.7977 C   0  0  0  0  0  0  0  0  0  0  0  0
   -4.3021   12.2068  -31.1183 C   0  0  0  0  0  0  0  0  0  0  0  0
   -5.9696   10.4597  -31.0558 C   0  0  0  0  0  0  0  0  0  0  0  0
   -6.2700   10.7936  -29.7352 C   0  0  0  0  0  0  0  0  0  0  0  0
   -5.5865   11.8341  -29.1062 C   0  0  0  0  0  0  0  0  0  0  0  0
   -7.1240    8.4863  -34.1998 C   0  0  0  0  0  0  0  0  0  0  0  0
   -6.7830    9.9461  -34.3128 C   0  0  0  0  0  0  0  0  0  0  0  0
   -6.2119    9.1255  -33.1897 C   0  0  0  0  0  0  0  0  0  0  0  0
   -3.2514   12.9636  -31.8582 C   0  0  0  0  0  0  0  0  0  0  0  0
   -6.6900    9.3498  -31.7483 C   0  0  2  0  0  0  0  0  0  0  0  0
   -8.1296    9.5418  -31.7327 N   0  0  0  0  0  0  0  0  0  0  0  0
   -7.2366   10.0942  -29.0726 O   0  0  0  0  0  0  0  0  0  0  0  0
   -5.9662   12.3181  -27.3128 Br  0  0  0  0  0  0  0  0  0  0  0  0
   -4.7521   10.9075  -32.7774 H   0  0  0  0  0  0  0  0  0  0  0  0
   -4.0640   13.3530  -29.3145 H   0  0  0  0  0  0  0  0  0  0  0  0
   -8.1311    8.2264  -33.8983 H   0  0  0  0  0  0  0  0  0  0  0  0
   -6.6821    7.8084  -34.9197 H   0  0  0  0  0  0  0  0  0  0  0  0
   -6.1122   10.2470  -35.1082 H   0  0  0  0  0  0  0  0  0  0  0  0
   -7.5619   10.6639  -34.0871 H   0  0  0  0  0  0  0  0  0  0  0  0
   -5.1587    8.8755  -33.2346 H   0  0  0  0  0  0  0  0  0  0  0  0
   -3.6934   13.8233  -32.3766 H   0  0  0  0  0  0  0  0  0  0  0  0
   -2.4714   13.3305  -31.1785 H   0  0  0  0  0  0  0  0  0  0  0  0
   -2.7518   12.3284  -32.6013 H   0  0  0  0  0  0  0  0  0  0  0  0
   -6.5324    8.4000  -31.2087 H   0  0  0  0  0  0  0  0  0  0  0  0
   -8.5589    8.7709  -32.1926 H   0  0  0  0  0  0  0  0  0  0  0  0
   -8.4335    9.5915  -30.7865 H   0  0  0  0  0  0  0  0  0  0  0  0
   -7.3351   10.4355  -28.1708 H   0  0  0  0  0  0  0  0  0  0  0  0
  1  3  1  0  0  0  0
  1  4  2  0  0  0  0
  2  3  2  0  0  0  0
  2  6  1  0  0  0  0
  3 10  1  0  0  0  0
  4  5  1  0  0  0  0
  4 11  1  0  0  0  0
  5  6  2  0  0  0  0
  5 13  1  0  0  0  0
  6 14  1  0  0  0  0
  7  8  1  0  0  0  0
  7  9  1  0  0  0  0
  8  9  1  0  0  0  0
  9 11  1  0  0  0  0
 11 12  1  0  0  0  0
  1 15  1  0  0  0  0
  2 16  1  0  0  0  0
  7 17  1  0  0  0  0
  7 18  1  0  0  0  0
  8 19  1  0  0  0  0
  8 20  1  0  0  0  0
  9 21  1  0  0  0  0
 10 22  1  0  0  0  0
 10 23  1  0  0  0  0
 10 24  1  0  0  0  0
 11 25  1  0  0  0  0
 12 26  1  0  0  0  0
 12 27  1  0  0  0  0
 13 28  1  0  0  0  0
M  END
> <id>
EN300-1277235

> <smiles>
CC=1C=C(Br)C(O)=C(C1)C(N)C2CC2

> <IUPAC Name>
2-[amino(cyclopropyl)methyl]-6-bromo-4-methylphenol

> <CAS>
1337259-62-7

> <URL>
https://www.enaminestore.com/catalog/EN300-1277235

> <ROCS_ShapeQuery>
_x1604L0AP1_x0771L0AP1

> <ROCS_TanimotoCombo>
0.882 

> <ROCS_ShapeTanimoto>
0.601 

> <ROCS_ColorTanimoto>
0.281 

> <ROCS_RefTversky>
0.519 

> <ROCS_RefColorTversky>
0.340 

> <ROCS_RefTverskyCombo>
0.860 

> <ROCS_FitTversky>
1.355 

> <ROCS_FitColorTversky>
0.618 

> <ROCS_FitTverskyCombo>
1.973 

> <ROCS_ColorScore>
-3.886

> <ROCS_Overlap>
881.226

> <ROCS_Rank>
470                 

$$$$
untitled-dbase-1762_65
  -OEChem-06042309053D

 21 21  0     1  0  0  0  0  0999 V2000
   -4.5759   12.4590  -29.8263 C   0  0  0  0  0  0  0  0  0  0  0  0
   -5.5606   11.7675  -29.1207 C   0  0  0  0  0  0  0  0  0  0  0  0
   -5.0511   11.1330  -31.7892 C   0  0  0  0  0  0  0  0  0  0  0  0
   -4.3212   12.1418  -31.1605 C   0  0  0  0  0  0  0  0  0  0  0  0
   -6.2905   10.7587  -29.7493 C   0  0  0  0  0  0  0  0  0  0  0  0
   -6.0358   10.4414  -31.0836 C   0  0  0  0  0  0  0  0  0  0  0  0
   -3.5703   14.3861  -32.0257 C   0  0  0  0  0  0  0  0  0  0  0  0
   -3.2681   12.8817  -31.9138 C   0  0  1  0  0  0  0  0  0  0  0  0
   -1.9292   12.7104  -31.3211 N   0  0  0  0  0  0  0  0  0  0  0  0
   -7.2447   10.1008  -29.0317 O   0  0  0  0  0  0  0  0  0  0  0  0
   -4.0675   14.8173  -30.8333 F   0  0  0  0  0  0  0  0  0  0  0  0
   -7.0070    9.0757  -31.9690 Br  0  0  0  0  0  0  0  0  0  0  0  0
   -4.0126   13.2433  -29.3274 H   0  0  0  0  0  0  0  0  0  0  0  0
   -5.7535   12.0202  -28.0814 H   0  0  0  0  0  0  0  0  0  0  0  0
   -4.8460   10.8928  -32.8302 H   0  0  0  0  0  0  0  0  0  0  0  0
   -2.6786   14.9794  -32.2521 H   0  0  0  0  0  0  0  0  0  0  0  0
   -4.3280   14.6004  -32.7868 H   0  0  0  0  0  0  0  0  0  0  0  0
   -3.2060   12.4986  -32.9491 H   0  0  0  0  0  0  0  0  0  0  0  0
   -1.6035   13.6061  -31.0597 H   0  0  0  0  0  0  0  0  0  0  0  0
   -2.0264   12.1184  -30.5357 H   0  0  0  0  0  0  0  0  0  0  0  0
   -7.6742    9.4290  -29.5837 H   0  0  0  0  0  0  0  0  0  0  0  0
  1  2  1  0  0  0  0
  1  4  2  0  0  0  0
  2  5  2  0  0  0  0
  3  4  1  0  0  0  0
  3  6  2  0  0  0  0
  4  8  1  0  0  0  0
  5  6  1  0  0  0  0
  5 10  1  0  0  0  0
  6 12  1  0  0  0  0
  7  8  1  0  0  0  0
  7 11  1  0  0  0  0
  8  9  1  0  0  0  0
  1 13  1  0  0  0  0
  2 14  1  0  0  0  0
  3 15  1  0  0  0  0
  7 16  1  0  0  0  0
  7 17  1  0  0  0  0
  8 18  1  0  0  0  0
  9 19  1  0  0  0  0
  9 20  1  0  0  0  0
 10 21  1  0  0  0  0
M  END
> <id>
EN300-1274407

> <smiles>
NC(CF)C=1C=CC(O)=C(Br)C1

> <MDLNUMBER>
MFCD26138935

> <IUPAC Name>
4-(1-amino-2-fluoroethyl)-2-bromophenol

> <CAS>
1822788-00-0

> <URL>
https://www.enaminestore.com/catalog/EN300-1274407

> <ROCS_ShapeQuery>
_x1604L0AP1_x0771L0AP1

> <ROCS_TanimotoCombo>
0.882 

> <ROCS_ShapeTanimoto>
0.501 

> <ROCS_ColorTanimoto>
0.380 

> <ROCS_RefTversky>
0.445 

> <ROCS_RefColorTversky>
0.427 

> <ROCS_RefTverskyCombo>
0.872 

> <ROCS_FitTversky>
1.339 

> <ROCS_FitColorTversky>
0.776 

> <ROCS_FitTverskyCombo>
2.115 

> <ROCS_ColorScore>
-4.878

> <ROCS_Overlap>
753.231

> <ROCS_Rank>
471                 

$$$$
untitled-dbase-1195_274
  -OEChem-06042309053D

 32 33  0     0  0  0  0  0  0999 V2000
   -4.3503   12.1623  -31.1904 C   0  0  0  0  0  0  0  0  0  0  0  0
   -4.6017   12.4896  -29.8580 C   0  0  0  0  0  0  0  0  0  0  0  0
   -5.0703   11.1375  -31.8046 C   0  0  0  0  0  0  0  0  0  0  0  0
   -5.5729   11.7921  -29.1398 C   0  0  0  0  0  0  0  0  0  0  0  0
   -6.2929   10.7673  -29.7539 C   0  0  0  0  0  0  0  0  0  0  0  0
   -6.0415   10.4400  -31.0864 C   0  0  0  0  0  0  0  0  0  0  0  0
   -5.8029   10.6422  -35.6082 C   0  0  0  0  0  0  0  0  0  0  0  0
   -6.5277    9.6596  -34.7334 C   0  0  0  0  0  0  0  0  0  0  0  0
   -5.9722   10.9308  -34.1349 C   0  0  0  0  0  0  0  0  0  0  0  0
   -5.0263   13.1832  -27.2899 C   0  0  0  0  0  0  0  0  0  0  0  0
   -4.7600   10.8233  -33.2513 C   0  0  0  0  0  0  0  0  0  0  0  0
   -6.9453   12.0052  -33.7340 C   0  0  0  0  0  0  0  0  0  0  0  0
   -6.3559   13.3019  -33.8827 N   0  0  0  0  0  0  0  0  0  0  0  0
   -7.2381   10.0998  -29.0304 O   0  0  0  0  0  0  0  0  0  0  0  0
   -5.8070   12.1236  -27.8391 O   0  0  0  0  0  0  0  0  0  0  0  0
   -7.0349    9.0464  -31.9193 Br  0  0  0  0  0  0  0  0  0  0  0  0
   -3.5916   12.7126  -31.7407 H   0  0  0  0  0  0  0  0  0  0  0  0
   -4.0381   13.2898  -29.3860 H   0  0  0  0  0  0  0  0  0  0  0  0
   -4.8216   10.3623  -35.9729 H   0  0  0  0  0  0  0  0  0  0  0  0
   -6.3900   11.2108  -36.3196 H   0  0  0  0  0  0  0  0  0  0  0  0
   -7.6003    9.5703  -34.8590 H   0  0  0  0  0  0  0  0  0  0  0  0
   -6.0319    8.7218  -34.5123 H   0  0  0  0  0  0  0  0  0  0  0  0
   -5.3125   13.3455  -26.2479 H   0  0  0  0  0  0  0  0  0  0  0  0
   -5.1888   14.0952  -27.8699 H   0  0  0  0  0  0  0  0  0  0  0  0
   -3.9701   12.9076  -27.3365 H   0  0  0  0  0  0  0  0  0  0  0  0
   -3.9642   11.5016  -33.6013 H   0  0  0  0  0  0  0  0  0  0  0  0
   -4.3251    9.8118  -33.3116 H   0  0  0  0  0  0  0  0  0  0  0  0
   -7.8303   11.9273  -34.3755 H   0  0  0  0  0  0  0  0  0  0  0  0
   -7.2245   11.8457  -32.6864 H   0  0  0  0  0  0  0  0  0  0  0  0
   -6.0860   13.4440  -34.8368 H   0  0  0  0  0  0  0  0  0  0  0  0
   -7.0174   14.0065  -33.6192 H   0  0  0  0  0  0  0  0  0  0  0  0
   -7.2799   10.4553  -28.1297 H   0  0  0  0  0  0  0  0  0  0  0  0
  1  2  1  0  0  0  0
  1  3  2  0  0  0  0
  2  4  2  0  0  0  0
  3  6  1  0  0  0  0
  3 11  1  0  0  0  0
  4  5  1  0  0  0  0
  4 15  1  0  0  0  0
  5  6  2  0  0  0  0
  5 14  1  0  0  0  0
  6 16  1  0  0  0  0
  7  8  1  0  0  0  0
  7  9  1  0  0  0  0
  8  9  1  0  0  0  0
  9 11  1  0  0  0  0
  9 12  1  0  0  0  0
 10 15  1  0  0  0  0
 12 13  1  0  0  0  0
  1 17  1  0  0  0  0
  2 18  1  0  0  0  0
  7 19  1  0  0  0  0
  7 20  1  0  0  0  0
  8 21  1  0  0  0  0
  8 22  1  0  0  0  0
 10 23  1  0  0  0  0
 10 24  1  0  0  0  0
 10 25  1  0  0  0  0
 11 26  1  0  0  0  0
 11 27  1  0  0  0  0
 12 28  1  0  0  0  0
 12 29  1  0  0  0  0
 13 30  1  0  0  0  0
 13 31  1  0  0  0  0
 14 32  1  0  0  0  0
M  END
> <id>
EN300-1935618

> <smiles>
COC=1C=CC(CC2(CN)CC2)=C(Br)C1O

> <IUPAC Name>
3-{[1-(aminomethyl)cyclopropyl]methyl}-2-bromo-6-methoxyphenol

> <CAS>
2228221-12-1

> <URL>
https://www.enaminestore.com/catalog/EN300-1935618

> <ROCS_ShapeQuery>
_x1604L0AP1_x0771L0AP1

> <ROCS_TanimotoCombo>
0.882 

> <ROCS_ShapeTanimoto>
0.527 

> <ROCS_ColorTanimoto>
0.355 

> <ROCS_RefTversky>
0.494 

> <ROCS_RefColorTversky>
0.427 

> <ROCS_RefTverskyCombo>
0.922 

> <ROCS_FitTversky>
1.141 

> <ROCS_FitColorTversky>
0.677 

> <ROCS_FitTverskyCombo>
1.819 

> <ROCS_ColorScore>
-4.901

> <ROCS_Overlap>
841.463

> <ROCS_Rank>
472                 

$$$$
untitled-dbase-1576_35
  -OEChem-06042309053D

 25 25  0     1  0  0  0  0  0999 V2000
   -5.1380   11.3031  -31.8562 C   0  0  0  0  0  0  0  0  0  0  0  0
   -4.4300   12.3261  -29.7851 C   0  0  0  0  0  0  0  0  0  0  0  0
   -6.1239   10.5948  -31.1693 C   0  0  0  0  0  0  0  0  0  0  0  0
   -6.2630   10.7522  -29.7903 C   0  0  0  0  0  0  0  0  0  0  0  0
   -4.2910   12.1687  -31.1641 C   0  0  0  0  0  0  0  0  0  0  0  0
   -5.4160   11.6178  -29.0982 C   0  0  0  0  0  0  0  0  0  0  0  0
   -6.2794    8.5832  -32.7374 C   0  0  0  0  0  0  0  0  0  0  0  0
   -7.1720    7.6748  -33.5808 C   0  0  0  0  0  0  0  0  0  0  0  0
   -7.0306    9.6625  -31.9385 C   0  0  2  0  0  0  0  0  0  0  0  0
   -6.3831    6.6930  -34.2847 N   0  0  0  0  0  0  0  0  0  0  0  0
   -7.2323   10.0520  -29.1325 O   0  0  0  0  0  0  0  0  0  0  0  0
   -7.8091   10.4502  -32.8426 O   0  0  0  0  0  0  0  0  0  0  0  0
   -3.0744   13.0424  -32.0122 Cl  0  0  0  0  0  0  0  0  0  0  0  0
   -5.5737   11.8582  -27.2242 Br  0  0  0  0  0  0  0  0  0  0  0  0
   -5.0332   11.1779  -32.9319 H   0  0  0  0  0  0  0  0  0  0  0  0
   -3.7672   13.0018  -29.2491 H   0  0  0  0  0  0  0  0  0  0  0  0
   -5.6835    7.9630  -32.0552 H   0  0  0  0  0  0  0  0  0  0  0  0
   -5.5467    9.0778  -33.3896 H   0  0  0  0  0  0  0  0  0  0  0  0
   -7.8774    7.1529  -32.9254 H   0  0  0  0  0  0  0  0  0  0  0  0
   -7.7658    8.2525  -34.2959 H   0  0  0  0  0  0  0  0  0  0  0  0
   -7.7435    9.1880  -31.2540 H   0  0  0  0  0  0  0  0  0  0  0  0
   -5.8863    6.1353  -33.6226 H   0  0  0  0  0  0  0  0  0  0  0  0
   -6.9886    6.1138  -34.8271 H   0  0  0  0  0  0  0  0  0  0  0  0
   -7.2097   10.2613  -28.1864 H   0  0  0  0  0  0  0  0  0  0  0  0
   -7.1782   10.8980  -33.4253 H   0  0  0  0  0  0  0  0  0  0  0  0
  1  3  2  0  0  0  0
  1  5  1  0  0  0  0
  2  5  2  0  0  0  0
  2  6  1  0  0  0  0
  3  4  1  0  0  0  0
  3  9  1  0  0  0  0
  4  6  2  0  0  0  0
  4 11  1  0  0  0  0
  5 13  1  0  0  0  0
  6 14  1  0  0  0  0
  7  8  1  0  0  0  0
  7  9  1  0  0  0  0
  8 10  1  0  0  0  0
  9 12  1  6  0  0  0
  1 15  1  0  0  0  0
  2 16  1  0  0  0  0
  7 17  1  0  0  0  0
  7 18  1  0  0  0  0
  8 19  1  0  0  0  0
  8 20  1  0  0  0  0
  9 21  1  0  0  0  0
 10 22  1  0  0  0  0
 10 23  1  0  0  0  0
 11 24  1  0  0  0  0
 12 25  1  0  0  0  0
M  END
> <id>
EN300-1922898

> <smiles>
NCC[C@H](O)C=1C=C(Cl)C=C(Br)C1O

> <IUPAC Name>
2-[(1S)-3-amino-1-hydroxypropyl]-6-bromo-4-chlorophenol

> <CAS>
2227664-44-8

> <URL>
https://www.enaminestore.com/catalog/EN300-1922898

> <ROCS_ShapeQuery>
_x1604L0AP1_x0771L0AP1

> <ROCS_TanimotoCombo>
0.882 

> <ROCS_ShapeTanimoto>
0.562 

> <ROCS_ColorTanimoto>
0.320 

> <ROCS_RefTversky>
0.494 

> <ROCS_RefColorTversky>
0.415 

> <ROCS_RefTverskyCombo>
0.909 

> <ROCS_FitTversky>
1.323 

> <ROCS_FitColorTversky>
0.584 

> <ROCS_FitTverskyCombo>
1.907 

> <ROCS_ColorScore>
-4.777

> <ROCS_Overlap>
837.606

> <ROCS_Rank>
473                 

$$$$
untitled-dbase-2069_35
  -OEChem-06042309053D

 25 25  0     1  0  0  0  0  0999 V2000
   -5.1380   11.3031  -31.8562 C   0  0  0  0  0  0  0  0  0  0  0  0
   -4.4300   12.3261  -29.7851 C   0  0  0  0  0  0  0  0  0  0  0  0
   -6.1239   10.5948  -31.1693 C   0  0  0  0  0  0  0  0  0  0  0  0
   -6.2630   10.7522  -29.7903 C   0  0  0  0  0  0  0  0  0  0  0  0
   -4.2910   12.1687  -31.1641 C   0  0  0  0  0  0  0  0  0  0  0  0
   -5.4160   11.6178  -29.0982 C   0  0  0  0  0  0  0  0  0  0  0  0
   -6.2794    8.5832  -32.7374 C   0  0  0  0  0  0  0  0  0  0  0  0
   -7.1720    7.6748  -33.5808 C   0  0  0  0  0  0  0  0  0  0  0  0
   -7.0306    9.6625  -31.9385 C   0  0  2  0  0  0  0  0  0  0  0  0
   -6.3831    6.6930  -34.2847 N   0  0  0  0  0  0  0  0  0  0  0  0
   -7.2323   10.0520  -29.1325 O   0  0  0  0  0  0  0  0  0  0  0  0
   -7.8091   10.4502  -32.8426 O   0  0  0  0  0  0  0  0  0  0  0  0
   -3.0744   13.0424  -32.0122 Cl  0  0  0  0  0  0  0  0  0  0  0  0
   -5.5737   11.8582  -27.2242 Br  0  0  0  0  0  0  0  0  0  0  0  0
   -5.0332   11.1779  -32.9319 H   0  0  0  0  0  0  0  0  0  0  0  0
   -3.7672   13.0018  -29.2491 H   0  0  0  0  0  0  0  0  0  0  0  0
   -5.6835    7.9630  -32.0552 H   0  0  0  0  0  0  0  0  0  0  0  0
   -5.5467    9.0778  -33.3896 H   0  0  0  0  0  0  0  0  0  0  0  0
   -7.8774    7.1529  -32.9254 H   0  0  0  0  0  0  0  0  0  0  0  0
   -7.7658    8.2525  -34.2959 H   0  0  0  0  0  0  0  0  0  0  0  0
   -7.7435    9.1880  -31.2540 H   0  0  0  0  0  0  0  0  0  0  0  0
   -5.8863    6.1353  -33.6226 H   0  0  0  0  0  0  0  0  0  0  0  0
   -6.9886    6.1138  -34.8271 H   0  0  0  0  0  0  0  0  0  0  0  0
   -7.2097   10.2613  -28.1864 H   0  0  0  0  0  0  0  0  0  0  0  0
   -7.1782   10.8980  -33.4253 H   0  0  0  0  0  0  0  0  0  0  0  0
  1  3  2  0  0  0  0
  1  5  1  0  0  0  0
  2  5  2  0  0  0  0
  2  6  1  0  0  0  0
  3  4  1  0  0  0  0
  3  9  1  0  0  0  0
  4  6  2  0  0  0  0
  4 11  1  0  0  0  0
  5 13  1  0  0  0  0
  6 14  1  0  0  0  0
  7  8  1  0  0  0  0
  7  9  1  0  0  0  0
  8 10  1  0  0  0  0
  9 12  1  0  0  0  0
  1 15  1  0  0  0  0
  2 16  1  0  0  0  0
  7 17  1  0  0  0  0
  7 18  1  0  0  0  0
  8 19  1  0  0  0  0
  8 20  1  0  0  0  0
  9 21  1  0  0  0  0
 10 22  1  0  0  0  0
 10 23  1  0  0  0  0
 11 24  1  0  0  0  0
 12 25  1  0  0  0  0
M  END
> <id>
EN300-1922544

> <smiles>
NCCC(O)C=1C=C(Cl)C=C(Br)C1O

> <IUPAC Name>
2-(3-amino-1-hydroxypropyl)-6-bromo-4-chlorophenol

> <CAS>
2229287-16-3

> <URL>
https://www.enaminestore.com/catalog/EN300-1922544

> <ROCS_ShapeQuery>
_x1604L0AP1_x0771L0AP1

> <ROCS_TanimotoCombo>
0.882 

> <ROCS_ShapeTanimoto>
0.562 

> <ROCS_ColorTanimoto>
0.320 

> <ROCS_RefTversky>
0.494 

> <ROCS_RefColorTversky>
0.415 

> <ROCS_RefTverskyCombo>
0.909 

> <ROCS_FitTversky>
1.323 

> <ROCS_FitColorTversky>
0.584 

> <ROCS_FitTverskyCombo>
1.907 

> <ROCS_ColorScore>
-4.777

> <ROCS_Overlap>
837.606

> <ROCS_Rank>
474                 

$$$$
untitled-dbase-643_1111
  -OEChem-06042309053D

 32 33  0     0  0  0  0  0  0999 V2000
   -5.0726   11.2897  -31.7563 C   0  0  0  0  0  0  0  0  0  0  0  0
   -4.4524   12.3806  -29.6918 C   0  0  0  0  0  0  0  0  0  0  0  0
   -4.2615   12.1855  -31.0597 C   0  0  0  0  0  0  0  0  0  0  0  0
   -6.0747   10.5891  -31.0850 C   0  0  0  0  0  0  0  0  0  0  0  0
   -6.2656   10.7842  -29.7171 C   0  0  0  0  0  0  0  0  0  0  0  0
   -5.4544   11.6799  -29.0205 C   0  0  0  0  0  0  0  0  0  0  0  0
   -4.0889   15.0927  -30.6886 C   0  0  0  0  0  0  0  0  0  0  0  0
   -3.3578   15.5154  -31.9294 C   0  0  0  0  0  0  0  0  0  0  0  0
   -2.9016   14.2890  -31.1706 C   0  0  0  0  0  0  0  0  0  0  0  0
   -6.5559    8.8710  -33.9982 C   0  0  0  0  0  0  0  0  0  0  0  0
   -3.1745   12.9443  -31.7878 C   0  0  0  0  0  0  0  0  0  0  0  0
   -7.0909   10.0091  -33.1555 C   0  0  0  0  0  0  0  0  0  0  0  0
   -1.6406   14.3628  -30.4024 N   0  0  0  0  0  0  0  0  0  0  0  0
   -7.2503   10.0888  -29.0780 O   0  0  0  0  0  0  0  0  0  0  0  0
   -6.8585    9.7172  -31.7790 O   0  0  0  0  0  0  0  0  0  0  0  0
   -5.6836   11.9715  -27.1613 Br  0  0  0  0  0  0  0  0  0  0  0  0
   -4.9256   11.1357  -32.8227 H   0  0  0  0  0  0  0  0  0  0  0  0
   -3.8144   13.0811  -29.1572 H   0  0  0  0  0  0  0  0  0  0  0  0
   -3.9756   15.7093  -29.8044 H   0  0  0  0  0  0  0  0  0  0  0  0
   -5.0818   14.6751  -30.8074 H   0  0  0  0  0  0  0  0  0  0  0  0
   -3.8604   15.3810  -32.8800 H   0  0  0  0  0  0  0  0  0  0  0  0
   -2.7549   16.4145  -31.8753 H   0  0  0  0  0  0  0  0  0  0  0  0
   -5.4806    8.7442  -33.8451 H   0  0  0  0  0  0  0  0  0  0  0  0
   -7.0620    7.9332  -33.7463 H   0  0  0  0  0  0  0  0  0  0  0  0
   -6.7419    9.0574  -35.0611 H   0  0  0  0  0  0  0  0  0  0  0  0
   -2.2581   12.3316  -31.8008 H   0  0  0  0  0  0  0  0  0  0  0  0
   -3.4636   13.0558  -32.8458 H   0  0  0  0  0  0  0  0  0  0  0  0
   -8.1668   10.1306  -33.3132 H   0  0  0  0  0  0  0  0  0  0  0  0
   -6.5837   10.9451  -33.4078 H   0  0  0  0  0  0  0  0  0  0  0  0
   -1.4298   13.4481  -30.0974 H   0  0  0  0  0  0  0  0  0  0  0  0
   -0.9472   14.7117  -31.0121 H   0  0  0  0  0  0  0  0  0  0  0  0
   -7.7142    9.5147  -29.7064 H   0  0  0  0  0  0  0  0  0  0  0  0
  1  3  1  0  0  0  0
  1  4  2  0  0  0  0
  2  3  2  0  0  0  0
  2  6  1  0  0  0  0
  3 11  1  0  0  0  0
  4  5  1  0  0  0  0
  4 15  1  0  0  0  0
  5  6  2  0  0  0  0
  5 14  1  0  0  0  0
  6 16  1  0  0  0  0
  7  8  1  0  0  0  0
  7  9  1  0  0  0  0
  8  9  1  0  0  0  0
  9 11  1  0  0  0  0
  9 13  1  0  0  0  0
 10 12  1  0  0  0  0
 12 15  1  0  0  0  0
  1 17  1  0  0  0  0
  2 18  1  0  0  0  0
  7 19  1  0  0  0  0
  7 20  1  0  0  0  0
  8 21  1  0  0  0  0
  8 22  1  0  0  0  0
 10 23  1  0  0  0  0
 10 24  1  0  0  0  0
 10 25  1  0  0  0  0
 11 26  1  0  0  0  0
 11 27  1  0  0  0  0
 12 28  1  0  0  0  0
 12 29  1  0  0  0  0
 13 30  1  0  0  0  0
 13 31  1  0  0  0  0
 14 32  1  0  0  0  0
M  END
> <id>
EN300-1920222

> <smiles>
CCOC=1C=C(CC2(N)CC2)C=C(Br)C1O

> <IUPAC Name>
4-[(1-aminocyclopropyl)methyl]-2-bromo-6-ethoxyphenol

> <CAS>
2229393-16-0

> <URL>
https://www.enaminestore.com/catalog/EN300-1920222

> <ROCS_ShapeQuery>
_x1604L0AP1_x0771L0AP1

> <ROCS_TanimotoCombo>
0.882 

> <ROCS_ShapeTanimoto>
0.620 

> <ROCS_ColorTanimoto>
0.262 

> <ROCS_RefTversky>
0.547 

> <ROCS_RefColorTversky>
0.339 

> <ROCS_RefTverskyCombo>
0.886 

> <ROCS_FitTversky>
1.271 

> <ROCS_FitColorTversky>
0.536 

> <ROCS_FitTverskyCombo>
1.807 

> <ROCS_ColorScore>
-3.882

> <ROCS_Overlap>
931.406

> <ROCS_Rank>
475                 

$$$$
untitled-dbase-1076_24
  -OEChem-06042309053D

 24 25  0     0  0  0  0  0  0999 V2000
   -4.9912   11.1593  -31.7517 C   0  0  0  0  0  0  0  0  0  0  0  0
   -4.5837   12.5193  -29.7968 C   0  0  0  0  0  0  0  0  0  0  0  0
   -5.9793   10.4598  -31.0591 C   0  0  0  0  0  0  0  0  0  0  0  0
   -6.2697   10.7900  -29.7353 C   0  0  0  0  0  0  0  0  0  0  0  0
   -4.2933   12.1891  -31.1205 C   0  0  0  0  0  0  0  0  0  0  0  0
   -5.5719   11.8197  -29.1042 C   0  0  0  0  0  0  0  0  0  0  0  0
   -5.7931    9.3461  -34.1865 C   0  0  0  0  0  0  0  0  0  0  0  0
   -7.0047    8.4558  -34.1901 C   0  0  0  0  0  0  0  0  0  0  0  0
   -6.9179    9.6032  -33.2205 C   0  0  0  0  0  0  0  0  0  0  0  0
   -6.7263    9.3431  -31.7649 C   0  0  0  0  0  0  0  0  0  0  0  0
   -7.2392   10.0961  -29.0710 O   0  0  0  0  0  0  0  0  0  0  0  0
   -7.7467   10.7416  -33.5082 O   0  0  0  0  0  0  0  0  0  0  0  0
   -3.0738   13.0518  -31.9756 Cl  0  0  0  0  0  0  0  0  0  0  0  0
   -5.9378   12.2977  -27.3062 Br  0  0  0  0  0  0  0  0  0  0  0  0
   -4.7680   10.8990  -32.7842 H   0  0  0  0  0  0  0  0  0  0  0  0
   -4.0368   13.3226  -29.3081 H   0  0  0  0  0  0  0  0  0  0  0  0
   -4.8672    8.9323  -33.8054 H   0  0  0  0  0  0  0  0  0  0  0  0
   -5.6668   10.0274  -35.0192 H   0  0  0  0  0  0  0  0  0  0  0  0
   -7.6893    8.5406  -35.0255 H   0  0  0  0  0  0  0  0  0  0  0  0
   -6.8879    7.4477  -33.8110 H   0  0  0  0  0  0  0  0  0  0  0  0
   -6.1770    8.3967  -31.5963 H   0  0  0  0  0  0  0  0  0  0  0  0
   -7.6974    9.1969  -31.2532 H   0  0  0  0  0  0  0  0  0  0  0  0
   -7.3299   10.4339  -28.1671 H   0  0  0  0  0  0  0  0  0  0  0  0
   -7.1571   11.5073  -33.4963 H   0  0  0  0  0  0  0  0  0  0  0  0
  1  3  2  0  0  0  0
  1  5  1  0  0  0  0
  2  5  2  0  0  0  0
  2  6  1  0  0  0  0
  3  4  1  0  0  0  0
  3 10  1  0  0  0  0
  4  6  2  0  0  0  0
  4 11  1  0  0  0  0
  5 13  1  0  0  0  0
  6 14  1  0  0  0  0
  7  8  1  0  0  0  0
  7  9  1  0  0  0  0
  8  9  1  0  0  0  0
  9 10  1  0  0  0  0
  9 12  1  0  0  0  0
  1 15  1  0  0  0  0
  2 16  1  0  0  0  0
  7 17  1  0  0  0  0
  7 18  1  0  0  0  0
  8 19  1  0  0  0  0
  8 20  1  0  0  0  0
 10 21  1  0  0  0  0
 10 22  1  0  0  0  0
 11 23  1  0  0  0  0
 12 24  1  0  0  0  0
M  END
> <id>
EN300-1922903

> <smiles>
OC=1C(Br)=CC(Cl)=CC1CC2(O)CC2

> <IUPAC Name>
2-bromo-4-chloro-6-[(1-hydroxycyclopropyl)methyl]phenol

> <CAS>
2229223-97-4

> <URL>
https://www.enaminestore.com/catalog/EN300-1922903

> <ROCS_ShapeQuery>
_x1604L0AP1_x0771L0AP1

> <ROCS_TanimotoCombo>
0.882 

> <ROCS_ShapeTanimoto>
0.600 

> <ROCS_ColorTanimoto>
0.281 

> <ROCS_RefTversky>
0.518 

> <ROCS_RefColorTversky>
0.340 

> <ROCS_RefTverskyCombo>
0.859 

> <ROCS_FitTversky>
1.358 

> <ROCS_FitColorTversky>
0.618 

> <ROCS_FitTverskyCombo>
1.976 

> <ROCS_ColorScore>
-3.886

> <ROCS_Overlap>
879.480

> <ROCS_Rank>
476                 

$$$$
untitled-dbase-188_21
  -OEChem-06042309053D

 25 26  0     1  0  0  0  0  0999 V2000
   -4.9905   11.1702  -31.7525 C   0  0  0  0  0  0  0  0  0  0  0  0
   -4.6006   12.5385  -29.7999 C   0  0  0  0  0  0  0  0  0  0  0  0
   -5.9739   10.4632  -31.0607 C   0  0  0  0  0  0  0  0  0  0  0  0
   -6.2706   10.7938  -29.7384 C   0  0  0  0  0  0  0  0  0  0  0  0
   -4.3038   12.2079  -31.1221 C   0  0  0  0  0  0  0  0  0  0  0  0
   -5.5840   11.8315  -29.1080 C   0  0  0  0  0  0  0  0  0  0  0  0
   -7.1369    8.4988  -34.2071 C   0  0  0  0  0  0  0  0  0  0  0  0
   -6.7945    9.9584  -34.3172 C   0  0  0  0  0  0  0  0  0  0  0  0
   -6.2220    9.1345  -33.1973 C   0  0  0  0  0  0  0  0  0  0  0  0
   -6.6969    9.3559  -31.7544 C   0  0  2  0  0  0  0  0  0  0  0  0
   -8.1363    9.5494  -31.7353 N   0  0  0  0  0  0  0  0  0  0  0  0
   -7.2354   10.0929  -29.0747 O   0  0  0  0  0  0  0  0  0  0  0  0
   -3.3594   12.8869  -31.7865 F   0  0  0  0  0  0  0  0  0  0  0  0
   -5.9579   12.3113  -27.3125 Br  0  0  0  0  0  0  0  0  0  0  0  0
   -4.7518   10.9206  -32.7828 H   0  0  0  0  0  0  0  0  0  0  0  0
   -4.0550   13.3501  -29.3254 H   0  0  0  0  0  0  0  0  0  0  0  0
   -8.1437    8.2393  -33.9041 H   0  0  0  0  0  0  0  0  0  0  0  0
   -6.6973    7.8221  -34.9295 H   0  0  0  0  0  0  0  0  0  0  0  0
   -6.1250   10.2605  -35.1133 H   0  0  0  0  0  0  0  0  0  0  0  0
   -7.5721   10.6766  -34.0882 H   0  0  0  0  0  0  0  0  0  0  0  0
   -5.1692    8.8834  -33.2450 H   0  0  0  0  0  0  0  0  0  0  0  0
   -6.5393    8.4046  -31.2174 H   0  0  0  0  0  0  0  0  0  0  0  0
   -8.5673    8.7802  -32.1964 H   0  0  0  0  0  0  0  0  0  0  0  0
   -8.4382    9.5971  -30.7884 H   0  0  0  0  0  0  0  0  0  0  0  0
   -7.3313   10.4321  -28.1719 H   0  0  0  0  0  0  0  0  0  0  0  0
  1  3  2  0  0  0  0
  1  5  1  0  0  0  0
  2  5  2  0  0  0  0
  2  6  1  0  0  0  0
  3  4  1  0  0  0  0
  3 10  1  0  0  0  0
  4  6  2  0  0  0  0
  4 12  1  0  0  0  0
  5 13  1  0  0  0  0
  6 14  1  0  0  0  0
  7  8  1  0  0  0  0
  7  9  1  0  0  0  0
  8  9  1  0  0  0  0
  9 10  1  0  0  0  0
 10 11  1  0  0  0  0
  1 15  1  0  0  0  0
  2 16  1  0  0  0  0
  7 17  1  0  0  0  0
  7 18  1  0  0  0  0
  8 19  1  0  0  0  0
  8 20  1  0  0  0  0
  9 21  1  0  0  0  0
 10 22  1  0  0  0  0
 11 23  1  0  0  0  0
 11 24  1  0  0  0  0
 12 25  1  0  0  0  0
M  END
> <id>
EN300-1277048

> <smiles>
NC(C1CC1)C=2C=C(F)C=C(Br)C2O

> <MDLNUMBER>
MFCD24522211

> <IUPAC Name>
2-[amino(cyclopropyl)methyl]-6-bromo-4-fluorophenol

> <CAS>
1337374-50-1

> <URL>
https://www.enaminestore.com/catalog/EN300-1277048

> <ROCS_ShapeQuery>
_x1604L0AP1_x0771L0AP1

> <ROCS_TanimotoCombo>
0.881 

> <ROCS_ShapeTanimoto>
0.600 

> <ROCS_ColorTanimoto>
0.281 

> <ROCS_RefTversky>
0.520 

> <ROCS_RefColorTversky>
0.340 

> <ROCS_RefTverskyCombo>
0.860 

> <ROCS_FitTversky>
1.347 

> <ROCS_FitColorTversky>
0.618 

> <ROCS_FitTverskyCombo>
1.965 

> <ROCS_ColorScore>
-3.886

> <ROCS_Overlap>
882.461

> <ROCS_Rank>
477                 

$$$$
untitled-dbase-2044_2251
  -OEChem-06042309053D

 37 38  0     0  0  0  0  0  0999 V2000
   -1.9661   14.0448  -30.2155 C   0  0  0  0  0  0  0  0  0  0  0  0
   -2.9048   14.3777  -29.2389 C   0  0  0  0  0  0  0  0  0  0  0  0
   -2.2905   13.1202  -31.2083 C   0  0  0  0  0  0  0  0  0  0  0  0
   -7.2421   10.5604  -35.3729 C   0  0  0  0  0  0  0  0  0  0  0  0
   -4.1678   13.7859  -29.2551 C   0  0  0  0  0  0  0  0  0  0  0  0
   -3.5535   12.5284  -31.2244 C   0  0  0  0  0  0  0  0  0  0  0  0
   -6.7837   10.2507  -34.0925 C   0  0  0  0  0  0  0  0  0  0  0  0
   -7.4153    9.5472  -36.3159 C   0  0  0  0  0  0  0  0  0  0  0  0
   -4.4922   12.8613  -30.2478 C   0  0  0  0  0  0  0  0  0  0  0  0
   -6.4985    8.9276  -33.7550 C   0  0  0  0  0  0  0  0  0  0  0  0
   -6.6717    7.9144  -34.6979 C   0  0  0  0  0  0  0  0  0  0  0  0
   -7.1301    8.2242  -35.9783 C   0  0  0  0  0  0  0  0  0  0  0  0
   -6.6448    9.9846  -30.3833 C   0  0  0  0  0  0  0  0  0  0  0  0
   -8.2616    8.3660  -31.3912 C   0  0  0  0  0  0  0  0  0  0  0  0
   -6.0051    8.6166  -32.3715 C   0  0  0  0  0  0  0  0  0  0  0  0
   -5.8506   12.2241  -30.2657 C   0  0  0  0  0  0  0  0  0  0  0  0
   -6.9587    9.0225  -31.3489 N   0  0  0  0  0  0  0  0  0  0  0  0
   -7.1179   10.0075  -29.2483 O   0  0  0  0  0  0  0  0  0  0  0  0
   -6.3868    6.6250  -34.3531 O   0  0  0  0  0  0  0  0  0  0  0  0
   -5.7450   10.9139  -30.8348 O   0  0  0  0  0  0  0  0  0  0  0  0
   -7.3794    6.8759  -37.2875 Br  0  0  0  0  0  0  0  0  0  0  0  0
   -0.9832   14.5067  -30.2035 H   0  0  0  0  0  0  0  0  0  0  0  0
   -2.6528   15.0984  -28.4664 H   0  0  0  0  0  0  0  0  0  0  0  0
   -1.5603   12.8616  -31.9694 H   0  0  0  0  0  0  0  0  0  0  0  0
   -7.4646   11.5905  -35.6357 H   0  0  0  0  0  0  0  0  0  0  0  0
   -4.8928   14.0512  -28.4900 H   0  0  0  0  0  0  0  0  0  0  0  0
   -3.7973   11.8090  -32.0017 H   0  0  0  0  0  0  0  0  0  0  0  0
   -6.6539   11.0459  -33.3633 H   0  0  0  0  0  0  0  0  0  0  0  0
   -7.7739    9.8079  -37.3085 H   0  0  0  0  0  0  0  0  0  0  0  0
   -8.9446    8.9462  -32.0290 H   0  0  0  0  0  0  0  0  0  0  0  0
   -8.1481    7.3523  -31.8028 H   0  0  0  0  0  0  0  0  0  0  0  0
   -8.6741    8.3043  -30.3733 H   0  0  0  0  0  0  0  0  0  0  0  0
   -5.8260    7.5419  -32.2580 H   0  0  0  0  0  0  0  0  0  0  0  0
   -5.0582    9.1275  -32.1679 H   0  0  0  0  0  0  0  0  0  0  0  0
   -6.2579   12.1416  -29.2523 H   0  0  0  0  0  0  0  0  0  0  0  0
   -6.5503   12.8196  -30.8620 H   0  0  0  0  0  0  0  0  0  0  0  0
   -6.5537    6.0352  -35.1039 H   0  0  0  0  0  0  0  0  0  0  0  0
  1  2  2  0  0  0  0
  1  3  1  0  0  0  0
  2  5  1  0  0  0  0
  3  6  2  0  0  0  0
  4  7  1  0  0  0  0
  4  8  2  0  0  0  0
  5  9  2  0  0  0  0
  6  9  1  0  0  0  0
  7 10  2  0  0  0  0
  8 12  1  0  0  0  0
  9 16  1  0  0  0  0
 10 11  1  0  0  0  0
 10 15  1  0  0  0  0
 11 12  2  0  0  0  0
 11 19  1  0  0  0  0
 12 21  1  0  0  0  0
 13 17  1  0  0  0  0
 13 18  2  0  0  0  0
 13 20  1  0  0  0  0
 14 17  1  0  0  0  0
 15 17  1  0  0  0  0
 16 20  1  0  0  0  0
  1 22  1  0  0  0  0
  2 23  1  0  0  0  0
  3 24  1  0  0  0  0
  4 25  1  0  0  0  0
  5 26  1  0  0  0  0
  6 27  1  0  0  0  0
  7 28  1  0  0  0  0
  8 29  1  0  0  0  0
 14 30  1  0  0  0  0
 14 31  1  0  0  0  0
 14 32  1  0  0  0  0
 15 33  1  0  0  0  0
 15 34  1  0  0  0  0
 16 35  1  0  0  0  0
 16 36  1  0  0  0  0
 19 37  1  0  0  0  0
M  END
> <id>
EN300-28298458

> <smiles>
CN(CC=1C=CC=C(Br)C1O)C(=O)OCC=2C=CC=CC2

> <IUPAC Name>
benzyl N-[(3-bromo-2-hydroxyphenyl)methyl]-N-methylcarbamate

> <CAS>
2680836-86-4

> <URL>
https://www.enaminestore.com/catalog/EN300-28298458

> <ROCS_ShapeQuery>
_x1604L0AP1_x0771L0AP1

> <ROCS_TanimotoCombo>
0.881 

> <ROCS_ShapeTanimoto>
0.612 

> <ROCS_ColorTanimoto>
0.270 

> <ROCS_RefTversky>
0.592 

> <ROCS_RefColorTversky>
0.329 

> <ROCS_RefTverskyCombo>
0.922 

> <ROCS_FitTversky>
1.056 

> <ROCS_FitColorTversky>
0.598 

> <ROCS_FitTverskyCombo>
1.655 

> <ROCS_ColorScore>
-3.760

> <ROCS_Overlap>
1015.109

> <ROCS_Rank>
478                 

$$$$
untitled-dbase-1325_2
  -OEChem-06042309053D

 16 16  0     0  0  0  0  0  0999 V2000
   -5.0530   11.1305  -31.7924 C   0  0  0  0  0  0  0  0  0  0  0  0
   -5.5642   11.7719  -29.1260 C   0  0  0  0  0  0  0  0  0  0  0  0
   -4.3255   12.1430  -31.1668 C   0  0  0  0  0  0  0  0  0  0  0  0
   -6.2917   10.7595  -29.7516 C   0  0  0  0  0  0  0  0  0  0  0  0
   -4.5811   12.4636  -29.8336 C   0  0  0  0  0  0  0  0  0  0  0  0
   -6.0361   10.4388  -31.0848 C   0  0  0  0  0  0  0  0  0  0  0  0
   -3.3022   12.8629  -31.9084 C   0  0  0  0  0  0  0  0  0  0  0  0
   -2.6273   12.3979  -32.8327 O   0  0  0  0  0  0  0  0  0  0  0  0
   -7.2454   10.1025  -29.0324 O   0  0  0  0  0  0  0  0  0  0  0  0
   -3.1510   14.1447  -31.4759 O   0  0  0  0  0  0  0  0  0  0  0  0
   -3.8891   13.4359  -29.2228 F   0  0  0  0  0  0  0  0  0  0  0  0
   -7.0065    9.0706  -31.9673 Br  0  0  0  0  0  0  0  0  0  0  0  0
   -4.8489   10.8861  -32.8327 H   0  0  0  0  0  0  0  0  0  0  0  0
   -5.7573   12.0268  -28.0875 H   0  0  0  0  0  0  0  0  0  0  0  0
   -7.6731    9.4279  -29.5824 H   0  0  0  0  0  0  0  0  0  0  0  0
   -2.4633   14.6394  -31.9706 H   0  0  0  0  0  0  0  0  0  0  0  0
  1  3  2  0  0  0  0
  1  6  1  0  0  0  0
  2  4  1  0  0  0  0
  2  5  2  0  0  0  0
  3  5  1  0  0  0  0
  3  7  1  0  0  0  0
  4  6  2  0  0  0  0
  4  9  1  0  0  0  0
  5 11  1  0  0  0  0
  6 12  1  0  0  0  0
  7  8  2  0  0  0  0
  7 10  1  0  0  0  0
  1 13  1  0  0  0  0
  2 14  1  0  0  0  0
  9 15  1  0  0  0  0
 10 16  1  0  0  0  0
M  END
> <id>
EN300-223978

> <smiles>
OC(=O)C=1C=C(Br)C(O)=CC1F

> <MDLNUMBER>
MFCD27995580

> <IUPAC Name>
5-bromo-2-fluoro-4-hydroxybenzoic acid

> <CAS>
1781790-71-3

> <Purity>
95

> <URL>
https://www.enaminestore.com/catalog/EN300-223978

> <ROCS_ShapeQuery>
_x1604L0AP1_x0771L0AP1

> <ROCS_TanimotoCombo>
0.881 

> <ROCS_ShapeTanimoto>
0.529 

> <ROCS_ColorTanimoto>
0.353 

> <ROCS_RefTversky>
0.465 

> <ROCS_RefColorTversky>
0.425 

> <ROCS_RefTverskyCombo>
0.890 

> <ROCS_FitTversky>
1.351 

> <ROCS_FitColorTversky>
0.673 

> <ROCS_FitTverskyCombo>
2.024 

> <ROCS_ColorScore>
-4.878

> <ROCS_Overlap>
787.373

> <ROCS_Rank>
479                 

$$$$
untitled-dbase-953_292
  -OEChem-06042309053D

 32 33  0     0  0  0  0  0  0999 V2000
   -5.1820   11.4231  -31.7773 C   0  0  0  0  0  0  0  0  0  0  0  0
   -4.3846   12.3048  -29.6740 C   0  0  0  0  0  0  0  0  0  0  0  0
   -4.2875   12.2201  -31.0629 C   0  0  0  0  0  0  0  0  0  0  0  0
   -6.1737   10.7109  -31.1028 C   0  0  0  0  0  0  0  0  0  0  0  0
   -6.2708   10.7956  -29.7139 C   0  0  0  0  0  0  0  0  0  0  0  0
   -5.3763   11.5925  -28.9995 C   0  0  0  0  0  0  0  0  0  0  0  0
   -2.2233   12.1915  -32.6040 C   0  0  0  0  0  0  0  0  0  0  0  0
   -3.2717   13.0003  -33.3002 C   0  0  0  0  0  0  0  0  0  0  0  0
   -3.2273   12.9797  -31.7840 C   0  0  0  0  0  0  0  0  0  0  0  0
   -6.8452    9.0894  -34.0443 C   0  0  0  0  0  0  0  0  0  0  0  0
   -3.7161   15.2700  -31.2583 C   0  0  0  0  0  0  0  0  0  0  0  0
   -6.4786    8.8807  -32.5905 C   0  0  0  0  0  0  0  0  0  0  0  0
   -2.7738   14.1833  -31.0668 N   0  0  0  0  0  0  0  0  0  0  0  0
   -7.2477   10.0914  -29.0726 O   0  0  0  0  0  0  0  0  0  0  0  0
   -7.0403    9.9366  -31.8135 O   0  0  0  0  0  0  0  0  0  0  0  0
   -5.4752   11.7317  -27.1113 Br  0  0  0  0  0  0  0  0  0  0  0  0
   -5.1085   11.3545  -32.8600 H   0  0  0  0  0  0  0  0  0  0  0  0
   -3.6823   12.9278  -29.1244 H   0  0  0  0  0  0  0  0  0  0  0  0
   -2.3122   11.1118  -32.6452 H   0  0  0  0  0  0  0  0  0  0  0  0
   -1.2004   12.5474  -32.6511 H   0  0  0  0  0  0  0  0  0  0  0  0
   -2.9534   13.9002  -33.8141 H   0  0  0  0  0  0  0  0  0  0  0  0
   -4.0649   12.4641  -33.8086 H   0  0  0  0  0  0  0  0  0  0  0  0
   -7.9305    9.0817  -34.1781 H   0  0  0  0  0  0  0  0  0  0  0  0
   -6.4508   10.0436  -34.4087 H   0  0  0  0  0  0  0  0  0  0  0  0
   -6.4067    8.3043  -34.6693 H   0  0  0  0  0  0  0  0  0  0  0  0
   -4.7000   14.9766  -30.8636 H   0  0  0  0  0  0  0  0  0  0  0  0
   -3.3587   16.1632  -30.7249 H   0  0  0  0  0  0  0  0  0  0  0  0
   -3.8037   15.4943  -32.3316 H   0  0  0  0  0  0  0  0  0  0  0  0
   -5.3919    8.8894  -32.4636 H   0  0  0  0  0  0  0  0  0  0  0  0
   -6.8741    7.9273  -32.2278 H   0  0  0  0  0  0  0  0  0  0  0  0
   -1.8634   14.4469  -31.4287 H   0  0  0  0  0  0  0  0  0  0  0  0
   -7.7767    9.5945  -29.7153 H   0  0  0  0  0  0  0  0  0  0  0  0
  1  3  1  0  0  0  0
  1  4  2  0  0  0  0
  2  3  2  0  0  0  0
  2  6  1  0  0  0  0
  3  9  1  0  0  0  0
  4  5  1  0  0  0  0
  4 15  1  0  0  0  0
  5  6  2  0  0  0  0
  5 14  1  0  0  0  0
  6 16  1  0  0  0  0
  7  8  1  0  0  0  0
  7  9  1  0  0  0  0
  8  9  1  0  0  0  0
  9 13  1  0  0  0  0
 10 12  1  0  0  0  0
 11 13  1  0  0  0  0
 12 15  1  0  0  0  0
  1 17  1  0  0  0  0
  2 18  1  0  0  0  0
  7 19  1  0  0  0  0
  7 20  1  0  0  0  0
  8 21  1  0  0  0  0
  8 22  1  0  0  0  0
 10 23  1  0  0  0  0
 10 24  1  0  0  0  0
 10 25  1  0  0  0  0
 11 26  1  0  0  0  0
 11 27  1  0  0  0  0
 11 28  1  0  0  0  0
 12 29  1  0  0  0  0
 12 30  1  0  0  0  0
 13 31  1  0  0  0  0
 14 32  1  0  0  0  0
M  END
> <id>
EN300-1920268

> <smiles>
CCOC=1C=C(C=C(Br)C1O)C2(CC2)NC

> <IUPAC Name>
2-bromo-6-ethoxy-4-[1-(methylamino)cyclopropyl]phenol

> <CAS>
2229115-72-2

> <URL>
https://www.enaminestore.com/catalog/EN300-1920268

> <ROCS_ShapeQuery>
_x1604L0AP1_x0771L0AP1

> <ROCS_TanimotoCombo>
0.881 

> <ROCS_ShapeTanimoto>
0.619 

> <ROCS_ColorTanimoto>
0.262 

> <ROCS_RefTversky>
0.548 

> <ROCS_RefColorTversky>
0.339 

> <ROCS_RefTverskyCombo>
0.887 

> <ROCS_FitTversky>
1.265 

> <ROCS_FitColorTversky>
0.536 

> <ROCS_FitTverskyCombo>
1.802 

> <ROCS_ColorScore>
-3.882

> <ROCS_Overlap>
932.799

> <ROCS_Rank>
480                 

$$$$
untitled-dbase-1611_21
  -OEChem-06042309053D

 28 29  0     0  0  0  0  0  0999 V2000
   -4.0999   12.3860  -30.6027 C   0  0  0  0  0  0  0  0  0  0  0  0
   -4.8617   11.5791  -31.4478 C   0  0  0  0  0  0  0  0  0  0  0  0
   -4.3844   12.4306  -29.2378 C   0  0  0  0  0  0  0  0  0  0  0  0
   -5.9079   10.8169  -30.9282 C   0  0  0  0  0  0  0  0  0  0  0  0
   -6.1924   10.8615  -29.5633 C   0  0  0  0  0  0  0  0  0  0  0  0
   -5.4306   11.6684  -28.7182 C   0  0  0  0  0  0  0  0  0  0  0  0
   -6.0345   10.5066  -34.1517 C   0  0  0  0  0  0  0  0  0  0  0  0
   -7.1846   11.4238  -33.7427 C   0  0  0  0  0  0  0  0  0  0  0  0
   -6.0016    9.3854  -33.1131 C   0  0  0  0  0  0  0  0  0  0  0  0
   -7.8615   10.7354  -32.5608 C   0  0  0  0  0  0  0  0  0  0  0  0
   -6.7346    9.9363  -31.8775 C   0  0  0  0  0  0  0  0  0  0  0  0
   -7.2650    8.8356  -31.0986 N   0  0  0  0  0  0  0  0  0  0  0  0
   -7.2202   10.1113  -29.0702 O   0  0  0  0  0  0  0  0  0  0  0  0
   -5.7848   11.7556  -26.8578 Br  0  0  0  0  0  0  0  0  0  0  0  0
   -3.2850   12.9792  -31.0071 H   0  0  0  0  0  0  0  0  0  0  0  0
   -4.6317   11.5485  -32.5095 H   0  0  0  0  0  0  0  0  0  0  0  0
   -3.7795   13.0649  -28.5947 H   0  0  0  0  0  0  0  0  0  0  0  0
   -6.2178   10.0989  -35.1517 H   0  0  0  0  0  0  0  0  0  0  0  0
   -5.0809   11.0417  -34.1858 H   0  0  0  0  0  0  0  0  0  0  0  0
   -6.8311   12.4221  -33.4718 H   0  0  0  0  0  0  0  0  0  0  0  0
   -7.8847   11.5382  -34.5762 H   0  0  0  0  0  0  0  0  0  0  0  0
   -6.4446    8.4585  -33.5003 H   0  0  0  0  0  0  0  0  0  0  0  0
   -4.9540    9.1519  -32.8707 H   0  0  0  0  0  0  0  0  0  0  0  0
   -8.2622   11.4964  -31.8819 H   0  0  0  0  0  0  0  0  0  0  0  0
   -8.7010   10.1110  -32.8765 H   0  0  0  0  0  0  0  0  0  0  0  0
   -8.2550    8.8715  -31.1480 H   0  0  0  0  0  0  0  0  0  0  0  0
   -6.9232    7.9899  -31.4882 H   0  0  0  0  0  0  0  0  0  0  0  0
   -7.6428    9.6140  -29.7869 H   0  0  0  0  0  0  0  0  0  0  0  0
  1  2  1  0  0  0  0
  1  3  2  0  0  0  0
  2  4  2  0  0  0  0
  3  6  1  0  0  0  0
  4  5  1  0  0  0  0
  4 11  1  0  0  0  0
  5  6  2  0  0  0  0
  5 13  1  0  0  0  0
  6 14  1  0  0  0  0
  7  8  1  0  0  0  0
  7  9  1  0  0  0  0
  8 10  1  0  0  0  0
  9 11  1  0  0  0  0
 10 11  1  0  0  0  0
 11 12  1  0  0  0  0
  1 15  1  0  0  0  0
  2 16  1  0  0  0  0
  3 17  1  0  0  0  0
  7 18  1  0  0  0  0
  7 19  1  0  0  0  0
  8 20  1  0  0  0  0
  8 21  1  0  0  0  0
  9 22  1  0  0  0  0
  9 23  1  0  0  0  0
 10 24  1  0  0  0  0
 10 25  1  0  0  0  0
 12 26  1  0  0  0  0
 12 27  1  0  0  0  0
 13 28  1  0  0  0  0
M  END
> <id>
EN300-1923066

> <smiles>
NC1(CCCC1)C=2C=CC=C(Br)C2O

> <IUPAC Name>
2-(1-aminocyclopentyl)-6-bromophenol

> <CAS>
1704113-04-1

> <URL>
https://www.enaminestore.com/catalog/EN300-1923066

> <ROCS_ShapeQuery>
_x1604L0AP1_x0771L0AP1

> <ROCS_TanimotoCombo>
0.881 

> <ROCS_ShapeTanimoto>
0.560 

> <ROCS_ColorTanimoto>
0.321 

> <ROCS_RefTversky>
0.499 

> <ROCS_RefColorTversky>
0.396 

> <ROCS_RefTverskyCombo>
0.896 

> <ROCS_FitTversky>
1.277 

> <ROCS_FitColorTversky>
0.628 

> <ROCS_FitTverskyCombo>
1.905 

> <ROCS_ColorScore>
-4.543

> <ROCS_Overlap>
848.086

> <ROCS_Rank>
481                 

$$$$
untitled-dbase-1177_27
  -OEChem-06042309053D

 22 23  0     0  0  0  0  0  0999 V2000
   -4.6073   12.4951  -29.8399 C   0  0  0  0  0  0  0  0  0  0  0  0
   -4.3481   12.1801  -31.1738 C   0  0  0  0  0  0  0  0  0  0  0  0
   -5.5799   11.7884  -29.1327 C   0  0  0  0  0  0  0  0  0  0  0  0
   -5.0615   11.1583  -31.8004 C   0  0  0  0  0  0  0  0  0  0  0  0
   -6.2934   10.7667  -29.7593 C   0  0  0  0  0  0  0  0  0  0  0  0
   -6.0342   10.4516  -31.0932 C   0  0  0  0  0  0  0  0  0  0  0  0
   -5.8712   11.0114  -34.1754 C   0  0  0  0  0  0  0  0  0  0  0  0
   -3.7342    9.7681  -33.5175 C   0  0  0  0  0  0  0  0  0  0  0  0
   -3.3577   11.1979  -33.7338 C   0  0  0  0  0  0  0  0  0  0  0  0
   -4.7501   10.8597  -33.2314 C   0  0  0  0  0  0  0  0  0  0  0  0
   -7.0445   10.8318  -33.8660 O   0  0  0  0  0  0  0  0  0  0  0  0
   -7.2380   10.1002  -29.0365 O   0  0  0  0  0  0  0  0  0  0  0  0
   -7.0200    9.0587  -31.9370 Br  0  0  0  0  0  0  0  0  0  0  0  0
   -4.0511   13.2905  -29.3526 H   0  0  0  0  0  0  0  0  0  0  0  0
   -3.5868   12.7367  -31.7144 H   0  0  0  0  0  0  0  0  0  0  0  0
   -5.7760   12.0403  -28.0940 H   0  0  0  0  0  0  0  0  0  0  0  0
   -5.5935   11.3020  -35.2027 H   0  0  0  0  0  0  0  0  0  0  0  0
   -3.8789    9.1478  -34.3947 H   0  0  0  0  0  0  0  0  0  0  0  0
   -3.2746    9.2472  -32.6852 H   0  0  0  0  0  0  0  0  0  0  0  0
   -2.6442   11.6392  -33.0473 H   0  0  0  0  0  0  0  0  0  0  0  0
   -3.2492   11.5402  -34.7567 H   0  0  0  0  0  0  0  0  0  0  0  0
   -7.6586    9.4192  -29.5840 H   0  0  0  0  0  0  0  0  0  0  0  0
  1  2  2  0  0  0  0
  1  3  1  0  0  0  0
  2  4  1  0  0  0  0
  3  5  2  0  0  0  0
  4  6  2  0  0  0  0
  4 10  1  0  0  0  0
  5  6  1  0  0  0  0
  5 12  1  0  0  0  0
  6 13  1  0  0  0  0
  7 10  1  0  0  0  0
  7 11  2  0  0  0  0
  8  9  1  0  0  0  0
  8 10  1  0  0  0  0
  9 10  1  0  0  0  0
  1 14  1  0  0  0  0
  2 15  1  0  0  0  0
  3 16  1  0  0  0  0
  7 17  1  0  0  0  0
  8 18  1  0  0  0  0
  8 19  1  0  0  0  0
  9 20  1  0  0  0  0
  9 21  1  0  0  0  0
 12 22  1  0  0  0  0
M  END
> <id>
EN300-1904495

> <smiles>
OC=1C=CC=C(C1Br)C2(CC2)C=O

> <IUPAC Name>
1-(2-bromo-3-hydroxyphenyl)cyclopropane-1-carbaldehyde

> <CAS>
2228622-13-5

> <URL>
https://www.enaminestore.com/catalog/EN300-1904495

> <ROCS_ShapeQuery>
_x1604L0AP1_x0771L0AP1

> <ROCS_TanimotoCombo>
0.881 

> <ROCS_ShapeTanimoto>
0.468 

> <ROCS_ColorTanimoto>
0.413 

> <ROCS_RefTversky>
0.435 

> <ROCS_RefColorTversky>
0.430 

> <ROCS_RefTverskyCombo>
0.865 

> <ROCS_FitTversky>
1.192 

> <ROCS_FitColorTversky>
0.915 

> <ROCS_FitTverskyCombo>
2.107 

> <ROCS_ColorScore>
-4.883

> <ROCS_Overlap>
737.929

> <ROCS_Rank>
482                 

$$$$
untitled-dbase-1538_197
  -OEChem-06042309053D

 25 25  0     1  0  0  0  0  0999 V2000
   -4.5600   12.4479  -29.7957 C   0  0  0  0  0  0  0  0  0  0  0  0
   -5.0267   11.1226  -31.7611 C   0  0  0  0  0  0  0  0  0  0  0  0
   -4.2954   12.1271  -31.1271 C   0  0  0  0  0  0  0  0  0  0  0  0
   -5.5558   11.7640  -29.0982 C   0  0  0  0  0  0  0  0  0  0  0  0
   -6.2870   10.7595  -29.7321 C   0  0  0  0  0  0  0  0  0  0  0  0
   -6.0225   10.4388  -31.0636 C   0  0  0  0  0  0  0  0  0  0  0  0
   -2.9822   14.2724  -31.3510 C   0  0  0  0  0  0  0  0  0  0  0  0
   -3.4943   12.9367  -33.3867 C   0  0  0  0  0  0  0  0  0  0  0  0
   -5.0657   11.3831  -26.8024 C   0  0  0  0  0  0  0  0  0  0  0  0
   -3.2314   12.8591  -31.8728 C   0  0  2  0  0  0  0  0  0  0  0  0
   -3.5861   14.7736  -30.4075 O   0  0  0  0  0  0  0  0  0  0  0  0
   -7.2577   10.1027  -29.0334 O   0  0  0  0  0  0  0  0  0  0  0  0
   -5.8029   12.0891  -27.7984 O   0  0  0  0  0  0  0  0  0  0  0  0
   -6.9952    9.0799  -31.9587 Br  0  0  0  0  0  0  0  0  0  0  0  0
   -3.9915   13.2308  -29.2994 H   0  0  0  0  0  0  0  0  0  0  0  0
   -4.8132   10.8799  -32.7998 H   0  0  0  0  0  0  0  0  0  0  0  0
   -2.1627   14.8308  -31.8374 H   0  0  0  0  0  0  0  0  0  0  0  0
   -4.4476   13.4373  -33.5882 H   0  0  0  0  0  0  0  0  0  0  0  0
   -2.7036   13.4888  -33.9068 H   0  0  0  0  0  0  0  0  0  0  0  0
   -3.5360   11.9386  -33.8374 H   0  0  0  0  0  0  0  0  0  0  0  0
   -5.3583   11.7383  -25.8113 H   0  0  0  0  0  0  0  0  0  0  0  0
   -3.9959   11.5436  -26.9575 H   0  0  0  0  0  0  0  0  0  0  0  0
   -5.2879   10.3166  -26.8850 H   0  0  0  0  0  0  0  0  0  0  0  0
   -2.2592   12.3449  -31.7562 H   0  0  0  0  0  0  0  0  0  0  0  0
   -7.3091   10.4488  -28.1294 H   0  0  0  0  0  0  0  0  0  0  0  0
  1  3  1  0  0  0  0
  1  4  2  0  0  0  0
  2  3  2  0  0  0  0
  2  6  1  0  0  0  0
  3 10  1  0  0  0  0
  4  5  1  0  0  0  0
  4 13  1  0  0  0  0
  5  6  2  0  0  0  0
  5 12  1  0  0  0  0
  6 14  1  0  0  0  0
  7 10  1  0  0  0  0
  7 11  2  0  0  0  0
  8 10  1  0  0  0  0
  9 13  1  0  0  0  0
  1 15  1  0  0  0  0
  2 16  1  0  0  0  0
  7 17  1  0  0  0  0
  8 18  1  0  0  0  0
  8 19  1  0  0  0  0
  8 20  1  0  0  0  0
  9 21  1  0  0  0  0
  9 22  1  0  0  0  0
  9 23  1  0  0  0  0
 10 24  1  0  0  0  0
 12 25  1  0  0  0  0
M  END
> <id>
EN300-1927027

> <smiles>
COC=1C=C(C=C(Br)C1O)C(C)C=O

> <IUPAC Name>
2-(3-bromo-4-hydroxy-5-methoxyphenyl)propanal

> <CAS>
2229361-58-2

> <URL>
https://www.enaminestore.com/catalog/EN300-1927027

> <ROCS_ShapeQuery>
_x1604L0AP1_x0771L0AP1

> <ROCS_TanimotoCombo>
0.881 

> <ROCS_ShapeTanimoto>
0.526 

> <ROCS_ColorTanimoto>
0.355 

> <ROCS_RefTversky>
0.477 

> <ROCS_RefColorTversky>
0.427 

> <ROCS_RefTverskyCombo>
0.904 

> <ROCS_FitTversky>
1.246 

> <ROCS_FitColorTversky>
0.677 

> <ROCS_FitTverskyCombo>
1.923 

> <ROCS_ColorScore>
-4.897

> <ROCS_Overlap>
809.334

> <ROCS_Rank>
483                 

$$$$
untitled-dbase-51_0
  -OEChem-06042309053D

 13 13  0     0  0  0  0  0  0999 V2000
   -4.5887   12.4984  -29.8384 C   0  0  0  0  0  0  0  0  0  0  0  0
   -4.3329   12.1833  -31.1728 C   0  0  0  0  0  0  0  0  0  0  0  0
   -6.2830   10.7779  -29.7570 C   0  0  0  0  0  0  0  0  0  0  0  0
   -5.5637   11.7956  -29.1304 C   0  0  0  0  0  0  0  0  0  0  0  0
   -5.0521   11.1656  -31.7994 C   0  0  0  0  0  0  0  0  0  0  0  0
   -6.0272   10.4629  -31.0915 C   0  0  0  0  0  0  0  0  0  0  0  0
   -7.2348   10.0969  -29.0527 O   0  0  0  0  0  0  0  0  0  0  0  0
   -5.8544   12.2108  -27.4807 Cl  0  0  0  0  0  0  0  0  0  0  0  0
   -4.6752   10.8356  -33.4554 Cl  0  0  0  0  0  0  0  0  0  0  0  0
   -7.0314    9.0641  -31.9144 Br  0  0  0  0  0  0  0  0  0  0  0  0
   -4.0185   13.2929  -29.3636 H   0  0  0  0  0  0  0  0  0  0  0  0
   -3.5680   12.7407  -31.7080 H   0  0  0  0  0  0  0  0  0  0  0  0
   -7.2847   10.4381  -28.1473 H   0  0  0  0  0  0  0  0  0  0  0  0
  1  2  2  0  0  0  0
  1  4  1  0  0  0  0
  2  5  1  0  0  0  0
  3  4  2  0  0  0  0
  3  6  1  0  0  0  0
  3  7  1  0  0  0  0
  4  8  1  0  0  0  0
  5  6  2  0  0  0  0
  5  9  1  0  0  0  0
  6 10  1  0  0  0  0
  1 11  1  0  0  0  0
  2 12  1  0  0  0  0
  7 13  1  0  0  0  0
M  END
> <id>
EN300-198648

> <smiles>
OC=1C(Cl)=CC=C(Cl)C1Br

> <MDLNUMBER>
MFCD00152293

> <IUPAC Name>
2-bromo-3,6-dichlorophenol

> <CAS>
63862-91-9

> <Purity>
95

> <URL>
https://www.enaminestore.com/catalog/EN300-198648

> <ROCS_ShapeQuery>
_x1604L0AP1_x0771L0AP1

> <ROCS_TanimotoCombo>
0.881 

> <ROCS_ShapeTanimoto>
0.429 

> <ROCS_ColorTanimoto>
0.452 

> <ROCS_RefTversky>
0.384 

> <ROCS_RefColorTversky>
0.432 

> <ROCS_RefTverskyCombo>
0.816 

> <ROCS_FitTversky>
1.377 

> <ROCS_FitColorTversky>
1.114 

> <ROCS_FitTverskyCombo>
2.491 

> <ROCS_ColorScore>
-4.886

> <ROCS_Overlap>
648.306

> <ROCS_Rank>
484                 

$$$$
untitled-dbase-1236_614
  -OEChem-06042309053D

 30 30  0     1  0  0  0  0  0999 V2000
   -6.4755   10.1670  -31.0123 C   0  0  0  0  0  0  0  0  0  0  0  0
   -4.6385   11.5310  -31.7880 C   0  0  0  0  0  0  0  0  0  0  0  0
   -5.6218   10.5738  -32.0377 C   0  0  0  0  0  0  0  0  0  0  0  0
   -6.3458   10.7175  -29.7372 C   0  0  0  0  0  0  0  0  0  0  0  0
   -5.3624   11.6748  -29.4875 C   0  0  0  0  0  0  0  0  0  0  0  0
   -4.5088   12.0815  -30.5129 C   0  0  0  0  0  0  0  0  0  0  0  0
   -5.1824    8.3415  -35.6706 C   0  0  0  0  0  0  0  0  0  0  0  0
   -8.1628    9.3275  -29.0874 C   0  0  0  0  0  0  0  0  0  0  0  0
   -5.7618    9.9777  -33.4157 C   0  0  0  0  0  0  0  0  0  0  0  0
   -6.2934    8.5370  -33.4163 C   0  0  0  0  0  0  0  0  0  0  0  0
   -6.3557    7.8947  -34.8076 C   0  0  2  0  0  0  0  0  0  0  0  0
   -5.2506   12.2008  -28.2335 O   0  0  0  0  0  0  0  0  0  0  0  0
   -6.3137    6.4773  -34.6721 O   0  0  0  0  0  0  0  0  0  0  0  0
   -7.1866   10.3096  -28.7459 O   0  0  0  0  0  0  0  0  0  0  0  0
   -3.1604   13.3798  -30.2118 Br  0  0  0  0  0  0  0  0  0  0  0  0
   -7.2427    9.4207  -31.2044 H   0  0  0  0  0  0  0  0  0  0  0  0
   -3.9772   11.8416  -32.5941 H   0  0  0  0  0  0  0  0  0  0  0  0
   -4.2275    8.0901  -35.1958 H   0  0  0  0  0  0  0  0  0  0  0  0
   -5.2171    7.8765  -36.6604 H   0  0  0  0  0  0  0  0  0  0  0  0
   -5.1931    9.4295  -35.7974 H   0  0  0  0  0  0  0  0  0  0  0  0
   -8.7667    9.0917  -28.2077 H   0  0  0  0  0  0  0  0  0  0  0  0
   -7.6626    8.4266  -29.4514 H   0  0  0  0  0  0  0  0  0  0  0  0
   -8.8084    9.7263  -29.8735 H   0  0  0  0  0  0  0  0  0  0  0  0
   -6.3989   10.6153  -34.0411 H   0  0  0  0  0  0  0  0  0  0  0  0
   -4.7741    9.9923  -33.8951 H   0  0  0  0  0  0  0  0  0  0  0  0
   -7.2859    8.5023  -32.9505 H   0  0  0  0  0  0  0  0  0  0  0  0
   -5.6207    7.9441  -32.7827 H   0  0  0  0  0  0  0  0  0  0  0  0
   -7.2923    8.1602  -35.3095 H   0  0  0  0  0  0  0  0  0  0  0  0
   -5.9165   11.8096  -27.6477 H   0  0  0  0  0  0  0  0  0  0  0  0
   -7.0714    6.2294  -34.1195 H   0  0  0  0  0  0  0  0  0  0  0  0
  1  3  1  0  0  0  0
  1  4  2  0  0  0  0
  2  3  2  0  0  0  0
  2  6  1  0  0  0  0
  3  9  1  0  0  0  0
  4  5  1  0  0  0  0
  4 14  1  0  0  0  0
  5  6  2  0  0  0  0
  5 12  1  0  0  0  0
  6 15  1  0  0  0  0
  7 11  1  1  0  0  0
  8 14  1  0  0  0  0
  9 10  1  0  0  0  0
 10 11  1  0  0  0  0
 11 13  1  0  0  0  0
  1 16  1  0  0  0  0
  2 17  1  0  0  0  0
  7 18  1  0  0  0  0
  7 19  1  0  0  0  0
  7 20  1  0  0  0  0
  8 21  1  0  0  0  0
  8 22  1  0  0  0  0
  8 23  1  0  0  0  0
  9 24  1  0  0  0  0
  9 25  1  0  0  0  0
 10 26  1  0  0  0  0
 10 27  1  0  0  0  0
 11 28  1  0  0  0  0
 12 29  1  0  0  0  0
 13 30  1  0  0  0  0
M  END
> <id>
EN300-1927035

> <smiles>
COC=1C=C(CC[C@@H](C)O)C=C(Br)C1O

> <IUPAC Name>
2-bromo-4-[(3R)-3-hydroxybutyl]-6-methoxyphenol

> <CAS>
2227801-58-1

> <URL>
https://www.enaminestore.com/catalog/EN300-1927035

> <ROCS_ShapeQuery>
_x1604L0AP1_x0771L0AP1

> <ROCS_TanimotoCombo>
0.881 

> <ROCS_ShapeTanimoto>
0.574 

> <ROCS_ColorTanimoto>
0.307 

> <ROCS_RefTversky>
0.510 

> <ROCS_RefColorTversky>
0.383 

> <ROCS_RefTverskyCombo>
0.894 

> <ROCS_FitTversky>
1.277 

> <ROCS_FitColorTversky>
0.607 

> <ROCS_FitTverskyCombo>
1.884 

> <ROCS_ColorScore>
-4.394

> <ROCS_Overlap>
867.070

> <ROCS_Rank>
485                 

$$$$
untitled-dbase-639_321
  -OEChem-06042309053D

 23 23  0     0  0  0  0  0  0999 V2000
   -4.6059   12.4920  -29.8433 C   0  0  0  0  0  0  0  0  0  0  0  0
   -4.3492   12.1750  -31.1771 C   0  0  0  0  0  0  0  0  0  0  0  0
   -5.5791   11.7880  -29.1339 C   0  0  0  0  0  0  0  0  0  0  0  0
   -5.0656   11.1541  -31.8017 C   0  0  0  0  0  0  0  0  0  0  0  0
   -6.2955   10.7671  -29.7585 C   0  0  0  0  0  0  0  0  0  0  0  0
   -6.0388   10.4501  -31.0924 C   0  0  0  0  0  0  0  0  0  0  0  0
   -5.5954   11.6607  -34.2323 C   0  0  0  0  0  0  0  0  0  0  0  0
   -7.0270   11.1591  -34.3765 C   0  0  0  0  0  0  0  0  0  0  0  0
   -4.7530   10.8535  -33.2324 C   0  0  0  0  0  0  0  0  0  0  0  0
   -7.2393   10.1015  -29.0338 O   0  0  0  0  0  0  0  0  0  0  0  0
   -6.9938    9.8038  -34.8058 O   0  0  0  0  0  0  0  0  0  0  0  0
   -4.9648    9.5287  -33.5287 F   0  0  0  0  0  0  0  0  0  0  0  0
   -3.4354   11.0598  -33.5550 F   0  0  0  0  0  0  0  0  0  0  0  0
   -7.0223    9.0551  -31.9337 Br  0  0  0  0  0  0  0  0  0  0  0  0
   -4.0484   13.2873  -29.3571 H   0  0  0  0  0  0  0  0  0  0  0  0
   -3.5887   12.7302  -31.7204 H   0  0  0  0  0  0  0  0  0  0  0  0
   -5.7738   12.0413  -28.0952 H   0  0  0  0  0  0  0  0  0  0  0  0
   -5.1087   11.6807  -35.2157 H   0  0  0  0  0  0  0  0  0  0  0  0
   -5.6246   12.7103  -33.9113 H   0  0  0  0  0  0  0  0  0  0  0  0
   -7.5629   11.2005  -33.4238 H   0  0  0  0  0  0  0  0  0  0  0  0
   -7.5741   11.7450  -35.1215 H   0  0  0  0  0  0  0  0  0  0  0  0
   -7.6618    9.4212  -29.5805 H   0  0  0  0  0  0  0  0  0  0  0  0
   -6.5149    9.3063  -34.1237 H   0  0  0  0  0  0  0  0  0  0  0  0
  1  2  1  0  0  0  0
  1  3  2  0  0  0  0
  2  4  2  0  0  0  0
  3  5  1  0  0  0  0
  4  6  1  0  0  0  0
  4  9  1  0  0  0  0
  5  6  2  0  0  0  0
  5 10  1  0  0  0  0
  6 14  1  0  0  0  0
  7  8  1  0  0  0  0
  7  9  1  0  0  0  0
  8 11  1  0  0  0  0
  9 12  1  0  0  0  0
  9 13  1  0  0  0  0
  1 15  1  0  0  0  0
  2 16  1  0  0  0  0
  3 17  1  0  0  0  0
  7 18  1  0  0  0  0
  7 19  1  0  0  0  0
  8 20  1  0  0  0  0
  8 21  1  0  0  0  0
 10 22  1  0  0  0  0
 11 23  1  0  0  0  0
M  END
> <id>
EN300-1950758

> <smiles>
OCCC(F)(F)C=1C=CC=C(O)C1Br

> <IUPAC Name>
2-bromo-3-(1,1-difluoro-3-hydroxypropyl)phenol

> <CAS>
2228923-56-4

> <URL>
https://www.enaminestore.com/catalog/EN300-1950758

> <ROCS_ShapeQuery>
_x1604L0AP1_x0771L0AP1

> <ROCS_TanimotoCombo>
0.881 

> <ROCS_ShapeTanimoto>
0.500 

> <ROCS_ColorTanimoto>
0.381 

> <ROCS_RefTversky>
0.462 

> <ROCS_RefColorTversky>
0.428 

> <ROCS_RefTverskyCombo>
0.890 

> <ROCS_FitTversky>
1.197 

> <ROCS_FitColorTversky>
0.777 

> <ROCS_FitTverskyCombo>
1.974 

> <ROCS_ColorScore>
-4.883

> <ROCS_Overlap>
784.388

> <ROCS_Rank>
486                 

$$$$
untitled-dbase-1372_46
  -OEChem-06042309053D

 18 18  0     0  0  0  0  0  0999 V2000
   -4.3089   12.1995  -31.1379 C   0  0  0  0  0  0  0  0  0  0  0  0
   -5.0684   11.2274  -31.7889 C   0  0  0  0  0  0  0  0  0  0  0  0
   -4.5299   12.4682  -29.7871 C   0  0  0  0  0  0  0  0  0  0  0  0
   -6.0490   10.5242  -31.0892 C   0  0  0  0  0  0  0  0  0  0  0  0
   -6.2700   10.7929  -29.7384 C   0  0  0  0  0  0  0  0  0  0  0  0
   -5.5105   11.7650  -29.0874 C   0  0  0  0  0  0  0  0  0  0  0  0
   -6.8515    9.4885  -31.8059 C   0  0  0  0  0  0  0  0  0  0  0  0
   -6.2913    8.2020  -34.7930 N   0  5  0  0  0  0  0  0  0  0  0  0
   -7.0523    9.8232  -33.2206 N   0  0  0  0  0  0  0  0  0  0  0  0
   -6.6537    8.9747  -34.0363 N   0  3  0  0  0  0  0  0  0  0  0  0
   -7.2341   10.0976  -29.0679 O   0  0  0  0  0  0  0  0  0  0  0  0
   -5.7796   12.1587  -27.2526 Br  0  0  0  0  0  0  0  0  0  0  0  0
   -3.5451   12.7467  -31.6825 H   0  0  0  0  0  0  0  0  0  0  0  0
   -4.8880   11.0227  -32.8409 H   0  0  0  0  0  0  0  0  0  0  0  0
   -3.9278   13.2289  -29.2966 H   0  0  0  0  0  0  0  0  0  0  0  0
   -6.3641    8.5052  -31.7362 H   0  0  0  0  0  0  0  0  0  0  0  0
   -7.8358    9.3677  -31.3318 H   0  0  0  0  0  0  0  0  0  0  0  0
   -7.6648    9.4666  -29.6643 H   0  0  0  0  0  0  0  0  0  0  0  0
  1  2  1  0  0  0  0
  1  3  2  0  0  0  0
  2  4  2  0  0  0  0
  3  6  1  0  0  0  0
  4  5  1  0  0  0  0
  4  7  1  0  0  0  0
  5  6  2  0  0  0  0
  5 11  1  0  0  0  0
  6 12  1  0  0  0  0
  7  9  1  0  0  0  0
  8 10  2  0  0  0  0
  9 10  2  0  0  0  0
  1 13  1  0  0  0  0
  2 14  1  0  0  0  0
  3 15  1  0  0  0  0
  7 16  1  0  0  0  0
  7 17  1  0  0  0  0
 11 18  1  0  0  0  0
M  CHG  2   8  -1  10   1
M  END
> <id>
EN300-1923150

> <smiles>
OC=1C(Br)=CC=CC1CN=[N+]=[N-]

> <IUPAC Name>
2-(azidomethyl)-6-bromophenol

> <CAS>
2228200-06-2

> <URL>
https://www.enaminestore.com/catalog/EN300-1923150

> <ROCS_ShapeQuery>
_x1604L0AP1_x0771L0AP1

> <ROCS_TanimotoCombo>
0.881 

> <ROCS_ShapeTanimoto>
0.552 

> <ROCS_ColorTanimoto>
0.329 

> <ROCS_RefTversky>
0.476 

> <ROCS_RefColorTversky>
0.343 

> <ROCS_RefTverskyCombo>
0.819 

> <ROCS_FitTversky>
1.410 

> <ROCS_FitColorTversky>
0.886 

> <ROCS_FitTverskyCombo>
2.296 

> <ROCS_ColorScore>
-3.886

> <ROCS_Overlap>
805.438

> <ROCS_Rank>
487                 

$$$$
untitled-dbase-1437_7
  -OEChem-06042309053D

 25 26  0     1  0  0  0  0  0999 V2000
   -4.9033   12.0179  -31.2063 C   0  0  0  0  0  0  0  0  0  0  0  0
   -4.2200   12.2305  -28.8987 C   0  0  0  0  0  0  0  0  0  0  0  0
   -5.9694   11.2076  -30.8160 C   0  0  0  0  0  0  0  0  0  0  0  0
   -6.1609   10.9088  -29.4670 C   0  0  0  0  0  0  0  0  0  0  0  0
   -4.0286   12.5294  -30.2476 C   0  0  0  0  0  0  0  0  0  0  0  0
   -5.2862   11.4202  -28.5083 C   0  0  0  0  0  0  0  0  0  0  0  0
   -7.0660   11.5557  -33.1127 C   0  0  0  0  0  0  0  0  0  0  0  0
   -6.6650   10.6726  -34.2839 C   0  0  0  0  0  0  0  0  0  0  0  0
   -6.4566    9.3078  -32.4242 C   0  0  0  0  0  0  0  0  0  0  0  0
   -6.9050   10.6641  -31.8710 C   0  0  1  0  0  0  0  0  0  0  0  0
   -6.9369    9.3201  -33.8050 N   0  0  0  0  0  0  0  0  0  0  0  0
   -7.2086   10.1144  -29.1010 O   0  0  0  0  0  0  0  0  0  0  0  0
   -2.7130   13.5291  -30.7298 Cl  0  0  0  0  0  0  0  0  0  0  0  0
   -5.5134   11.0363  -26.6656 Br  0  0  0  0  0  0  0  0  0  0  0  0
   -4.7577   12.2491  -32.2594 H   0  0  0  0  0  0  0  0  0  0  0  0
   -3.5354   12.6310  -28.1543 H   0  0  0  0  0  0  0  0  0  0  0  0
   -6.4683   12.4729  -33.0796 H   0  0  0  0  0  0  0  0  0  0  0  0
   -8.1191   11.8478  -33.2117 H   0  0  0  0  0  0  0  0  0  0  0  0
   -7.2310   10.9061  -35.1906 H   0  0  0  0  0  0  0  0  0  0  0  0
   -5.5983   10.7836  -34.5103 H   0  0  0  0  0  0  0  0  0  0  0  0
   -5.3658    9.1904  -32.4136 H   0  0  0  0  0  0  0  0  0  0  0  0
   -6.8859    8.4743  -31.8586 H   0  0  0  0  0  0  0  0  0  0  0  0
   -7.9068   10.5498  -31.3882 H   0  0  0  0  0  0  0  0  0  0  0  0
   -7.9473    9.1738  -33.7993 H   0  0  0  0  0  0  0  0  0  0  0  0
   -7.7129    9.8470  -29.8843 H   0  0  0  0  0  0  0  0  0  0  0  0
  1  3  2  0  0  0  0
  1  5  1  0  0  0  0
  2  5  2  0  0  0  0
  2  6  1  0  0  0  0
  3  4  1  0  0  0  0
  3 10  1  0  0  0  0
  4  6  2  0  0  0  0
  4 12  1  0  0  0  0
  5 13  1  0  0  0  0
  6 14  1  0  0  0  0
  7  8  1  0  0  0  0
  7 10  1  0  0  0  0
  8 11  1  0  0  0  0
  9 10  1  0  0  0  0
  9 11  1  0  0  0  0
  1 15  1  0  0  0  0
  2 16  1  0  0  0  0
  7 17  1  0  0  0  0
  7 18  1  0  0  0  0
  8 19  1  0  0  0  0
  8 20  1  0  0  0  0
  9 21  1  0  0  0  0
  9 22  1  0  0  0  0
 10 23  1  0  0  0  0
 11 24  1  0  0  0  0
 12 25  1  0  0  0  0
M  END
> <id>
EN300-1911866

> <smiles>
OC=1C(Br)=CC(Cl)=CC1C2CCNC2

> <MDLNUMBER>
MFCD17482962

> <IUPAC Name>
2-bromo-4-chloro-6-(pyrrolidin-3-yl)phenol

> <CAS>
1260771-42-3

> <URL>
https://www.enaminestore.com/catalog/EN300-1911866

> <ROCS_ShapeQuery>
_x1604L0AP1_x0771L0AP1

> <ROCS_TanimotoCombo>
0.881 

> <ROCS_ShapeTanimoto>
0.583 

> <ROCS_ColorTanimoto>
0.298 

> <ROCS_RefTversky>
0.510 

> <ROCS_RefColorTversky>
0.374 

> <ROCS_RefTverskyCombo>
0.884 

> <ROCS_FitTversky>
1.326 

> <ROCS_FitColorTversky>
0.593 

> <ROCS_FitTverskyCombo>
1.919 

> <ROCS_ColorScore>
-4.291

> <ROCS_Overlap>
865.623

> <ROCS_Rank>
488                 

$$$$
untitled-dbase-767_216
  -OEChem-06042309053D

 28 28  0     0  0  0  0  0  0999 V2000
   -4.5731   12.4570  -29.8062 C   0  0  0  0  0  0  0  0  0  0  0  0
   -5.0452   11.1345  -31.7721 C   0  0  0  0  0  0  0  0  0  0  0  0
   -4.3152   12.1412  -31.1401 C   0  0  0  0  0  0  0  0  0  0  0  0
   -5.5608   11.7662  -29.1042 C   0  0  0  0  0  0  0  0  0  0  0  0
   -6.2908   10.7595  -29.7362 C   0  0  0  0  0  0  0  0  0  0  0  0
   -6.0330   10.4436  -31.0701 C   0  0  0  0  0  0  0  0  0  0  0  0
   -3.8193   15.9224  -31.5805 C   0  0  0  0  0  0  0  0  0  0  0  0
   -5.0097   13.1278  -27.2339 C   0  0  0  0  0  0  0  0  0  0  0  0
   -3.2598   12.8807  -31.8905 C   0  0  0  0  0  0  0  0  0  0  0  0
   -2.5510   13.9537  -31.0547 C   0  0  0  0  0  0  0  0  0  0  0  0
   -3.4633   14.9452  -30.5511 N   0  0  0  0  0  0  0  0  0  0  0  0
   -7.2535   10.0958  -29.0331 O   0  0  0  0  0  0  0  0  0  0  0  0
   -5.8015   12.0865  -27.8021 O   0  0  0  0  0  0  0  0  0  0  0  0
   -7.0042    9.0820  -31.9628 Br  0  0  0  0  0  0  0  0  0  0  0  0
   -4.0056   13.2416  -29.3114 H   0  0  0  0  0  0  0  0  0  0  0  0
   -4.8371   10.8956  -32.8128 H   0  0  0  0  0  0  0  0  0  0  0  0
   -4.2750   15.4039  -32.4369 H   0  0  0  0  0  0  0  0  0  0  0  0
   -4.5366   16.6462  -31.1662 H   0  0  0  0  0  0  0  0  0  0  0  0
   -2.9140   16.4519  -31.9120 H   0  0  0  0  0  0  0  0  0  0  0  0
   -5.3028   13.2827  -26.1927 H   0  0  0  0  0  0  0  0  0  0  0  0
   -5.1531   14.0486  -27.8049 H   0  0  0  0  0  0  0  0  0  0  0  0
   -3.9574   12.8366  -27.2743 H   0  0  0  0  0  0  0  0  0  0  0  0
   -3.7103   13.3656  -32.7730 H   0  0  0  0  0  0  0  0  0  0  0  0
   -2.5096   12.1810  -32.2974 H   0  0  0  0  0  0  0  0  0  0  0  0
   -2.0634   13.5026  -30.1848 H   0  0  0  0  0  0  0  0  0  0  0  0
   -1.7877   14.4750  -31.6418 H   0  0  0  0  0  0  0  0  0  0  0  0
   -3.0407   15.4465  -29.7622 H   0  0  0  0  0  0  0  0  0  0  0  0
   -7.3011   10.4391  -28.1279 H   0  0  0  0  0  0  0  0  0  0  0  0
  1  3  1  0  0  0  0
  1  4  2  0  0  0  0
  2  3  2  0  0  0  0
  2  6  1  0  0  0  0
  3  9  1  0  0  0  0
  4  5  1  0  0  0  0
  4 13  1  0  0  0  0
  5  6  2  0  0  0  0
  5 12  1  0  0  0  0
  6 14  1  0  0  0  0
  7 11  1  0  0  0  0
  8 13  1  0  0  0  0
  9 10  1  0  0  0  0
 10 11  1  0  0  0  0
  1 15  1  0  0  0  0
  2 16  1  0  0  0  0
  7 17  1  0  0  0  0
  7 18  1  0  0  0  0
  7 19  1  0  0  0  0
  8 20  1  0  0  0  0
  8 21  1  0  0  0  0
  8 22  1  0  0  0  0
  9 23  1  0  0  0  0
  9 24  1  0  0  0  0
 10 25  1  0  0  0  0
 10 26  1  0  0  0  0
 11 27  1  0  0  0  0
 12 28  1  0  0  0  0
M  END
> <id>
EN300-1896169

> <smiles>
CNCCC=1C=C(Br)C(O)=C(OC)C1

> <MDLNUMBER>
MFCD20432368

> <IUPAC Name>
2-bromo-6-methoxy-4-[2-(methylamino)ethyl]phenol

> <CAS>
1342065-90-0

> <URL>
https://www.enaminestore.com/catalog/EN300-1896169

> <ROCS_ShapeQuery>
_x1604L0AP1_x0771L0AP1

> <ROCS_TanimotoCombo>
0.880 

> <ROCS_ShapeTanimoto>
0.526 

> <ROCS_ColorTanimoto>
0.355 

> <ROCS_RefTversky>
0.475 

> <ROCS_RefColorTversky>
0.427 

> <ROCS_RefTverskyCombo>
0.902 

> <ROCS_FitTversky>
1.257 

> <ROCS_FitColorTversky>
0.677 

> <ROCS_FitTverskyCombo>
1.934 

> <ROCS_ColorScore>
-4.898

> <ROCS_Overlap>
805.367

> <ROCS_Rank>
489                 

$$$$
untitled-dbase-972_7
  -OEChem-06042309053D

 22 23  0     0  0  0  0  0  0999 V2000
   -4.7468   11.6951  -31.5021 C   0  0  0  0  0  0  0  0  0  0  0  0
   -4.7616   12.6512  -29.2834 C   0  0  0  0  0  0  0  0  0  0  0  0
   -5.7645    8.5506  -32.3925 C   0  0  0  0  0  0  0  0  0  0  0  0
   -5.7204   10.7755  -31.1123 C   0  0  0  0  0  0  0  0  0  0  0  0
   -6.2147   10.7938  -29.8081 C   0  0  0  0  0  0  0  0  0  0  0  0
   -4.2673   12.6330  -30.5876 C   0  0  0  0  0  0  0  0  0  0  0  0
   -5.7353   11.7316  -28.8936 C   0  0  0  0  0  0  0  0  0  0  0  0
   -6.2024    9.8136  -32.0773 C   0  0  0  0  0  0  0  0  0  0  0  0
   -6.6373    8.1190  -33.4092 C   0  0  0  0  0  0  0  0  0  0  0  0
   -7.5601    9.0336  -33.7192 N   0  0  0  0  0  0  0  0  0  0  0  0
   -7.2695   10.0524  -32.8923 N   0  0  0  0  0  0  0  0  0  0  0  0
   -6.5077    6.8929  -33.9781 N   0  0  0  0  0  0  0  0  0  0  0  0
   -7.1681    9.8912  -29.4309 O   0  0  0  0  0  0  0  0  0  0  0  0
   -3.0651   13.7670  -31.0683 Cl  0  0  0  0  0  0  0  0  0  0  0  0
   -6.3811   11.7899  -27.1118 Br  0  0  0  0  0  0  0  0  0  0  0  0
   -4.3588   11.6823  -32.5190 H   0  0  0  0  0  0  0  0  0  0  0  0
   -4.3848   13.3839  -28.5729 H   0  0  0  0  0  0  0  0  0  0  0  0
   -4.9326    8.0212  -31.9484 H   0  0  0  0  0  0  0  0  0  0  0  0
   -7.8452   10.8842  -32.9398 H   0  0  0  0  0  0  0  0  0  0  0  0
   -7.1688    6.5531  -34.6862 H   0  0  0  0  0  0  0  0  0  0  0  0
   -5.8018    6.2202  -33.6568 H   0  0  0  0  0  0  0  0  0  0  0  0
   -7.4074   10.0303  -28.5025 H   0  0  0  0  0  0  0  0  0  0  0  0
  1  4  2  0  0  0  0
  1  6  1  0  0  0  0
  2  6  2  0  0  0  0
  2  7  1  0  0  0  0
  3  8  2  0  0  0  0
  3  9  1  0  0  0  0
  4  5  1  0  0  0  0
  4  8  1  0  0  0  0
  5  7  2  0  0  0  0
  5 13  1  0  0  0  0
  6 14  1  0  0  0  0
  7 15  1  0  0  0  0
  8 11  1  0  0  0  0
  9 10  2  0  0  0  0
  9 12  1  0  0  0  0
 10 11  1  0  0  0  0
  1 16  1  0  0  0  0
  2 17  1  0  0  0  0
  3 18  1  0  0  0  0
 11 19  1  0  0  0  0
 12 20  1  0  0  0  0
 12 21  1  0  0  0  0
 13 22  1  0  0  0  0
M  END
> <id>
EN300-1922943

> <smiles>
NC=1C=C(NN1)C=2C=C(Cl)C=C(Br)C2O

> <IUPAC Name>
2-(3-amino-1H-pyrazol-5-yl)-6-bromo-4-chlorophenol

> <URL>
https://www.enaminestore.com/catalog/EN300-1922943

> <ROCS_ShapeQuery>
_x1604L0AP1_x0771L0AP1

> <ROCS_TanimotoCombo>
0.880 

> <ROCS_ShapeTanimoto>
0.590 

> <ROCS_ColorTanimoto>
0.291 

> <ROCS_RefTversky>
0.528 

> <ROCS_RefColorTversky>
0.403 

> <ROCS_RefTverskyCombo>
0.932 

> <ROCS_FitTversky>
1.244 

> <ROCS_FitColorTversky>
0.510 

> <ROCS_FitTverskyCombo>
1.755 

> <ROCS_ColorScore>
-4.667

> <ROCS_Overlap>
898.856

> <ROCS_Rank>
490                 

$$$$
untitled-dbase-2179_62
  -OEChem-06042309053D

 20 20  0     0  0  0  0  0  0999 V2000
   -4.6008   12.4880  -29.8478 C   0  0  0  0  0  0  0  0  0  0  0  0
   -4.3451   12.1700  -31.1816 C   0  0  0  0  0  0  0  0  0  0  0  0
   -5.5748   11.7858  -29.1378 C   0  0  0  0  0  0  0  0  0  0  0  0
   -5.0634   11.1500  -31.8055 C   0  0  0  0  0  0  0  0  0  0  0  0
   -6.2931   10.7659  -29.7617 C   0  0  0  0  0  0  0  0  0  0  0  0
   -6.0374   10.4479  -31.0955 C   0  0  0  0  0  0  0  0  0  0  0  0
   -5.7767   11.4257  -34.1972 C   0  0  0  0  0  0  0  0  0  0  0  0
   -4.7518   10.8484  -33.2362 C   0  0  0  0  0  0  0  0  0  0  0  0
   -7.0438   10.9196  -34.0755 N   0  0  0  0  0  0  0  0  0  0  0  0
   -7.2377   10.1021  -29.0363 O   0  0  0  0  0  0  0  0  0  0  0  0
   -5.3926   12.5842  -35.3406 S   0  0  0  0  0  0  0  0  0  0  0  0
   -7.0236    9.0543  -31.9359 Br  0  0  0  0  0  0  0  0  0  0  0  0
   -4.0418   13.2825  -29.3621 H   0  0  0  0  0  0  0  0  0  0  0  0
   -3.5839   12.7238  -31.7254 H   0  0  0  0  0  0  0  0  0  0  0  0
   -5.7687   12.0398  -28.0990 H   0  0  0  0  0  0  0  0  0  0  0  0
   -4.6729    9.7605  -33.3977 H   0  0  0  0  0  0  0  0  0  0  0  0
   -3.7566   11.2504  -33.4891 H   0  0  0  0  0  0  0  0  0  0  0  0
   -7.2812   10.2076  -33.3923 H   0  0  0  0  0  0  0  0  0  0  0  0
   -7.7957   11.2427  -34.6751 H   0  0  0  0  0  0  0  0  0  0  0  0
   -7.6615    9.4222  -29.5826 H   0  0  0  0  0  0  0  0  0  0  0  0
  1  2  1  0  0  0  0
  1  3  2  0  0  0  0
  2  4  2  0  0  0  0
  3  5  1  0  0  0  0
  4  6  1  0  0  0  0
  4  8  1  0  0  0  0
  5  6  2  0  0  0  0
  5 10  1  0  0  0  0
  6 12  1  0  0  0  0
  7  8  1  0  0  0  0
  7  9  1  0  0  0  0
  7 11  2  0  0  0  0
  1 13  1  0  0  0  0
  2 14  1  0  0  0  0
  3 15  1  0  0  0  0
  8 16  1  0  0  0  0
  8 17  1  0  0  0  0
  9 18  1  0  0  0  0
  9 19  1  0  0  0  0
 10 20  1  0  0  0  0
M  END
> <id>
EN300-1904632

> <smiles>
NC(=S)CC=1C=CC=C(O)C1Br

> <IUPAC Name>
2-(2-bromo-3-hydroxyphenyl)ethanethioamide

> <CAS>
2228922-33-4

> <URL>
https://www.enaminestore.com/catalog/EN300-1904632

> <ROCS_ShapeQuery>
_x1604L0AP1_x0771L0AP1

> <ROCS_TanimotoCombo>
0.880 

> <ROCS_ShapeTanimoto>
0.467 

> <ROCS_ColorTanimoto>
0.413 

> <ROCS_RefTversky>
0.423 

> <ROCS_RefColorTversky>
0.430 

> <ROCS_RefTverskyCombo>
0.852 

> <ROCS_FitTversky>
1.290 

> <ROCS_FitColorTversky>
0.915 

> <ROCS_FitTverskyCombo>
2.205 

> <ROCS_ColorScore>
-4.883

> <ROCS_Overlap>
715.496

> <ROCS_Rank>
491                 

$$$$
untitled-dbase-557_122
  -OEChem-06042309053D

 22 22  0     1  0  0  0  0  0999 V2000
   -4.6054   12.4892  -29.8591 C   0  0  0  0  0  0  0  0  0  0  0  0
   -4.3539   12.1688  -31.1931 C   0  0  0  0  0  0  0  0  0  0  0  0
   -5.5759   11.7871  -29.1442 C   0  0  0  0  0  0  0  0  0  0  0  0
   -5.0729   11.1464  -31.8124 C   0  0  0  0  0  0  0  0  0  0  0  0
   -6.2949   10.7648  -29.7634 C   0  0  0  0  0  0  0  0  0  0  0  0
   -6.0434   10.4444  -31.0975 C   0  0  0  0  0  0  0  0  0  0  0  0
   -6.7071   12.1806  -33.7188 C   0  0  0  0  0  0  0  0  0  0  0  0
   -4.7659   10.8423  -33.2435 C   0  0  0  0  0  0  0  0  0  0  0  0
   -5.9165   11.0044  -34.0933 N   0  0  2  0  0  0  0  0  0  0  0  0
   -7.2360   10.1012  -29.0334 O   0  0  0  0  0  0  0  0  0  0  0  0
   -5.3808   11.3439  -35.4061 O   0  0  0  0  0  0  0  0  0  0  0  0
   -7.0304    9.0475  -31.9316 Br  0  0  0  0  0  0  0  0  0  0  0  0
   -4.0459   13.2855  -29.3771 H   0  0  0  0  0  0  0  0  0  0  0  0
   -3.5955   12.7225  -31.7407 H   0  0  0  0  0  0  0  0  0  0  0  0
   -5.7665   12.0430  -28.1053 H   0  0  0  0  0  0  0  0  0  0  0  0
   -7.5743   12.2690  -34.3897 H   0  0  0  0  0  0  0  0  0  0  0  0
   -7.0559   12.0726  -32.6812 H   0  0  0  0  0  0  0  0  0  0  0  0
   -6.0841   13.0832  -33.8041 H   0  0  0  0  0  0  0  0  0  0  0  0
   -3.9756   11.5023  -33.6243 H   0  0  0  0  0  0  0  0  0  0  0  0
   -4.4084    9.8119  -33.3650 H   0  0  0  0  0  0  0  0  0  0  0  0
   -7.6607    9.4195  -29.5768 H   0  0  0  0  0  0  0  0  0  0  0  0
   -4.8733   12.1414  -35.1784 H   0  0  0  0  0  0  0  0  0  0  0  0
  1  2  1  0  0  0  0
  1  3  2  0  0  0  0
  2  4  2  0  0  0  0
  3  5  1  0  0  0  0
  4  6  1  0  0  0  0
  4  8  1  0  0  0  0
  5  6  2  0  0  0  0
  5 10  1  0  0  0  0
  6 12  1  0  0  0  0
  7  9  1  0  0  0  0
  8  9  1  0  0  0  0
  9 11  1  0  0  0  0
  1 13  1  0  0  0  0
  2 14  1  0  0  0  0
  3 15  1  0  0  0  0
  7 16  1  0  0  0  0
  7 17  1  0  0  0  0
  7 18  1  0  0  0  0
  8 19  1  0  0  0  0
  8 20  1  0  0  0  0
 10 21  1  0  0  0  0
 11 22  1  0  0  0  0
M  END
> <id>
EN300-1904246

> <smiles>
CN(O)CC=1C=CC=C(O)C1Br

> <IUPAC Name>
2-bromo-3-{[hydroxy(methyl)amino]methyl}phenol

> <CAS>
2229475-57-2

> <URL>
https://www.enaminestore.com/catalog/EN300-1904246

> <ROCS_ShapeQuery>
_x1604L0AP1_x0771L0AP1

> <ROCS_TanimotoCombo>
0.880 

> <ROCS_ShapeTanimoto>
0.467 

> <ROCS_ColorTanimoto>
0.413 

> <ROCS_RefTversky>
0.425 

> <ROCS_RefColorTversky>
0.430 

> <ROCS_RefTverskyCombo>
0.854 

> <ROCS_FitTversky>
1.272 

> <ROCS_FitColorTversky>
0.915 

> <ROCS_FitTverskyCombo>
2.187 

> <ROCS_ColorScore>
-4.882

> <ROCS_Overlap>
718.958

> <ROCS_Rank>
492                 

$$$$
untitled-dbase-2081_71
  -OEChem-06042309053D

 21 21  0     0  0  0  0  0  0999 V2000
   -4.5732   12.4571  -29.8174 C   0  0  0  0  0  0  0  0  0  0  0  0
   -5.5601   11.7658  -29.1147 C   0  0  0  0  0  0  0  0  0  0  0  0
   -5.0442   11.1324  -31.7822 C   0  0  0  0  0  0  0  0  0  0  0  0
   -4.3153   12.1404  -31.1511 C   0  0  0  0  0  0  0  0  0  0  0  0
   -6.2891   10.7578  -29.7458 C   0  0  0  0  0  0  0  0  0  0  0  0
   -6.0311   10.4411  -31.0795 C   0  0  0  0  0  0  0  0  0  0  0  0
   -3.2855   12.8610  -31.8829 C   0  0  0  0  0  0  0  0  0  0  0  0
   -4.1781   15.0423  -30.8994 C   0  0  0  0  0  0  0  0  0  0  0  0
   -3.4265   14.3813  -32.0443 C   0  0  0  0  0  0  0  0  0  0  0  0
   -2.2960   12.3012  -32.3848 O   0  0  0  0  0  0  0  0  0  0  0  0
   -7.2471   10.1019  -29.0314 O   0  0  0  0  0  0  0  0  0  0  0  0
   -7.0025    9.0780  -31.9692 Br  0  0  0  0  0  0  0  0  0  0  0  0
   -4.0112   13.2408  -29.3160 H   0  0  0  0  0  0  0  0  0  0  0  0
   -5.7561   12.0185  -28.0761 H   0  0  0  0  0  0  0  0  0  0  0  0
   -4.8369   10.8903  -32.8224 H   0  0  0  0  0  0  0  0  0  0  0  0
   -5.1897   14.6336  -30.8050 H   0  0  0  0  0  0  0  0  0  0  0  0
   -3.6531   14.8763  -29.9537 H   0  0  0  0  0  0  0  0  0  0  0  0
   -4.2649   16.1224  -31.0570 H   0  0  0  0  0  0  0  0  0  0  0  0
   -2.4236   14.8178  -32.1031 H   0  0  0  0  0  0  0  0  0  0  0  0
   -3.9632   14.5821  -32.9779 H   0  0  0  0  0  0  0  0  0  0  0  0
   -7.6755    9.4305  -29.5846 H   0  0  0  0  0  0  0  0  0  0  0  0
  1  2  1  0  0  0  0
  1  4  2  0  0  0  0
  2  5  2  0  0  0  0
  3  4  1  0  0  0  0
  3  6  2  0  0  0  0
  4  7  1  0  0  0  0
  5  6  1  0  0  0  0
  5 11  1  0  0  0  0
  6 12  1  0  0  0  0
  7  9  1  0  0  0  0
  7 10  2  0  0  0  0
  8  9  1  0  0  0  0
  1 13  1  0  0  0  0
  2 14  1  0  0  0  0
  3 15  1  0  0  0  0
  8 16  1  0  0  0  0
  8 17  1  0  0  0  0
  8 18  1  0  0  0  0
  9 19  1  0  0  0  0
  9 20  1  0  0  0  0
 11 21  1  0  0  0  0
M  END
> <id>
EN300-1276730

> <smiles>
CCC(=O)C=1C=CC(O)=C(Br)C1

> <MDLNUMBER>
MFCD14281585

> <IUPAC Name>
1-(3-bromo-4-hydroxyphenyl)propan-1-one

> <CAS>
18430-72-3

> <URL>
https://www.enaminestore.com/catalog/EN300-1276730

> <ROCS_ShapeQuery>
_x1604L0AP1_x0771L0AP1

> <ROCS_TanimotoCombo>
0.880 

> <ROCS_ShapeTanimoto>
0.500 

> <ROCS_ColorTanimoto>
0.380 

> <ROCS_RefTversky>
0.444 

> <ROCS_RefColorTversky>
0.427 

> <ROCS_RefTverskyCombo>
0.872 

> <ROCS_FitTversky>
1.330 

> <ROCS_FitColorTversky>
0.776 

> <ROCS_FitTverskyCombo>
2.106 

> <ROCS_ColorScore>
-4.878

> <ROCS_Overlap>
752.393

> <ROCS_Rank>
493                 

$$$$
untitled-dbase-1640_296
  -OEChem-06042309053D

 26 26  0     1  0  0  0  0  0999 V2000
   -6.4799   11.7820  -32.5212 C   0  0  0  0  0  0  0  0  0  0  0  0
   -6.9571   11.3950  -33.7734 C   0  0  0  0  0  0  0  0  0  0  0  0
   -6.0257   10.8192  -31.6198 C   0  0  0  0  0  0  0  0  0  0  0  0
   -6.9801   10.0451  -34.1243 C   0  0  0  0  0  0  0  0  0  0  0  0
   -6.5260    9.0823  -33.2229 C   0  0  0  0  0  0  0  0  0  0  0  0
   -6.0488    9.4694  -31.9707 C   0  0  0  0  0  0  0  0  0  0  0  0
   -6.5000    9.6151  -36.4135 C   0  0  0  0  0  0  0  0  0  0  0  0
   -6.6401   11.3655  -29.2395 C   0  0  0  0  0  0  0  0  0  0  0  0
   -5.5231   11.2864  -30.2916 C   0  0  2  0  0  0  0  0  0  0  0  0
   -3.0014   12.7736  -31.8149 N   0  5  0  0  0  0  0  0  0  0  0  0
   -4.8915   12.6213  -30.3799 N   0  0  0  0  0  0  0  0  0  0  0  0
   -3.9089   12.6901  -31.1290 N   0  3  0  0  0  0  0  0  0  0  0  0
   -6.5584    7.7681  -33.5895 O   0  0  0  0  0  0  0  0  0  0  0  0
   -7.2260   10.0802  -29.0626 O   0  0  0  0  0  0  0  0  0  0  0  0
   -7.4491    9.6829  -35.3511 O   0  0  0  0  0  0  0  0  0  0  0  0
   -5.4225    8.1497  -30.7503 Br  0  0  0  0  0  0  0  0  0  0  0  0
   -6.4660   12.8365  -32.2584 H   0  0  0  0  0  0  0  0  0  0  0  0
   -7.3082   12.1503  -34.4712 H   0  0  0  0  0  0  0  0  0  0  0  0
   -7.0045    9.3153  -37.3352 H   0  0  0  0  0  0  0  0  0  0  0  0
   -5.7200    8.8925  -36.1608 H   0  0  0  0  0  0  0  0  0  0  0  0
   -6.0498   10.6010  -36.5513 H   0  0  0  0  0  0  0  0  0  0  0  0
   -6.2612   11.7087  -28.2704 H   0  0  0  0  0  0  0  0  0  0  0  0
   -7.4306   12.0490  -29.5684 H   0  0  0  0  0  0  0  0  0  0  0  0
   -4.7461   10.6019  -29.9103 H   0  0  0  0  0  0  0  0  0  0  0  0
   -6.9168    7.6815  -34.4859 H   0  0  0  0  0  0  0  0  0  0  0  0
   -6.5158    9.4896  -28.7660 H   0  0  0  0  0  0  0  0  0  0  0  0
  1  2  1  0  0  0  0
  1  3  2  0  0  0  0
  2  4  2  0  0  0  0
  3  6  1  0  0  0  0
  3  9  1  0  0  0  0
  4  5  1  0  0  0  0
  4 15  1  0  0  0  0
  5  6  2  0  0  0  0
  5 13  1  0  0  0  0
  6 16  1  0  0  0  0
  7 15  1  0  0  0  0
  8  9  1  0  0  0  0
  8 14  1  0  0  0  0
  9 11  1  0  0  0  0
 10 12  2  0  0  0  0
 11 12  2  0  0  0  0
  1 17  1  0  0  0  0
  2 18  1  0  0  0  0
  7 19  1  0  0  0  0
  7 20  1  0  0  0  0
  7 21  1  0  0  0  0
  8 22  1  0  0  0  0
  8 23  1  0  0  0  0
  9 24  1  0  0  0  0
 13 25  1  0  0  0  0
 14 26  1  0  0  0  0
M  CHG  2  10  -1  12   1
M  END
> <id>
EN300-1935943

> <smiles>
COC=1C=CC(C(CO)N=[N+]=[N-])=C(Br)C1O

> <IUPAC Name>
3-(1-azido-2-hydroxyethyl)-2-bromo-6-methoxyphenol

> <CAS>
2229032-22-6

> <URL>
https://www.enaminestore.com/catalog/EN300-1935943

> <ROCS_ShapeQuery>
_x1604L0AP1_x0771L0AP1

> <ROCS_TanimotoCombo>
0.880 

> <ROCS_ShapeTanimoto>
0.606 

> <ROCS_ColorTanimoto>
0.274 

> <ROCS_RefTversky>
0.541 

> <ROCS_RefColorTversky>
0.350 

> <ROCS_RefTverskyCombo>
0.892 

> <ROCS_FitTversky>
1.248 

> <ROCS_FitColorTversky>
0.555 

> <ROCS_FitTverskyCombo>
1.803 

> <ROCS_ColorScore>
-4.018

> <ROCS_Overlap>
920.946

> <ROCS_Rank>
494                 

$$$$
untitled-dbase-363_1
  -OEChem-06042309053D

 18 18  0     0  0  0  0  0  0999 V2000
   -4.6037   12.4906  -29.8555 C   0  0  0  0  0  0  0  0  0  0  0  0
   -4.3526   12.1727  -31.1902 C   0  0  0  0  0  0  0  0  0  0  0  0
   -5.5743   11.7876  -29.1417 C   0  0  0  0  0  0  0  0  0  0  0  0
   -5.0721   11.1518  -31.8112 C   0  0  0  0  0  0  0  0  0  0  0  0
   -6.2938   10.7667  -29.7628 C   0  0  0  0  0  0  0  0  0  0  0  0
   -6.0428   10.4488  -31.0975 C   0  0  0  0  0  0  0  0  0  0  0  0
   -5.7966   11.3781  -34.2136 C   0  0  0  0  0  0  0  0  0  0  0  0
   -4.7655   10.8502  -33.2430 C   0  0  0  0  0  0  0  0  0  0  0  0
   -6.4146   10.6896  -35.0188 O   0  0  0  0  0  0  0  0  0  0  0  0
   -7.2350   10.1021  -29.0338 O   0  0  0  0  0  0  0  0  0  0  0  0
   -7.0305    9.0539  -31.9339 Br  0  0  0  0  0  0  0  0  0  0  0  0
   -4.0437   13.2859  -29.3721 H   0  0  0  0  0  0  0  0  0  0  0  0
   -3.5941   12.7271  -31.7369 H   0  0  0  0  0  0  0  0  0  0  0  0
   -5.7646   12.0416  -28.1024 H   0  0  0  0  0  0  0  0  0  0  0  0
   -5.9758   12.4661  -34.1609 H   0  0  0  0  0  0  0  0  0  0  0  0
   -4.6869    9.7653  -33.4012 H   0  0  0  0  0  0  0  0  0  0  0  0
   -3.7935   11.2768  -33.5282 H   0  0  0  0  0  0  0  0  0  0  0  0
   -7.6601    9.4217  -29.5783 H   0  0  0  0  0  0  0  0  0  0  0  0
  1  2  2  0  0  0  0
  1  3  1  0  0  0  0
  2  4  1  0  0  0  0
  3  5  2  0  0  0  0
  4  6  2  0  0  0  0
  4  8  1  0  0  0  0
  5  6  1  0  0  0  0
  5 10  1  0  0  0  0
  6 11  1  0  0  0  0
  7  8  1  0  0  0  0
  7  9  2  0  0  0  0
  1 12  1  0  0  0  0
  2 13  1  0  0  0  0
  3 14  1  0  0  0  0
  7 15  1  0  0  0  0
  8 16  1  0  0  0  0
  8 17  1  0  0  0  0
 10 18  1  0  0  0  0
M  END
> <id>
EN300-1904558

> <smiles>
OC=1C=CC=C(CC=O)C1Br

> <MDLNUMBER>
MFCD33499793

> <IUPAC Name>
2-(2-bromo-3-hydroxyphenyl)acetaldehyde

> <CAS>
2229576-67-2

> <URL>
https://www.enaminestore.com/catalog/EN300-1904558

> <ROCS_ShapeQuery>
_x1604L0AP1_x0771L0AP1

> <ROCS_TanimotoCombo>
0.880 

> <ROCS_ShapeTanimoto>
0.467 

> <ROCS_ColorTanimoto>
0.413 

> <ROCS_RefTversky>
0.417 

> <ROCS_RefColorTversky>
0.430 

> <ROCS_RefTverskyCombo>
0.847 

> <ROCS_FitTversky>
1.344 

> <ROCS_FitColorTversky>
0.915 

> <ROCS_FitTverskyCombo>
2.259 

> <ROCS_ColorScore>
-4.883

> <ROCS_Overlap>
704.908

> <ROCS_Rank>
495                 

$$$$
untitled-dbase-761_55
  -OEChem-06042309053D

 29 31  0     0  0  0  0  0  0999 V2000
   -4.6085   12.4923  -29.8563 C   0  0  0  0  0  0  0  0  0  0  0  0
   -4.3571   12.1732  -31.1906 C   0  0  0  0  0  0  0  0  0  0  0  0
   -5.5770   11.7877  -29.1412 C   0  0  0  0  0  0  0  0  0  0  0  0
   -5.0743   11.1496  -31.8100 C   0  0  0  0  0  0  0  0  0  0  0  0
   -6.2942   10.7641  -29.7606 C   0  0  0  0  0  0  0  0  0  0  0  0
   -6.0428   10.4451  -31.0950 C   0  0  0  0  0  0  0  0  0  0  0  0
   -3.6900    9.8124  -33.5041 C   0  0  0  0  0  0  0  0  0  0  0  0
   -3.4005   11.2602  -33.7496 C   0  0  0  0  0  0  0  0  0  0  0  0
   -6.4406    9.7166  -34.9527 C   0  0  0  0  0  0  0  0  0  0  0  0
   -5.8132   10.8740  -35.6735 C   0  0  0  0  0  0  0  0  0  0  0  0
   -4.7708   10.8463  -33.2439 C   0  0  0  0  0  0  0  0  0  0  0  0
   -5.9991   10.9357  -34.1737 C   0  0  0  0  0  0  0  0  0  0  0  0
   -7.0689   11.8329  -33.6602 N   0  0  0  0  0  0  0  0  0  0  0  0
   -7.2346   10.0998  -29.0302 O   0  0  0  0  0  0  0  0  0  0  0  0
   -7.0336    9.0497  -31.9289 Br  0  0  0  0  0  0  0  0  0  0  0  0
   -4.0495   13.2891  -29.3745 H   0  0  0  0  0  0  0  0  0  0  0  0
   -3.5991   12.7283  -31.7374 H   0  0  0  0  0  0  0  0  0  0  0  0
   -5.7669   12.0427  -28.1021 H   0  0  0  0  0  0  0  0  0  0  0  0
   -3.7952    9.1670  -34.3684 H   0  0  0  0  0  0  0  0  0  0  0  0
   -3.2027    9.3383  -32.6599 H   0  0  0  0  0  0  0  0  0  0  0  0
   -2.7198   11.7601  -33.0704 H   0  0  0  0  0  0  0  0  0  0  0  0
   -3.3110   11.5860  -34.7794 H   0  0  0  0  0  0  0  0  0  0  0  0
   -7.5004    9.5462  -35.1017 H   0  0  0  0  0  0  0  0  0  0  0  0
   -5.8577    8.8078  -34.8593 H   0  0  0  0  0  0  0  0  0  0  0  0
   -4.8105   10.7395  -36.0621 H   0  0  0  0  0  0  0  0  0  0  0  0
   -6.4524   11.4797  -36.3050 H   0  0  0  0  0  0  0  0  0  0  0  0
   -7.5704   12.1535  -34.4442 H   0  0  0  0  0  0  0  0  0  0  0  0
   -7.6288   11.2904  -33.0593 H   0  0  0  0  0  0  0  0  0  0  0  0
   -7.6583    9.4173  -29.5732 H   0  0  0  0  0  0  0  0  0  0  0  0
  1  2  1  0  0  0  0
  1  3  2  0  0  0  0
  2  4  2  0  0  0  0
  3  5  1  0  0  0  0
  4  6  1  0  0  0  0
  4 11  1  0  0  0  0
  5  6  2  0  0  0  0
  5 14  1  0  0  0  0
  6 15  1  0  0  0  0
  7  8  1  0  0  0  0
  7 11  1  0  0  0  0
  8 11  1  0  0  0  0
  9 10  1  0  0  0  0
  9 12  1  0  0  0  0
 10 12  1  0  0  0  0
 11 12  1  0  0  0  0
 12 13  1  0  0  0  0
  1 16  1  0  0  0  0
  2 17  1  0  0  0  0
  3 18  1  0  0  0  0
  7 19  1  0  0  0  0
  7 20  1  0  0  0  0
  8 21  1  0  0  0  0
  8 22  1  0  0  0  0
  9 23  1  0  0  0  0
  9 24  1  0  0  0  0
 10 25  1  0  0  0  0
 10 26  1  0  0  0  0
 13 27  1  0  0  0  0
 13 28  1  0  0  0  0
 14 29  1  0  0  0  0
M  END
> <id>
EN300-1904815

> <smiles>
NC1(CC1)C2(CC2)C=3C=CC=C(O)C3Br

> <IUPAC Name>
3-[1-(1-aminocyclopropyl)cyclopropyl]-2-bromophenol

> <CAS>
2229596-95-4

> <URL>
https://www.enaminestore.com/catalog/EN300-1904815

> <ROCS_ShapeQuery>
_x1604L0AP1_x0771L0AP1

> <ROCS_TanimotoCombo>
0.880 

> <ROCS_ShapeTanimoto>
0.499 

> <ROCS_ColorTanimoto>
0.381 

> <ROCS_RefTversky>
0.471 

> <ROCS_RefColorTversky>
0.428 

> <ROCS_RefTverskyCombo>
0.899 

> <ROCS_FitTversky>
1.136 

> <ROCS_FitColorTversky>
0.777 

> <ROCS_FitTverskyCombo>
1.912 

> <ROCS_ColorScore>
-4.882

> <ROCS_Overlap>
800.472

> <ROCS_Rank>
496                 

$$$$
untitled-dbase-2003_17
  -OEChem-06042309053D

 21 21  0     0  0  0  0  0  0999 V2000
   -5.0625   11.1282  -31.8032 C   0  0  0  0  0  0  0  0  0  0  0  0
   -5.5672   11.7796  -29.1379 C   0  0  0  0  0  0  0  0  0  0  0  0
   -4.3364   12.1458  -31.1844 C   0  0  0  0  0  0  0  0  0  0  0  0
   -6.2933   10.7620  -29.7567 C   0  0  0  0  0  0  0  0  0  0  0  0
   -4.5887   12.4715  -29.8518 C   0  0  0  0  0  0  0  0  0  0  0  0
   -6.0410   10.4363  -31.0893 C   0  0  0  0  0  0  0  0  0  0  0  0
   -3.3179   12.8659  -31.9325 C   0  0  0  0  0  0  0  0  0  0  0  0
   -3.4654   15.1263  -33.1116 C   0  0  0  0  0  0  0  0  0  0  0  0
   -3.7380   13.6325  -33.1946 C   0  0  0  0  0  0  0  0  0  0  0  0
   -2.1217   12.8880  -31.5963 O   0  0  0  0  0  0  0  0  0  0  0  0
   -7.2425   10.1050  -29.0315 O   0  0  0  0  0  0  0  0  0  0  0  0
   -3.8979   13.4487  -29.2475 F   0  0  0  0  0  0  0  0  0  0  0  0
   -7.0096    9.0610  -31.9626 Br  0  0  0  0  0  0  0  0  0  0  0  0
   -4.8610   10.8799  -32.8430 H   0  0  0  0  0  0  0  0  0  0  0  0
   -5.7578   12.0384  -28.0999 H   0  0  0  0  0  0  0  0  0  0  0  0
   -3.9992   15.5774  -32.2686 H   0  0  0  0  0  0  0  0  0  0  0  0
   -2.3952   15.3107  -32.9762 H   0  0  0  0  0  0  0  0  0  0  0  0
   -3.7871   15.6366  -34.0255 H   0  0  0  0  0  0  0  0  0  0  0  0
   -3.1870   13.2229  -34.0481 H   0  0  0  0  0  0  0  0  0  0  0  0
   -4.8114   13.4804  -33.3509 H   0  0  0  0  0  0  0  0  0  0  0  0
   -7.6697    9.4266  -29.5772 H   0  0  0  0  0  0  0  0  0  0  0  0
  1  3  2  0  0  0  0
  1  6  1  0  0  0  0
  2  4  1  0  0  0  0
  2  5  2  0  0  0  0
  3  5  1  0  0  0  0
  3  7  1  0  0  0  0
  4  6  2  0  0  0  0
  4 11  1  0  0  0  0
  5 12  1  0  0  0  0
  6 13  1  0  0  0  0
  7  9  1  0  0  0  0
  7 10  2  0  0  0  0
  8  9  1  0  0  0  0
  1 14  1  0  0  0  0
  2 15  1  0  0  0  0
  8 16  1  0  0  0  0
  8 17  1  0  0  0  0
  8 18  1  0  0  0  0
  9 19  1  0  0  0  0
  9 20  1  0  0  0  0
 11 21  1  0  0  0  0
M  END
> <id>
EN300-1276577

> <smiles>
CCC(=O)C=1C=C(Br)C(O)=CC1F

> <MDLNUMBER>
MFCD24122857

> <IUPAC Name>
1-(5-bromo-2-fluoro-4-hydroxyphenyl)propan-1-one

> <CAS>
1541607-36-6

> <URL>
https://www.enaminestore.com/catalog/EN300-1276577

> <ROCS_ShapeQuery>
_x1604L0AP1_x0771L0AP1

> <ROCS_TanimotoCombo>
0.880 

> <ROCS_ShapeTanimoto>
0.499 

> <ROCS_ColorTanimoto>
0.381 

> <ROCS_RefTversky>
0.453 

> <ROCS_RefColorTversky>
0.427 

> <ROCS_RefTverskyCombo>
0.881 

> <ROCS_FitTversky>
1.253 

> <ROCS_FitColorTversky>
0.776 

> <ROCS_FitTverskyCombo>
2.029 

> <ROCS_ColorScore>
-4.879

> <ROCS_Overlap>
768.701

> <ROCS_Rank>
497                 

$$$$
untitled-dbase-2000_84
  -OEChem-06042309053D

 30 30  0     0  0  0  0  0  0999 V2000
   -5.0833   11.2798  -31.7851 C   0  0  0  0  0  0  0  0  0  0  0  0
   -4.5042   12.4488  -29.7516 C   0  0  0  0  0  0  0  0  0  0  0  0
   -6.0669   10.5696  -31.0967 C   0  0  0  0  0  0  0  0  0  0  0  0
   -4.3019   12.2194  -31.1125 C   0  0  0  0  0  0  0  0  0  0  0  0
   -6.2692   10.7991  -29.7358 C   0  0  0  0  0  0  0  0  0  0  0  0
   -5.4878   11.7387  -29.0632 C   0  0  0  0  0  0  0  0  0  0  0  0
   -6.8832    9.5726  -31.8344 C   0  0  0  0  0  0  0  0  0  0  0  0
   -7.2525    7.6848  -33.9325 C   0  0  0  0  0  0  0  0  0  0  0  0
   -6.7657    9.5998  -35.4834 C   0  0  0  0  0  0  0  0  0  0  0  0
   -5.0131    8.8310  -33.8569 C   0  0  0  0  0  0  0  0  0  0  0  0
   -6.5113    9.0107  -34.0976 C   0  0  0  0  0  0  0  0  0  0  0  0
   -3.3076   12.9373  -31.8090 N   0  0  0  0  0  0  0  0  0  0  0  0
   -7.3540    8.5742  -31.3122 O   0  0  0  0  0  0  0  0  0  0  0  0
   -7.2342   10.0968  -29.0731 O   0  0  0  0  0  0  0  0  0  0  0  0
   -7.0182    9.9374  -33.1365 O   0  0  0  0  0  0  0  0  0  0  0  0
   -5.7321   12.0787  -27.2140 Br  0  0  0  0  0  0  0  0  0  0  0  0
   -4.9230   11.1005  -32.8462 H   0  0  0  0  0  0  0  0  0  0  0  0
   -3.8921   13.1850  -29.2348 H   0  0  0  0  0  0  0  0  0  0  0  0
   -7.0724    7.2587  -32.9391 H   0  0  0  0  0  0  0  0  0  0  0  0
   -8.3321    7.8066  -34.0682 H   0  0  0  0  0  0  0  0  0  0  0  0
   -6.8942    6.9438  -34.6562 H   0  0  0  0  0  0  0  0  0  0  0  0
   -6.2358   10.5512  -35.6062 H   0  0  0  0  0  0  0  0  0  0  0  0
   -7.8303    9.8189  -35.6249 H   0  0  0  0  0  0  0  0  0  0  0  0
   -6.4435    8.9184  -36.2774 H   0  0  0  0  0  0  0  0  0  0  0  0
   -4.4812    9.7820  -33.9752 H   0  0  0  0  0  0  0  0  0  0  0  0
   -4.8094    8.4437  -32.8534 H   0  0  0  0  0  0  0  0  0  0  0  0
   -4.5805    8.1414  -34.5908 H   0  0  0  0  0  0  0  0  0  0  0  0
   -2.7863   13.6414  -31.3269 H   0  0  0  0  0  0  0  0  0  0  0  0
   -3.2048   12.7975  -32.7938 H   0  0  0  0  0  0  0  0  0  0  0  0
   -7.6807    9.4896  -29.6823 H   0  0  0  0  0  0  0  0  0  0  0  0
  1  3  2  0  0  0  0
  1  4  1  0  0  0  0
  2  4  2  0  0  0  0
  2  6  1  0  0  0  0
  3  5  1  0  0  0  0
  3  7  1  0  0  0  0
  4 12  1  0  0  0  0
  5  6  2  0  0  0  0
  5 14  1  0  0  0  0
  6 16  1  0  0  0  0
  7 13  2  0  0  0  0
  7 15  1  0  0  0  0
  8 11  1  0  0  0  0
  9 11  1  0  0  0  0
 10 11  1  0  0  0  0
 11 15  1  0  0  0  0
  1 17  1  0  0  0  0
  2 18  1  0  0  0  0
  8 19  1  0  0  0  0
  8 20  1  0  0  0  0
  8 21  1  0  0  0  0
  9 22  1  0  0  0  0
  9 23  1  0  0  0  0
  9 24  1  0  0  0  0
 10 25  1  0  0  0  0
 10 26  1  0  0  0  0
 10 27  1  0  0  0  0
 12 28  1  0  0  0  0
 12 29  1  0  0  0  0
 14 30  1  0  0  0  0
M  END
> <id>
EN300-27727461

> <smiles>
CC(C)(C)OC(=O)C=1C=C(N)C=C(Br)C1O

> <IUPAC Name>
tert-butyl 5-amino-3-bromo-2-hydroxybenzoate

> <CAS>
2580214-97-5

> <URL>
https://www.enaminestore.com/catalog/EN300-27727461

> <ROCS_ShapeQuery>
_x1604L0AP1_x0771L0AP1

> <ROCS_TanimotoCombo>
0.880 

> <ROCS_ShapeTanimoto>
0.634 

> <ROCS_ColorTanimoto>
0.246 

> <ROCS_RefTversky>
0.558 

> <ROCS_RefColorTversky>
0.338 

> <ROCS_RefTverskyCombo>
0.896 

> <ROCS_FitTversky>
1.273 

> <ROCS_FitColorTversky>
0.475 

> <ROCS_FitTverskyCombo>
1.748 

> <ROCS_ColorScore>
-3.887

> <ROCS_Overlap>
949.798

> <ROCS_Rank>
498                 

$$$$
untitled-dbase-423_774
  -OEChem-06042309053D

 27 27  0     1  0  0  0  0  0999 V2000
   -5.1679   11.3100  -31.8141 C   0  0  0  0  0  0  0  0  0  0  0  0
   -4.4922   12.4109  -29.7725 C   0  0  0  0  0  0  0  0  0  0  0  0
   -4.3445   12.2160  -31.1458 C   0  0  0  0  0  0  0  0  0  0  0  0
   -6.1392   10.5989  -31.1092 C   0  0  0  0  0  0  0  0  0  0  0  0
   -6.2869   10.7938  -29.7360 C   0  0  0  0  0  0  0  0  0  0  0  0
   -5.4634   11.6998  -29.0676 C   0  0  0  0  0  0  0  0  0  0  0  0
   -6.6793    9.9114  -34.1484 C   0  0  0  0  0  0  0  0  0  0  0  0
   -2.2510   12.0717  -32.5405 C   0  0  0  0  0  0  0  0  0  0  0  0
   -6.3766    9.0776  -32.9217 C   0  0  0  0  0  0  0  0  0  0  0  0
   -3.3057   12.9753  -31.8996 C   0  0  2  0  0  0  0  0  0  0  0  0
   -7.2419   10.0882  -29.0638 O   0  0  0  0  0  0  0  0  0  0  0  0
   -2.6404   13.8734  -31.0040 O   0  0  0  0  0  0  0  0  0  0  0  0
   -6.9354    9.7171  -31.7759 O   0  0  0  0  0  0  0  0  0  0  0  0
   -5.6342   11.9915  -27.2022 Br  0  0  0  0  0  0  0  0  0  0  0  0
   -5.0545   11.1560  -32.8846 H   0  0  0  0  0  0  0  0  0  0  0  0
   -3.8450   13.1194  -29.2601 H   0  0  0  0  0  0  0  0  0  0  0  0
   -7.7582   10.0111  -34.2960 H   0  0  0  0  0  0  0  0  0  0  0  0
   -6.2415   10.9106  -34.0537 H   0  0  0  0  0  0  0  0  0  0  0  0
   -6.2412    9.4555  -35.0425 H   0  0  0  0  0  0  0  0  0  0  0  0
   -1.7773   11.4272  -31.7932 H   0  0  0  0  0  0  0  0  0  0  0  0
   -1.4697   12.6595  -33.0353 H   0  0  0  0  0  0  0  0  0  0  0  0
   -2.6983   11.4382  -33.3145 H   0  0  0  0  0  0  0  0  0  0  0  0
   -5.2960    8.9818  -32.7799 H   0  0  0  0  0  0  0  0  0  0  0  0
   -6.8154    8.0800  -33.0177 H   0  0  0  0  0  0  0  0  0  0  0  0
   -3.7470   13.5988  -32.6959 H   0  0  0  0  0  0  0  0  0  0  0  0
   -7.7197    9.5079  -29.6759 H   0  0  0  0  0  0  0  0  0  0  0  0
   -1.9795   14.3414  -31.5339 H   0  0  0  0  0  0  0  0  0  0  0  0
  1  3  1  0  0  0  0
  1  4  2  0  0  0  0
  2  3  2  0  0  0  0
  2  6  1  0  0  0  0
  3 10  1  0  0  0  0
  4  5  1  0  0  0  0
  4 13  1  0  0  0  0
  5  6  2  0  0  0  0
  5 11  1  0  0  0  0
  6 14  1  0  0  0  0
  7  9  1  0  0  0  0
  8 10  1  6  0  0  0
  9 13  1  0  0  0  0
 10 12  1  0  0  0  0
  1 15  1  0  0  0  0
  2 16  1  0  0  0  0
  7 17  1  0  0  0  0
  7 18  1  0  0  0  0
  7 19  1  0  0  0  0
  8 20  1  0  0  0  0
  8 21  1  0  0  0  0
  8 22  1  0  0  0  0
  9 23  1  0  0  0  0
  9 24  1  0  0  0  0
 10 25  1  0  0  0  0
 11 26  1  0  0  0  0
 12 27  1  0  0  0  0
M  END
> <id>
EN300-1920212

> <smiles>
CCOC=1C=C(C=C(Br)C1O)[C@H](C)O

> <IUPAC Name>
2-bromo-6-ethoxy-4-[(1S)-1-hydroxyethyl]phenol

> <CAS>
2227780-70-1

> <URL>
https://www.enaminestore.com/catalog/EN300-1920212

> <ROCS_ShapeQuery>
_x1604L0AP1_x0771L0AP1

> <ROCS_TanimotoCombo>
0.879 

> <ROCS_ShapeTanimoto>
0.617 

> <ROCS_ColorTanimoto>
0.262 

> <ROCS_RefTversky>
0.527 

> <ROCS_RefColorTversky>
0.339 

> <ROCS_RefTverskyCombo>
0.866 

> <ROCS_FitTversky>
1.384 

> <ROCS_FitColorTversky>
0.537 

> <ROCS_FitTverskyCombo>
1.921 

> <ROCS_ColorScore>
-3.886

> <ROCS_Overlap>
894.218

> <ROCS_Rank>
499                 

$$$$
untitled-dbase-173_145
  -OEChem-06042309053D

 24 24  0     0  0  0  0  0  0999 V2000
   -5.0519   11.1278  -31.7939 C   0  0  0  0  0  0  0  0  0  0  0  0
   -5.5601   11.7709  -29.1273 C   0  0  0  0  0  0  0  0  0  0  0  0
   -4.3226   12.1395  -31.1694 C   0  0  0  0  0  0  0  0  0  0  0  0
   -6.2894   10.7592  -29.7520 C   0  0  0  0  0  0  0  0  0  0  0  0
   -4.5766   12.4611  -29.8361 C   0  0  0  0  0  0  0  0  0  0  0  0
   -6.0354   10.4377  -31.0853 C   0  0  0  0  0  0  0  0  0  0  0  0
   -3.2934   12.8402  -31.9570 C   0  0  0  0  0  0  0  0  0  0  0  0
   -5.7112   14.1240  -33.2125 C   0  0  0  0  0  0  0  0  0  0  0  0
   -3.4393   14.3491  -32.1446 C   0  0  0  0  0  0  0  0  0  0  0  0
   -4.8979   14.8068  -32.1247 C   0  0  0  0  0  0  0  0  0  0  0  0
   -2.3349   12.2493  -32.4581 O   0  0  0  0  0  0  0  0  0  0  0  0
   -7.2434   10.1030  -29.0324 O   0  0  0  0  0  0  0  0  0  0  0  0
   -3.6966   13.7064  -29.0261 Cl  0  0  0  0  0  0  0  0  0  0  0  0
   -7.0074    9.0682  -31.9650 Br  0  0  0  0  0  0  0  0  0  0  0  0
   -4.8498   10.8804  -32.8341 H   0  0  0  0  0  0  0  0  0  0  0  0
   -5.7649   12.0146  -28.0872 H   0  0  0  0  0  0  0  0  0  0  0  0
   -5.6782   13.0354  -33.1021 H   0  0  0  0  0  0  0  0  0  0  0  0
   -5.3123   14.3775  -34.1996 H   0  0  0  0  0  0  0  0  0  0  0  0
   -6.7580   14.4418  -33.1774 H   0  0  0  0  0  0  0  0  0  0  0  0
   -2.9911   14.6237  -33.1064 H   0  0  0  0  0  0  0  0  0  0  0  0
   -2.8956   14.8530  -31.3372 H   0  0  0  0  0  0  0  0  0  0  0  0
   -4.9508   15.8933  -32.2626 H   0  0  0  0  0  0  0  0  0  0  0  0
   -5.3457   14.5879  -31.1480 H   0  0  0  0  0  0  0  0  0  0  0  0
   -7.6721    9.4290  -29.5823 H   0  0  0  0  0  0  0  0  0  0  0  0
  1  3  2  0  0  0  0
  1  6  1  0  0  0  0
  2  4  1  0  0  0  0
  2  5  2  0  0  0  0
  3  5  1  0  0  0  0
  3  7  1  0  0  0  0
  4  6  2  0  0  0  0
  4 12  1  0  0  0  0
  5 13  1  0  0  0  0
  6 14  1  0  0  0  0
  7  9  1  0  0  0  0
  7 11  2  0  0  0  0
  8 10  1  0  0  0  0
  9 10  1  0  0  0  0
  1 15  1  0  0  0  0
  2 16  1  0  0  0  0
  8 17  1  0  0  0  0
  8 18  1  0  0  0  0
  8 19  1  0  0  0  0
  9 20  1  0  0  0  0
  9 21  1  0  0  0  0
 10 22  1  0  0  0  0
 10 23  1  0  0  0  0
 12 24  1  0  0  0  0
M  END
> <id>
EN300-1276759

> <smiles>
CCCC(=O)C=1C=C(Br)C(O)=CC1Cl

> <IUPAC Name>
1-(5-bromo-2-chloro-4-hydroxyphenyl)butan-1-one

> <CAS>
2163722-30-1

> <URL>
https://www.enaminestore.com/catalog/EN300-1276759

> <ROCS_ShapeQuery>
_x1604L0AP1_x0771L0AP1

> <ROCS_TanimotoCombo>
0.879 

> <ROCS_ShapeTanimoto>
0.499 

> <ROCS_ColorTanimoto>
0.381 

> <ROCS_RefTversky>
0.457 

> <ROCS_RefColorTversky>
0.427 

> <ROCS_RefTverskyCombo>
0.885 

> <ROCS_FitTversky>
1.221 

> <ROCS_FitColorTversky>
0.776 

> <ROCS_FitTverskyCombo>
1.997 

> <ROCS_ColorScore>
-4.879

> <ROCS_Overlap>
775.953

> <ROCS_Rank>
500                 

$$$$
