untitled-dbase-66921_117
  -OEChem-06232314393D

 18 18  0     0  0  0  0  0  0999 V2000
   -7.1976    6.0569  -36.6658 C   0  0  0  0  0  0  0  0  0  0  0  0
   -5.1723    5.6024  -36.1049 C   0  0  0  0  0  0  0  0  0  0  0  0
   -6.1487    6.7481  -35.7709 C   0  0  0  0  0  0  0  0  0  0  0  0
   -6.3863    4.7414  -36.5410 C   0  0  0  0  0  0  0  0  0  0  0  0
   -6.2012    3.9922  -37.8517 C   0  0  0  0  0  0  0  0  0  0  0  0
   -6.4985    6.8821  -34.3798 O   0  0  0  0  0  0  0  0  0  0  0  0
   -6.8788    3.8274  -35.5357 O   0  0  0  0  0  0  0  0  0  0  0  0
   -5.5210    4.8363  -38.7633 O   0  0  0  0  0  0  0  0  0  0  0  0
   -8.1989    6.0078  -36.2227 H   0  0  0  0  0  0  0  0  0  0  0  0
   -7.2868    6.4699  -37.6747 H   0  0  0  0  0  0  0  0  0  0  0  0
   -4.4436    5.8308  -36.8878 H   0  0  0  0  0  0  0  0  0  0  0  0
   -4.6342    5.2075  -35.2356 H   0  0  0  0  0  0  0  0  0  0  0  0
   -5.8212    7.7140  -36.1735 H   0  0  0  0  0  0  0  0  0  0  0  0
   -7.1724    3.7222  -38.2684 H   0  0  0  0  0  0  0  0  0  0  0  0
   -5.6098    3.0907  -37.6871 H   0  0  0  0  0  0  0  0  0  0  0  0
   -5.7502    7.3278  -33.9612 H   0  0  0  0  0  0  0  0  0  0  0  0
   -6.8291    4.3098  -34.7018 H   0  0  0  0  0  0  0  0  0  0  0  0
   -5.4153    4.3361  -39.5903 H   0  0  0  0  0  0  0  0  0  0  0  0
  1  3  1  0  0  0  0
  1  4  1  0  0  0  0
  2  3  1  0  0  0  0
  2  4  1  0  0  0  0
  3  6  1  0  0  0  0
  4  5  1  0  0  0  0
  4  7  1  0  0  0  0
  5  8  1  0  0  0  0
  1  9  1  0  0  0  0
  1 10  1  0  0  0  0
  2 11  1  0  0  0  0
  2 12  1  0  0  0  0
  3 13  1  0  0  0  0
  5 14  1  0  0  0  0
  5 15  1  0  0  0  0
  6 16  1  0  0  0  0
  7 17  1  0  0  0  0
  8 18  1  0  0  0  0
M  END
> <id>
EN300-30845836

> <smiles>
OCC1(O)CC(O)C1

> <IUPAC Name>
1-(hydroxymethyl)cyclobutane-1,3-diol

> <URL>
https://www.enaminestore.com/catalog/EN300-30845836

> <ROCS_ShapeQuery>
hit0

> <ROCS_TanimotoCombo>
1.373 

> <ROCS_ShapeTanimoto>
0.519 

> <ROCS_ColorTanimoto>
0.854 

> <ROCS_RefTversky>
1.240 

> <ROCS_RefColorTversky>
0.990 

> <ROCS_RefTverskyCombo>
2.230 

> <ROCS_FitTversky>
0.472 

> <ROCS_FitColorTversky>
0.861 

> <ROCS_FitTverskyCombo>
1.333 

> <ROCS_ColorScore>
-5.989

> <ROCS_Overlap>
147.854

> <ROCS_Rank>
1                   

$$$$
untitled-dbase-155064_1
  -OEChem-06232314393D

 14 13  0     1  0  0  0  0  0999 V2000
   -5.7104    4.8677  -37.5345 C   0  0  0  0  0  0  0  0  0  0  0  0
   -4.5086    4.8263  -35.3811 C   0  0  0  0  0  0  0  0  0  0  0  0
   -6.3941    6.4722  -35.7831 C   0  0  0  0  0  0  0  0  0  0  0  0
   -5.8475    5.0711  -36.0800 C   0  0  1  0  0  0  0  0  0  0  0  0
   -5.6034    4.7073  -38.6789 N   0  0  0  0  0  0  0  0  0  0  0  0
   -6.5567    6.6754  -34.3864 O   0  0  0  0  0  0  0  0  0  0  0  0
   -6.8011    4.1366  -35.5681 O   0  0  0  0  0  0  0  0  0  0  0  0
   -4.6025    4.9756  -34.2994 H   0  0  0  0  0  0  0  0  0  0  0  0
   -4.1748    3.7911  -35.5234 H   0  0  0  0  0  0  0  0  0  0  0  0
   -3.7187    5.4857  -35.7566 H   0  0  0  0  0  0  0  0  0  0  0  0
   -5.7237    7.2468  -36.1750 H   0  0  0  0  0  0  0  0  0  0  0  0
   -7.3669    6.6137  -36.2688 H   0  0  0  0  0  0  0  0  0  0  0  0
   -6.9031    7.5754  -34.2721 H   0  0  0  0  0  0  0  0  0  0  0  0
   -6.8606    4.3034  -34.6160 H   0  0  0  0  0  0  0  0  0  0  0  0
  1  4  1  0  0  0  0
  1  5  3  0  0  0  0
  2  4  1  0  0  0  0
  3  4  1  0  0  0  0
  3  6  1  0  0  0  0
  4  7  1  0  0  0  0
  2  8  1  0  0  0  0
  2  9  1  0  0  0  0
  2 10  1  0  0  0  0
  3 11  1  0  0  0  0
  3 12  1  0  0  0  0
  6 13  1  0  0  0  0
  7 14  1  0  0  0  0
M  END
> <id>
EN300-3432041

> <smiles>
CC(O)(CO)C#N

> <MDLNUMBER>
MFCD32722470

> <IUPAC Name>
2,3-dihydroxy-2-methylpropanenitrile

> <CAS>
114983-36-7

> <Purity>
95

> <URL>
https://www.enaminestore.com/catalog/EN300-3432041

> <ROCS_ShapeQuery>
hit0

> <ROCS_TanimotoCombo>
1.256 

> <ROCS_ShapeTanimoto>
0.531 

> <ROCS_ColorTanimoto>
0.725 

> <ROCS_RefTversky>
1.133 

> <ROCS_RefColorTversky>
0.777 

> <ROCS_RefTverskyCombo>
1.910 

> <ROCS_FitTversky>
0.500 

> <ROCS_FitColorTversky>
0.915 

> <ROCS_FitTverskyCombo>
1.415 

> <ROCS_ColorScore>
-4.624

> <ROCS_Overlap>
132.229

> <ROCS_Rank>
2                   

$$$$
untitled-dbase-177614_40
  -OEChem-06232314393D

 18 18  0     1  0  0  0  0  0999 V2000
   -5.4149    5.3827  -36.4475 C   0  0  0  0  0  0  0  0  0  0  0  0
   -6.7342    3.5562  -37.0949 C   0  0  0  0  0  0  0  0  0  0  0  0
   -6.2668    4.9042  -37.5981 C   0  0  2  0  0  0  0  0  0  0  0  0
   -6.1647    4.8513  -35.2362 C   0  0  1  0  0  0  0  0  0  0  0  0
   -7.1797    5.8421  -34.6832 C   0  0  0  0  0  0  0  0  0  0  0  0
   -6.8714    3.6757  -35.6732 O   0  0  0  0  0  0  0  0  0  0  0  0
   -5.5224    4.8005  -38.7926 O   0  0  0  0  0  0  0  0  0  0  0  0
   -6.5000    7.0216  -34.2839 O   0  0  0  0  0  0  0  0  0  0  0  0
   -4.3811    5.0153  -36.4768 H   0  0  0  0  0  0  0  0  0  0  0  0
   -5.3929    6.4821  -36.4376 H   0  0  0  0  0  0  0  0  0  0  0  0
   -7.7224    3.3070  -37.4940 H   0  0  0  0  0  0  0  0  0  0  0  0
   -6.0386    2.7423  -37.3156 H   0  0  0  0  0  0  0  0  0  0  0  0
   -7.1261    5.5933  -37.7945 H   0  0  0  0  0  0  0  0  0  0  0  0
   -5.4787    4.5506  -34.4498 H   0  0  0  0  0  0  0  0  0  0  0  0
   -7.6926    5.4178  -33.8161 H   0  0  0  0  0  0  0  0  0  0  0  0
   -7.9169    6.0994  -35.4481 H   0  0  0  0  0  0  0  0  0  0  0  0
   -5.1794    5.6877  -38.9844 H   0  0  0  0  0  0  0  0  0  0  0  0
   -7.1721    7.6315  -33.9370 H   0  0  0  0  0  0  0  0  0  0  0  0
  1  3  1  0  0  0  0
  1  4  1  0  0  0  0
  2  3  1  0  0  0  0
  2  6  1  0  0  0  0
  3  7  1  1  0  0  0
  4  5  1  6  0  0  0
  4  6  1  0  0  0  0
  5  8  1  0  0  0  0
  1  9  1  0  0  0  0
  1 10  1  0  0  0  0
  2 11  1  0  0  0  0
  2 12  1  0  0  0  0
  3 13  1  0  0  0  0
  4 14  1  0  0  0  0
  5 15  1  0  0  0  0
  5 16  1  0  0  0  0
  7 17  1  0  0  0  0
  8 18  1  0  0  0  0
M  END
> <id>
EN300-19634333

> <smiles>
OC[C@@H]1C[C@@H](O)CO1

> <MDLNUMBER>
MFCD11226858

> <IUPAC Name>
(3R,5S)-5-(hydroxymethyl)oxolan-3-ol

> <CAS>
259539-06-5

> <Purity>
95

> <URL>
https://www.enaminestore.com/catalog/EN300-19634333

> <ROCS_ShapeQuery>
hit0

> <ROCS_TanimotoCombo>
1.202 

> <ROCS_ShapeTanimoto>
0.503 

> <ROCS_ColorTanimoto>
0.699 

> <ROCS_RefTversky>
1.229 

> <ROCS_RefColorTversky>
0.823 

> <ROCS_RefTverskyCombo>
2.052 

> <ROCS_FitTversky>
0.460 

> <ROCS_FitColorTversky>
0.823 

> <ROCS_FitTverskyCombo>
1.283 

> <ROCS_ColorScore>
-4.937

> <ROCS_Overlap>
146.923

> <ROCS_Rank>
3                   

$$$$
untitled-dbase-54136_1
  -OEChem-06232314393D

 10  9  0     0  0  0  0  0  0999 V2000
   -6.9532    7.7186  -36.3424 C   0  0  0  0  0  0  0  0  0  0  0  0
   -6.0099    4.9196  -37.5576 C   0  0  0  0  0  0  0  0  0  0  0  0
   -6.6561    6.5134  -35.6252 C   0  0  0  0  0  0  0  0  0  0  0  0
   -6.4942    5.1752  -36.2326 C   0  0  0  0  0  0  0  0  0  0  0  0
   -7.1940    8.6914  -36.9274 N   0  0  0  0  0  0  0  0  0  0  0  0
   -5.6173    4.7185  -38.6308 N   0  0  0  0  0  0  0  0  0  0  0  0
   -6.5461    6.7044  -34.3563 N   0  0  0  0  0  0  0  0  0  0  0  0
   -6.7799    4.0956  -35.5908 N   0  0  0  0  0  0  0  0  0  0  0  0
   -6.3434    5.8219  -33.8748 H   0  0  0  0  0  0  0  0  0  0  0  0
   -7.1137    4.3150  -34.6461 H   0  0  0  0  0  0  0  0  0  0  0  0
  1  3  1  0  0  0  0
  1  5  3  0  0  0  0
  2  4  1  0  0  0  0
  2  6  3  0  0  0  0
  3  4  1  0  0  0  0
  3  7  2  0  0  0  0
  4  8  2  0  0  0  0
  7  9  1  0  0  0  0
  8 10  1  0  0  0  0
M  END
> <id>
EN300-250645

> <smiles>
N=C(C#N)C(=N)C#N

> <MDLNUMBER>
MFCD13182388

> <IUPAC Name>
ethanedicarbonimidoyl dicyanide

> <CAS>
28321-79-1

> <Purity>
95

> <URL>
https://www.enaminestore.com/catalog/EN300-250645

> <MP>
165-166

> <ROCS_ShapeQuery>
hit0

> <ROCS_TanimotoCombo>
1.201 

> <ROCS_ShapeTanimoto>
0.563 

> <ROCS_ColorTanimoto>
0.638 

> <ROCS_RefTversky>
1.306 

> <ROCS_RefColorTversky>
0.779 

> <ROCS_RefTverskyCombo>
2.085 

> <ROCS_FitTversky>
0.497 

> <ROCS_FitColorTversky>
0.779 

> <ROCS_FitTverskyCombo>
1.276 

> <ROCS_ColorScore>
-4.676

> <ROCS_Overlap>
155.747

> <ROCS_Rank>
4                   

$$$$
untitled-dbase-55453_7
  -OEChem-06232314393D

 13 12  0     1  0  0  0  0  0999 V2000
   -5.9848    4.8450  -37.5592 C   0  0  0  0  0  0  0  0  0  0  0  0
   -5.7395    6.1096  -35.3980 C   0  0  0  0  0  0  0  0  0  0  0  0
   -6.6330    5.1976  -36.2290 C   0  0  2  0  0  0  0  0  0  0  0  0
   -6.5309    6.7509  -34.4034 O   0  0  0  0  0  0  0  0  0  0  0  0
   -6.8567    3.9966  -35.4920 O   0  0  0  0  0  0  0  0  0  0  0  0
   -5.0096    4.3731  -37.3975 H   0  0  0  0  0  0  0  0  0  0  0  0
   -6.6110    4.1581  -38.1369 H   0  0  0  0  0  0  0  0  0  0  0  0
   -5.8032    5.7443  -38.1579 H   0  0  0  0  0  0  0  0  0  0  0  0
   -4.9561    5.5394  -34.8878 H   0  0  0  0  0  0  0  0  0  0  0  0
   -5.2812    6.8852  -36.0195 H   0  0  0  0  0  0  0  0  0  0  0  0
   -7.6084    5.6696  -36.3906 H   0  0  0  0  0  0  0  0  0  0  0  0
   -6.9154    6.0468  -33.8578 H   0  0  0  0  0  0  0  0  0  0  0  0
   -7.2686    4.2605  -34.6552 H   0  0  0  0  0  0  0  0  0  0  0  0
  1  3  1  1  0  0  0
  2  3  1  0  0  0  0
  2  4  1  0  0  0  0
  3  5  1  0  0  0  0
  1  6  1  0  0  0  0
  1  7  1  0  0  0  0
  1  8  1  0  0  0  0
  2  9  1  0  0  0  0
  2 10  1  0  0  0  0
  3 11  1  0  0  0  0
  4 12  1  0  0  0  0
  5 13  1  0  0  0  0
M  END
> <id>
EN300-201235

> <smiles>
C[C@@H](O)CO

> <MDLNUMBER>
MFCD00066248

> <IUPAC Name>
(2R)-propane-1,2-diol

> <CAS>
4254-14-2

> <Purity>
95

> <URL>
https://www.enaminestore.com/catalog/EN300-201235

> <ROCS_ShapeQuery>
hit0

> <ROCS_TanimotoCombo>
1.186 

> <ROCS_ShapeTanimoto>
0.558 

> <ROCS_ColorTanimoto>
0.628 

> <ROCS_RefTversky>
0.921 

> <ROCS_RefColorTversky>
0.654 

> <ROCS_RefTverskyCombo>
1.576 

> <ROCS_FitTversky>
0.586 

> <ROCS_FitColorTversky>
0.941 

> <ROCS_FitTverskyCombo>
1.527 

> <ROCS_ColorScore>
-3.859

> <ROCS_Overlap>
103.226

> <ROCS_Rank>
5                   

$$$$
untitled-dbase-122307_7
  -OEChem-06232314393D

 13 12  0     1  0  0  0  0  0999 V2000
   -5.9848    4.8450  -37.5592 C   0  0  0  0  0  0  0  0  0  0  0  0
   -5.7395    6.1096  -35.3980 C   0  0  0  0  0  0  0  0  0  0  0  0
   -6.6330    5.1976  -36.2290 C   0  0  2  0  0  0  0  0  0  0  0  0
   -6.5309    6.7509  -34.4034 O   0  0  0  0  0  0  0  0  0  0  0  0
   -6.8567    3.9966  -35.4920 O   0  0  0  0  0  0  0  0  0  0  0  0
   -5.0096    4.3731  -37.3975 H   0  0  0  0  0  0  0  0  0  0  0  0
   -6.6110    4.1581  -38.1369 H   0  0  0  0  0  0  0  0  0  0  0  0
   -5.8032    5.7443  -38.1579 H   0  0  0  0  0  0  0  0  0  0  0  0
   -4.9561    5.5394  -34.8878 H   0  0  0  0  0  0  0  0  0  0  0  0
   -5.2812    6.8852  -36.0195 H   0  0  0  0  0  0  0  0  0  0  0  0
   -7.6084    5.6696  -36.3906 H   0  0  0  0  0  0  0  0  0  0  0  0
   -6.9154    6.0468  -33.8578 H   0  0  0  0  0  0  0  0  0  0  0  0
   -7.2686    4.2605  -34.6552 H   0  0  0  0  0  0  0  0  0  0  0  0
  1  3  1  0  0  0  0
  2  3  1  0  0  0  0
  2  4  1  0  0  0  0
  3  5  1  0  0  0  0
  1  6  1  0  0  0  0
  1  7  1  0  0  0  0
  1  8  1  0  0  0  0
  2  9  1  0  0  0  0
  2 10  1  0  0  0  0
  3 11  1  0  0  0  0
  4 12  1  0  0  0  0
  5 13  1  0  0  0  0
M  END
> <id>
EN300-21726

> <smiles>
CC(O)CO

> <MDLNUMBER>
MFCD00064272

> <IUPAC Name>
propane-1,2-diol

> <CAS>
57-55-6

> <Purity>
95

> <URL>
https://www.enaminestore.com/catalog/EN300-21726

> <ROCS_ShapeQuery>
hit0

> <ROCS_TanimotoCombo>
1.186 

> <ROCS_ShapeTanimoto>
0.558 

> <ROCS_ColorTanimoto>
0.628 

> <ROCS_RefTversky>
0.921 

> <ROCS_RefColorTversky>
0.654 

> <ROCS_RefTverskyCombo>
1.576 

> <ROCS_FitTversky>
0.586 

> <ROCS_FitColorTversky>
0.941 

> <ROCS_FitTverskyCombo>
1.527 

> <ROCS_ColorScore>
-3.859

> <ROCS_Overlap>
103.226

> <ROCS_Rank>
6                   

$$$$
untitled-dbase-7304_23
  -OEChem-06232314393D

 13 12  0     1  0  0  0  0  0999 V2000
   -5.9475    5.4720  -36.9062 C   0  0  0  0  0  0  0  0  0  0  0  0
   -7.2210    5.9252  -34.7840 C   0  0  0  0  0  0  0  0  0  0  0  0
   -6.2695    4.9781  -35.5038 C   0  0  1  0  0  0  0  0  0  0  0  0
   -6.4834    7.0434  -34.3020 O   0  0  0  0  0  0  0  0  0  0  0  0
   -6.8961    3.6997  -35.5972 O   0  0  0  0  0  0  0  0  0  0  0  0
   -6.8666    5.5989  -37.4885 H   0  0  0  0  0  0  0  0  0  0  0  0
   -5.4192    6.4299  -36.8788 H   0  0  0  0  0  0  0  0  0  0  0  0
   -5.3312    4.7450  -37.4464 H   0  0  0  0  0  0  0  0  0  0  0  0
   -7.9951    6.3002  -35.4616 H   0  0  0  0  0  0  0  0  0  0  0  0
   -7.6921    5.4342  -33.9268 H   0  0  0  0  0  0  0  0  0  0  0  0
   -5.3502    4.8512  -34.9213 H   0  0  0  0  0  0  0  0  0  0  0  0
   -6.0867    7.4698  -35.0779 H   0  0  0  0  0  0  0  0  0  0  0  0
   -6.2617    3.1145  -36.0384 H   0  0  0  0  0  0  0  0  0  0  0  0
  1  3  1  6  0  0  0
  2  3  1  0  0  0  0
  2  4  1  0  0  0  0
  3  5  1  0  0  0  0
  1  6  1  0  0  0  0
  1  7  1  0  0  0  0
  1  8  1  0  0  0  0
  2  9  1  0  0  0  0
  2 10  1  0  0  0  0
  3 11  1  0  0  0  0
  4 12  1  0  0  0  0
  5 13  1  0  0  0  0
M  END
> <id>
EN300-88342

> <smiles>
C[C@H](O)CO

> <MDLNUMBER>
MFCD00004539

> <IUPAC Name>
(2S)-propane-1,2-diol

> <CAS>
4254-15-3

> <Purity>
95

> <URL>
https://www.enaminestore.com/catalog/EN300-88342

> <ROCS_ShapeQuery>
hit0

> <ROCS_TanimotoCombo>
1.182 

> <ROCS_ShapeTanimoto>
0.534 

> <ROCS_ColorTanimoto>
0.649 

> <ROCS_RefTversky>
0.895 

> <ROCS_RefColorTversky>
0.667 

> <ROCS_RefTverskyCombo>
1.562 

> <ROCS_FitTversky>
0.569 

> <ROCS_FitColorTversky>
0.959 

> <ROCS_FitTverskyCombo>
1.529 

> <ROCS_ColorScore>
-3.935

> <ROCS_Overlap>
100.243

> <ROCS_Rank>
7                   

$$$$
untitled-dbase-14183_53
  -OEChem-06232314393D

 21 21  0     1  0  0  0  0  0999 V2000
   -7.7014    4.5079  -37.7429 C   0  0  0  0  0  0  0  0  0  0  0  0
   -7.3358    3.3557  -36.8121 C   0  0  0  0  0  0  0  0  0  0  0  0
   -5.6840    4.6274  -35.6888 C   0  0  0  0  0  0  0  0  0  0  0  0
   -5.9365    5.8811  -36.5373 C   0  0  1  0  0  0  0  0  0  0  0  0
   -6.5371    5.4870  -37.8973 C   0  0  1  0  0  0  0  0  0  0  0  0
   -6.8501    6.8602  -35.7941 C   0  0  0  0  0  0  0  0  0  0  0  0
   -6.8703    3.8440  -35.5550 O   0  0  0  0  0  0  0  0  0  0  0  0
   -5.5316    4.8509  -38.6891 O   0  0  0  0  0  0  0  0  0  0  0  0
   -6.4832    6.8659  -34.4274 O   0  0  0  0  0  0  0  0  0  0  0  0
   -7.9652    4.1082  -38.7324 H   0  0  0  0  0  0  0  0  0  0  0  0
   -8.5942    5.0312  -37.3772 H   0  0  0  0  0  0  0  0  0  0  0  0
   -8.1909    2.6868  -36.6524 H   0  0  0  0  0  0  0  0  0  0  0  0
   -6.5318    2.7600  -37.2579 H   0  0  0  0  0  0  0  0  0  0  0  0
   -4.9269    3.9951  -36.1681 H   0  0  0  0  0  0  0  0  0  0  0  0
   -5.3058    4.8864  -34.6906 H   0  0  0  0  0  0  0  0  0  0  0  0
   -4.9853    6.3861  -36.7200 H   0  0  0  0  0  0  0  0  0  0  0  0
   -6.8730    6.3746  -38.4397 H   0  0  0  0  0  0  0  0  0  0  0  0
   -7.8874    6.5422  -35.8891 H   0  0  0  0  0  0  0  0  0  0  0  0
   -6.7309    7.8617  -36.2052 H   0  0  0  0  0  0  0  0  0  0  0  0
   -4.8032    5.4859  -38.7758 H   0  0  0  0  0  0  0  0  0  0  0  0
   -6.5988    5.9587  -34.0961 H   0  0  0  0  0  0  0  0  0  0  0  0
  1  2  1  0  0  0  0
  1  5  1  0  0  0  0
  2  7  1  0  0  0  0
  3  4  1  0  0  0  0
  3  7  1  0  0  0  0
  4  5  1  0  0  0  0
  4  6  1  0  0  0  0
  5  8  1  0  0  0  0
  6  9  1  0  0  0  0
  1 10  1  0  0  0  0
  1 11  1  0  0  0  0
  2 12  1  0  0  0  0
  2 13  1  0  0  0  0
  3 14  1  0  0  0  0
  3 15  1  0  0  0  0
  4 16  1  0  0  0  0
  5 17  1  0  0  0  0
  6 18  1  0  0  0  0
  6 19  1  0  0  0  0
  8 20  1  0  0  0  0
  9 21  1  0  0  0  0
M  END
> <id>
EN300-133372

> <smiles>
OCC1COCCC1O

> <MDLNUMBER>
MFCD28361245

> <IUPAC Name>
3-(hydroxymethyl)oxan-4-ol

> <CAS>
86240-50-8

> <Purity>
95

> <URL>
https://www.enaminestore.com/catalog/EN300-133372

> <ROCS_ShapeQuery>
hit0

> <ROCS_TanimotoCombo>
1.179 

> <ROCS_ShapeTanimoto>
0.479 

> <ROCS_ColorTanimoto>
0.701 

> <ROCS_RefTversky>
1.272 

> <ROCS_RefColorTversky>
0.824 

> <ROCS_RefTverskyCombo>
2.097 

> <ROCS_FitTversky>
0.434 

> <ROCS_FitColorTversky>
0.824 

> <ROCS_FitTverskyCombo>
1.258 

> <ROCS_ColorScore>
-4.947

> <ROCS_Overlap>
154.571

> <ROCS_Rank>
8                   

$$$$
untitled-dbase-123041_18
  -OEChem-06232314393D

 14 14  0     0  0  0  0  0  0999 V2000
   -6.7716    5.8465  -37.0073 C   0  0  0  0  0  0  0  0  0  0  0  0
   -5.4673    5.1128  -37.1527 C   0  0  0  0  0  0  0  0  0  0  0  0
   -6.2140    5.0670  -35.8472 C   0  0  0  0  0  0  0  0  0  0  0  0
   -5.6822    5.7836  -34.6526 C   0  0  0  0  0  0  0  0  0  0  0  0
   -6.8812    3.8316  -35.5403 O   0  0  0  0  0  0  0  0  0  0  0  0
   -6.5140    6.9028  -34.3480 O   0  0  0  0  0  0  0  0  0  0  0  0
   -6.7373    6.9286  -36.9688 H   0  0  0  0  0  0  0  0  0  0  0  0
   -7.6344    5.4466  -37.5262 H   0  0  0  0  0  0  0  0  0  0  0  0
   -5.4567    4.2220  -37.7693 H   0  0  0  0  0  0  0  0  0  0  0  0
   -4.5620    5.7051  -37.2108 H   0  0  0  0  0  0  0  0  0  0  0  0
   -4.6610    6.1605  -34.8259 H   0  0  0  0  0  0  0  0  0  0  0  0
   -5.6571    5.1311  -33.7646 H   0  0  0  0  0  0  0  0  0  0  0  0
   -7.7949    4.0690  -35.3336 H   0  0  0  0  0  0  0  0  0  0  0  0
   -7.3979    6.5471  -34.1705 H   0  0  0  0  0  0  0  0  0  0  0  0
  1  2  1  0  0  0  0
  1  3  1  0  0  0  0
  2  3  1  0  0  0  0
  3  4  1  0  0  0  0
  3  5  1  0  0  0  0
  4  6  1  0  0  0  0
  1  7  1  0  0  0  0
  1  8  1  0  0  0  0
  2  9  1  0  0  0  0
  2 10  1  0  0  0  0
  4 11  1  0  0  0  0
  4 12  1  0  0  0  0
  5 13  1  0  0  0  0
  6 14  1  0  0  0  0
M  END
> <id>
EN300-140070

> <smiles>
OCC1(O)CC1

> <MDLNUMBER>
MFCD11977309

> <IUPAC Name>
1-(hydroxymethyl)cyclopropan-1-ol

> <CAS>
42082-92-8

> <Purity>
95

> <URL>
https://www.enaminestore.com/catalog/EN300-140070

> <ROCS_ShapeQuery>
hit0

> <ROCS_TanimotoCombo>
1.179 

> <ROCS_ShapeTanimoto>
0.513 

> <ROCS_ColorTanimoto>
0.666 

> <ROCS_RefTversky>
1.017 

> <ROCS_RefColorTversky>
0.678 

> <ROCS_RefTverskyCombo>
1.694 

> <ROCS_FitTversky>
0.509 

> <ROCS_FitColorTversky>
0.975 

> <ROCS_FitTverskyCombo>
1.484 

> <ROCS_ColorScore>
-3.998

> <ROCS_Overlap>
116.752

> <ROCS_Rank>
9                   

$$$$
untitled-dbase-137258_11
  -OEChem-06232314393D

 12 11  0     1  0  0  0  0  0999 V2000
   -5.7535    4.9685  -37.5081 C   0  0  0  0  0  0  0  0  0  0  0  0
   -6.6671    6.4779  -35.7790 C   0  0  0  0  0  0  0  0  0  0  0  0
   -5.9844    5.1388  -36.0629 C   0  0  1  0  0  0  0  0  0  0  0  0
   -5.5682    4.8366  -38.6462 N   0  0  0  0  0  0  0  0  0  0  0  0
   -6.8221    4.0500  -35.5649 N   0  0  0  0  0  0  0  0  0  0  0  0
   -6.5025    6.8105  -34.4039 O   0  0  0  0  0  0  0  0  0  0  0  0
   -7.7439    6.4166  -35.9726 H   0  0  0  0  0  0  0  0  0  0  0  0
   -6.2486    7.2889  -36.3864 H   0  0  0  0  0  0  0  0  0  0  0  0
   -5.0165    5.1103  -35.5480 H   0  0  0  0  0  0  0  0  0  0  0  0
   -7.6412    4.4457  -35.1687 H   0  0  0  0  0  0  0  0  0  0  0  0
   -7.0511    3.4613  -36.3302 H   0  0  0  0  0  0  0  0  0  0  0  0
   -6.9160    6.0959  -33.8946 H   0  0  0  0  0  0  0  0  0  0  0  0
  1  3  1  0  0  0  0
  1  4  3  0  0  0  0
  2  3  1  0  0  0  0
  2  6  1  0  0  0  0
  3  5  1  0  0  0  0
  2  7  1  0  0  0  0
  2  8  1  0  0  0  0
  3  9  1  0  0  0  0
  5 10  1  0  0  0  0
  5 11  1  0  0  0  0
  6 12  1  0  0  0  0
M  END
> <id>
EN300-84447

> <smiles>
NC(CO)C#N

> <MDLNUMBER>
MFCD19204718

> <IUPAC Name>
2-amino-3-hydroxypropanenitrile

> <CAS>
125310-61-4

> <URL>
https://www.enaminestore.com/catalog/EN300-84447

> <ROCS_ShapeQuery>
hit0

> <ROCS_TanimotoCombo>
1.167 

> <ROCS_ShapeTanimoto>
0.622 

> <ROCS_ColorTanimoto>
0.545 

> <ROCS_RefTversky>
1.123 

> <ROCS_RefColorTversky>
0.652 

> <ROCS_RefTverskyCombo>
1.775 

> <ROCS_FitTversky>
0.582 

> <ROCS_FitColorTversky>
0.768 

> <ROCS_FitTverskyCombo>
1.351 

> <ROCS_ColorScore>
-3.880

> <ROCS_Overlap>
128.362

> <ROCS_Rank>
10                  

$$$$
untitled-dbase-137612_11
  -OEChem-06232314393D

 12 11  0     1  0  0  0  0  0999 V2000
   -5.7535    4.9685  -37.5081 C   0  0  0  0  0  0  0  0  0  0  0  0
   -6.6671    6.4779  -35.7790 C   0  0  0  0  0  0  0  0  0  0  0  0
   -5.9844    5.1388  -36.0629 C   0  0  1  0  0  0  0  0  0  0  0  0
   -5.5682    4.8366  -38.6462 N   0  0  0  0  0  0  0  0  0  0  0  0
   -6.8221    4.0500  -35.5649 N   0  0  0  0  0  0  0  0  0  0  0  0
   -6.5025    6.8105  -34.4039 O   0  0  0  0  0  0  0  0  0  0  0  0
   -7.7439    6.4166  -35.9726 H   0  0  0  0  0  0  0  0  0  0  0  0
   -6.2486    7.2889  -36.3864 H   0  0  0  0  0  0  0  0  0  0  0  0
   -5.0165    5.1103  -35.5480 H   0  0  0  0  0  0  0  0  0  0  0  0
   -7.6412    4.4457  -35.1687 H   0  0  0  0  0  0  0  0  0  0  0  0
   -7.0511    3.4613  -36.3302 H   0  0  0  0  0  0  0  0  0  0  0  0
   -6.9160    6.0959  -33.8946 H   0  0  0  0  0  0  0  0  0  0  0  0
  1  3  1  0  0  0  0
  1  4  3  0  0  0  0
  2  3  1  0  0  0  0
  2  6  1  0  0  0  0
  3  5  1  0  0  0  0
  2  7  1  0  0  0  0
  2  8  1  0  0  0  0
  3  9  1  0  0  0  0
  5 10  1  0  0  0  0
  5 11  1  0  0  0  0
  6 12  1  0  0  0  0
M  END
> <id>
EN300-137306

> <smiles>
Cl.NC(CO)C#N

> <MDLNUMBER>
MFCD26407830

> <IUPAC Name>
2-amino-3-hydroxypropanenitrile hydrochloride

> <CAS>
1461707-49-2

> <Purity>
95

> <URL>
https://www.enaminestore.com/catalog/EN300-137306

> <Saltdate>
Cl

> <MP>
156-158

> <ROCS_ShapeQuery>
hit0

> <ROCS_TanimotoCombo>
1.167 

> <ROCS_ShapeTanimoto>
0.622 

> <ROCS_ColorTanimoto>
0.545 

> <ROCS_RefTversky>
1.123 

> <ROCS_RefColorTversky>
0.652 

> <ROCS_RefTverskyCombo>
1.775 

> <ROCS_FitTversky>
0.582 

> <ROCS_FitColorTversky>
0.768 

> <ROCS_FitTverskyCombo>
1.351 

> <ROCS_ColorScore>
-3.880

> <ROCS_Overlap>
128.362

> <ROCS_Rank>
11                  

$$$$
untitled-dbase-146414_6
  -OEChem-06232314393D

 17 17  0     0  0  0  0  0  0999 V2000
   -5.0295    6.7260  -36.3544 C   0  0  0  0  0  0  0  0  0  0  0  0
   -5.5408    7.5329  -35.3508 C   0  0  0  0  0  0  0  0  0  0  0  0
   -6.8778    5.8443  -34.5513 C   0  0  0  0  0  0  0  0  0  0  0  0
   -5.4873    5.4155  -36.4325 C   0  0  0  0  0  0  0  0  0  0  0  0
   -6.4292    4.9583  -35.5175 C   0  0  0  0  0  0  0  0  0  0  0  0
   -4.9524    4.5230  -37.5038 C   0  0  0  0  0  0  0  0  0  0  0  0
   -6.4565    7.1244  -34.4440 N   0  0  0  0  0  0  0  0  0  0  0  0
   -6.9228    3.6424  -35.5583 N   0  0  0  0  0  0  0  0  0  0  0  0
   -5.5385    4.8794  -38.7490 O   0  0  0  0  0  0  0  0  0  0  0  0
   -4.2945    7.1129  -37.0521 H   0  0  0  0  0  0  0  0  0  0  0  0
   -5.2164    8.5631  -35.2468 H   0  0  0  0  0  0  0  0  0  0  0  0
   -7.6120    5.5460  -33.8088 H   0  0  0  0  0  0  0  0  0  0  0  0
   -3.8615    4.6123  -37.5895 H   0  0  0  0  0  0  0  0  0  0  0  0
   -5.1823    3.4706  -37.2922 H   0  0  0  0  0  0  0  0  0  0  0  0
   -6.6247    3.0273  -36.2911 H   0  0  0  0  0  0  0  0  0  0  0  0
   -7.6365    3.3644  -34.9121 H   0  0  0  0  0  0  0  0  0  0  0  0
   -5.1667    4.2791  -39.4152 H   0  0  0  0  0  0  0  0  0  0  0  0
  1  2  1  0  0  0  0
  1  4  2  0  0  0  0
  2  7  2  0  0  0  0
  3  5  2  0  0  0  0
  3  7  1  0  0  0  0
  4  5  1  0  0  0  0
  4  6  1  0  0  0  0
  5  8  1  0  0  0  0
  6  9  1  0  0  0  0
  1 10  1  0  0  0  0
  2 11  1  0  0  0  0
  3 12  1  0  0  0  0
  6 13  1  0  0  0  0
  6 14  1  0  0  0  0
  8 15  1  0  0  0  0
  8 16  1  0  0  0  0
  9 17  1  0  0  0  0
M  END
> <id>
EN300-94716

> <smiles>
NC=1C=NC=CC1CO

> <MDLNUMBER>
MFCD06658330

> <IUPAC Name>
(3-aminopyridin-4-yl)methanol

> <CAS>
152398-05-5

> <Purity>
95

> <URL>
https://www.enaminestore.com/catalog/EN300-94716

> <MP>
113-115

> <ROCS_ShapeQuery>
hit0

> <ROCS_TanimotoCombo>
1.158 

> <ROCS_ShapeTanimoto>
0.475 

> <ROCS_ColorTanimoto>
0.683 

> <ROCS_RefTversky>
1.304 

> <ROCS_RefColorTversky>
0.812 

> <ROCS_RefTverskyCombo>
2.116 

> <ROCS_FitTversky>
0.427 

> <ROCS_FitColorTversky>
0.812 

> <ROCS_FitTverskyCombo>
1.239 

> <ROCS_ColorScore>
-4.872

> <ROCS_Overlap>
159.576

> <ROCS_Rank>
12                  

$$$$
untitled-dbase-92430_21
  -OEChem-06232314393D

 20 19  0     1  0  0  0  0  0999 V2000
   -5.7986    4.9085  -37.4704 C   0  0  0  0  0  0  0  0  0  0  0  0
   -4.7253    4.9541  -35.2686 C   0  0  0  0  0  0  0  0  0  0  0  0
   -8.3632    6.2043  -35.7404 C   0  0  0  0  0  0  0  0  0  0  0  0
   -6.4534    7.5311  -36.6557 C   0  0  0  0  0  0  0  0  0  0  0  0
   -6.0584    5.0594  -36.0207 C   0  0  1  0  0  0  0  0  0  0  0  0
   -6.8381    6.3792  -35.7127 C   0  0  0  0  0  0  0  0  0  0  0  0
   -5.5965    4.7873  -38.6068 N   0  0  0  0  0  0  0  0  0  0  0  0
   -6.8402    3.9384  -35.5877 O   0  0  0  0  0  0  0  0  0  0  0  0
   -6.5090    6.8121  -34.3821 O   0  0  0  0  0  0  0  0  0  0  0  0
   -4.8816    5.0620  -34.1874 H   0  0  0  0  0  0  0  0  0  0  0  0
   -4.2285    3.9925  -35.4323 H   0  0  0  0  0  0  0  0  0  0  0  0
   -4.0385    5.7585  -35.5515 H   0  0  0  0  0  0  0  0  0  0  0  0
   -8.6869    5.3917  -35.0813 H   0  0  0  0  0  0  0  0  0  0  0  0
   -8.7378    6.0078  -36.7494 H   0  0  0  0  0  0  0  0  0  0  0  0
   -8.8607    7.1075  -35.3667 H   0  0  0  0  0  0  0  0  0  0  0  0
   -5.3670    7.6810  -36.6576 H   0  0  0  0  0  0  0  0  0  0  0  0
   -6.7280    7.3091  -37.6926 H   0  0  0  0  0  0  0  0  0  0  0  0
   -6.9234    8.4753  -36.3655 H   0  0  0  0  0  0  0  0  0  0  0  0
   -6.3087    3.1524  -35.7764 H   0  0  0  0  0  0  0  0  0  0  0  0
   -6.8146    6.1098  -33.7929 H   0  0  0  0  0  0  0  0  0  0  0  0
  1  5  1  0  0  0  0
  1  7  3  0  0  0  0
  2  5  1  0  0  0  0
  3  6  1  0  0  0  0
  4  6  1  0  0  0  0
  5  6  1  0  0  0  0
  5  8  1  0  0  0  0
  6  9  1  0  0  0  0
  2 10  1  0  0  0  0
  2 11  1  0  0  0  0
  2 12  1  0  0  0  0
  3 13  1  0  0  0  0
  3 14  1  0  0  0  0
  3 15  1  0  0  0  0
  4 16  1  0  0  0  0
  4 17  1  0  0  0  0
  4 18  1  0  0  0  0
  8 19  1  0  0  0  0
  9 20  1  0  0  0  0
M  END
> <id>
EN300-1664146

> <smiles>
CC(C)(O)C(C)(O)C#N

> <MDLNUMBER>
MFCD31629556

> <IUPAC Name>
2,3-dihydroxy-2,3-dimethylbutanenitrile

> <CAS>
26429-38-9

> <Purity>
95

> <URL>
https://www.enaminestore.com/catalog/EN300-1664146

> <ROCS_ShapeQuery>
hit0

> <ROCS_TanimotoCombo>
1.157 

> <ROCS_ShapeTanimoto>
0.470 

> <ROCS_ColorTanimoto>
0.687 

> <ROCS_RefTversky>
1.237 

> <ROCS_RefColorTversky>
0.814 

> <ROCS_RefTverskyCombo>
2.052 

> <ROCS_FitTversky>
0.431 

> <ROCS_FitColorTversky>
0.814 

> <ROCS_FitTverskyCombo>
1.245 

> <ROCS_ColorScore>
-4.887

> <ROCS_Overlap>
149.726

> <ROCS_Rank>
13                  

$$$$
untitled-dbase-43747_14
  -OEChem-06232314393D

 12 11  0     1  0  0  0  0  0999 V2000
   -5.6000    4.6694  -38.6270 C   0  0  0  0  0  0  0  0  0  0  0  0
   -5.8002    4.8374  -37.4552 C   0  0  0  0  0  0  0  0  0  0  0  0
   -6.7210    6.3774  -35.7398 C   0  0  0  0  0  0  0  0  0  0  0  0
   -6.0402    5.0414  -36.0196 C   0  0  1  0  0  0  0  0  0  0  0  0
   -6.5198    6.7606  -34.3833 O   0  0  0  0  0  0  0  0  0  0  0  0
   -6.8566    3.9938  -35.5025 O   0  0  0  0  0  0  0  0  0  0  0  0
   -5.4224    4.5204  -39.6664 H   0  0  0  0  0  0  0  0  0  0  0  0
   -7.7984    6.3210  -35.9284 H   0  0  0  0  0  0  0  0  0  0  0  0
   -6.2870    7.1614  -36.3692 H   0  0  0  0  0  0  0  0  0  0  0  0
   -5.0876    5.0131  -35.4788 H   0  0  0  0  0  0  0  0  0  0  0  0
   -6.9090    6.0602  -33.8364 H   0  0  0  0  0  0  0  0  0  0  0  0
   -6.9803    4.1802  -34.5589 H   0  0  0  0  0  0  0  0  0  0  0  0
  1  2  3  0  0  0  0
  2  4  1  0  0  0  0
  3  4  1  0  0  0  0
  3  5  1  0  0  0  0
  4  6  1  0  0  0  0
  1  7  1  0  0  0  0
  3  8  1  0  0  0  0
  3  9  1  0  0  0  0
  4 10  1  0  0  0  0
  5 11  1  0  0  0  0
  6 12  1  0  0  0  0
M  END
> <id>
EN300-127385

> <smiles>
OCC(O)C#C

> <MDLNUMBER>
MFCD32717215

> <IUPAC Name>
but-3-yne-1,2-diol

> <CAS>
616-28-4

> <URL>
https://www.enaminestore.com/catalog/EN300-127385

> <ROCS_ShapeQuery>
hit0

> <ROCS_TanimotoCombo>
1.150 

> <ROCS_ShapeTanimoto>
0.606 

> <ROCS_ColorTanimoto>
0.544 

> <ROCS_RefTversky>
1.105 

> <ROCS_RefColorTversky>
0.651 

> <ROCS_RefTverskyCombo>
1.756 

> <ROCS_FitTversky>
0.573 

> <ROCS_FitColorTversky>
0.767 

> <ROCS_FitTverskyCombo>
1.340 

> <ROCS_ColorScore>
-3.874

> <ROCS_Overlap>
126.322

> <ROCS_Rank>
14                  

$$$$
untitled-dbase-170554_67
  -OEChem-06232314393D

 21 21  0     1  0  0  0  0  0999 V2000
   -5.3189    3.1426  -37.1895 C   0  0  0  0  0  0  0  0  0  0  0  0
   -6.0762    5.5144  -36.7072 C   0  0  0  0  0  0  0  0  0  0  0  0
   -6.7067    2.8741  -36.6218 C   0  0  0  0  0  0  0  0  0  0  0  0
   -5.1626    4.6220  -37.5502 C   0  0  2  0  0  0  0  0  0  0  0  0
   -6.3169    4.8870  -35.3358 C   0  0  1  0  0  0  0  0  0  0  0  0
   -7.1750    5.7855  -34.4557 C   0  0  0  0  0  0  0  0  0  0  0  0
   -6.9785    3.6202  -35.4345 O   0  0  0  0  0  0  0  0  0  0  0  0
   -5.4826    4.8305  -38.9233 O   0  0  0  0  0  0  0  0  0  0  0  0
   -6.5023    7.0193  -34.2742 O   0  0  0  0  0  0  0  0  0  0  0  0
   -4.5422    2.8405  -36.4796 H   0  0  0  0  0  0  0  0  0  0  0  0
   -5.1674    2.5389  -38.0928 H   0  0  0  0  0  0  0  0  0  0  0  0
   -5.6387    6.5145  -36.6118 H   0  0  0  0  0  0  0  0  0  0  0  0
   -7.0274    5.6429  -37.2392 H   0  0  0  0  0  0  0  0  0  0  0  0
   -7.4728    3.1478  -37.3676 H   0  0  0  0  0  0  0  0  0  0  0  0
   -6.8489    1.7975  -36.4126 H   0  0  0  0  0  0  0  0  0  0  0  0
   -4.1159    4.9309  -37.4075 H   0  0  0  0  0  0  0  0  0  0  0  0
   -5.3489    4.7305  -34.8160 H   0  0  0  0  0  0  0  0  0  0  0  0
   -7.3333    5.3174  -33.4829 H   0  0  0  0  0  0  0  0  0  0  0  0
   -8.1385    5.9697  -34.9336 H   0  0  0  0  0  0  0  0  0  0  0  0
   -5.3675    5.7787  -39.0964 H   0  0  0  0  0  0  0  0  0  0  0  0
   -7.0695    7.5724  -33.7108 H   0  0  0  0  0  0  0  0  0  0  0  0
  1  3  1  0  0  0  0
  1  4  1  0  0  0  0
  2  4  1  0  0  0  0
  2  5  1  0  0  0  0
  3  7  1  0  0  0  0
  4  8  1  6  0  0  0
  5  6  1  6  0  0  0
  5  7  1  0  0  0  0
  6  9  1  0  0  0  0
  1 10  1  0  0  0  0
  1 11  1  0  0  0  0
  2 12  1  0  0  0  0
  2 13  1  0  0  0  0
  3 14  1  0  0  0  0
  3 15  1  0  0  0  0
  4 16  1  0  0  0  0
  5 17  1  0  0  0  0
  6 18  1  0  0  0  0
  6 19  1  0  0  0  0
  8 20  1  0  0  0  0
  9 21  1  0  0  0  0
M  END
> <id>
EN300-37377261

> <smiles>
OC[C@@H]1C[C@H](O)CCO1 |&1:2,4,r|

> <IUPAC Name>
rac-(2R,4S)-2-(hydroxymethyl)oxan-4-ol

> <Purity>
95

> <URL>
https://www.enaminestore.com/catalog/EN300-37377261

> <ROCS_ShapeQuery>
hit0

> <ROCS_TanimotoCombo>
1.150 

> <ROCS_ShapeTanimoto>
0.463 

> <ROCS_ColorTanimoto>
0.687 

> <ROCS_RefTversky>
1.241 

> <ROCS_RefColorTversky>
0.814 

> <ROCS_RefTverskyCombo>
2.055 

> <ROCS_FitTversky>
0.425 

> <ROCS_FitColorTversky>
0.814 

> <ROCS_FitTverskyCombo>
1.239 

> <ROCS_ColorScore>
-4.886

> <ROCS_Overlap>
150.621

> <ROCS_Rank>
15                  

$$$$
untitled-dbase-20904_54
  -OEChem-06232314393D

 19 19  0     1  0  0  0  0  0999 V2000
   -6.1214    6.4039  -36.8303 C   0  0  0  0  0  0  0  0  0  0  0  0
   -5.5326    6.5254  -35.4458 C   0  0  2  0  0  0  0  0  0  0  0  0
   -4.8640    5.1690  -35.2583 C   0  0  1  0  0  0  0  0  0  0  0  0
   -5.0560    5.5974  -37.5511 C   0  0  1  0  0  0  0  0  0  0  0  0
   -5.7724    4.0721  -34.7147 C   0  0  0  0  0  0  0  0  0  0  0  0
   -4.4083    4.7742  -36.5661 O   0  0  0  0  0  0  0  0  0  0  0  0
   -6.5060    6.8093  -34.4652 O   0  0  0  0  0  0  0  0  0  0  0  0
   -5.5945    4.8324  -38.6165 O   0  0  0  0  0  0  0  0  0  0  0  0
   -6.8569    3.8886  -35.6106 O   0  0  0  0  0  0  0  0  0  0  0  0
   -7.1016    5.9205  -36.8456 H   0  0  0  0  0  0  0  0  0  0  0  0
   -6.1940    7.3995  -37.2812 H   0  0  0  0  0  0  0  0  0  0  0  0
   -4.7691    7.3545  -35.3993 H   0  0  0  0  0  0  0  0  0  0  0  0
   -3.9882    5.2672  -34.6310 H   0  0  0  0  0  0  0  0  0  0  0  0
   -4.2813    6.2842  -37.9874 H   0  0  0  0  0  0  0  0  0  0  0  0
   -6.1654    4.3548  -33.7350 H   0  0  0  0  0  0  0  0  0  0  0  0
   -5.2224    3.1319  -34.6259 H   0  0  0  0  0  0  0  0  0  0  0  0
   -7.1411    6.0754  -34.4812 H   0  0  0  0  0  0  0  0  0  0  0  0
   -4.8524    4.3532  -39.0180 H   0  0  0  0  0  0  0  0  0  0  0  0
   -6.4760    3.6328  -36.4671 H   0  0  0  0  0  0  0  0  0  0  0  0
  1  2  1  0  0  0  0
  1  4  1  0  0  0  0
  2  3  1  0  0  0  0
  2  7  1  0  0  0  0
  3  5  1  0  0  0  0
  3  6  1  0  0  0  0
  4  6  1  0  0  0  0
  4  8  1  0  0  0  0
  5  9  1  0  0  0  0
  1 10  1  0  0  0  0
  1 11  1  0  0  0  0
  2 12  1  0  0  0  0
  3 13  1  0  0  0  0
  4 14  1  0  0  0  0
  5 15  1  0  0  0  0
  5 16  1  0  0  0  0
  7 17  1  0  0  0  0
  8 18  1  0  0  0  0
  9 19  1  0  0  0  0
M  END
> <id>
EN300-295873

> <smiles>
OCC1OC(O)CC1O

> <MDLNUMBER>
MFCD00044508

> <IUPAC Name>
5-(hydroxymethyl)oxolane-2,4-diol

> <URL>
https://www.enaminestore.com/catalog/EN300-295873

> <ROCS_ShapeQuery>
hit0

> <ROCS_TanimotoCombo>
1.147 

> <ROCS_ShapeTanimoto>
0.431 

> <ROCS_ColorTanimoto>
0.715 

> <ROCS_RefTversky>
1.204 

> <ROCS_RefColorTversky>
0.958 

> <ROCS_RefTverskyCombo>
2.161 

> <ROCS_FitTversky>
0.402 

> <ROCS_FitColorTversky>
0.739 

> <ROCS_FitTverskyCombo>
1.141 

> <ROCS_ColorScore>
-5.842

> <ROCS_Overlap>
146.840

> <ROCS_Rank>
16                  

$$$$
untitled-dbase-15097_28
  -OEChem-06232314393D

 13 12  0     1  0  0  0  0  0999 V2000
   -6.0657    3.8784  -37.8352 C   0  0  0  0  0  0  0  0  0  0  0  0
   -6.7737    4.6458  -36.7253 C   0  0  2  0  0  0  0  0  0  0  0  0
   -6.0198    5.8990  -36.3355 C   0  0  0  0  0  0  0  0  0  0  0  0
   -5.5262    4.8106  -38.7662 O   0  0  0  0  0  0  0  0  0  0  0  0
   -6.8701    3.8147  -35.5696 O   0  0  0  0  0  0  0  0  0  0  0  0
   -6.6252    6.5285  -35.3045 F   0  0  0  0  0  0  0  0  0  0  0  0
   -4.7607    5.6018  -35.9450 F   0  0  0  0  0  0  0  0  0  0  0  0
   -5.9392    6.7716  -37.3624 F   0  0  0  0  0  0  0  0  0  0  0  0
   -5.2409    3.2789  -37.4380 H   0  0  0  0  0  0  0  0  0  0  0  0
   -6.7629    3.2299  -38.3756 H   0  0  0  0  0  0  0  0  0  0  0  0
   -7.7948    4.9025  -37.0279 H   0  0  0  0  0  0  0  0  0  0  0  0
   -4.9033    5.3672  -38.2727 H   0  0  0  0  0  0  0  0  0  0  0  0
   -7.3240    4.3383  -34.8918 H   0  0  0  0  0  0  0  0  0  0  0  0
  1  2  1  0  0  0  0
  1  4  1  0  0  0  0
  2  3  1  0  0  0  0
  2  5  1  0  0  0  0
  3  6  1  0  0  0  0
  3  7  1  0  0  0  0
  3  8  1  0  0  0  0
  1  9  1  0  0  0  0
  1 10  1  0  0  0  0
  2 11  1  0  0  0  0
  4 12  1  0  0  0  0
  5 13  1  0  0  0  0
M  END
> <id>
EN300-200368

> <smiles>
OCC(O)C(F)(F)F

> <MDLNUMBER>
MFCD02183521

> <IUPAC Name>
3,3,3-trifluoropropane-1,2-diol

> <CAS>
431-39-0

> <Purity>
95

> <URL>
https://www.enaminestore.com/catalog/EN300-200368

> <MP>
25-26

> <ROCS_ShapeQuery>
hit0

> <ROCS_TanimotoCombo>
1.147 

> <ROCS_ShapeTanimoto>
0.481 

> <ROCS_ColorTanimoto>
0.665 

> <ROCS_RefTversky>
1.194 

> <ROCS_RefColorTversky>
0.677 

> <ROCS_RefTverskyCombo>
1.871 

> <ROCS_FitTversky>
0.447 

> <ROCS_FitColorTversky>
0.974 

> <ROCS_FitTverskyCombo>
1.421 

> <ROCS_ColorScore>
-3.995

> <ROCS_Overlap>
142.777

> <ROCS_Rank>
17                  

$$$$
untitled-dbase-170549_0
  -OEChem-06232314393D

 18 18  0     1  0  0  0  0  0999 V2000
   -6.1137    6.9088  -37.0947 C   0  0  0  0  0  0  0  0  0  0  0  0
   -5.6778    5.4336  -37.2171 C   0  0  1  0  0  0  0  0  0  0  0  0
   -7.0148    6.5006  -35.9110 C   0  0  1  0  0  0  0  0  0  0  0  0
   -6.9710    5.0517  -36.4551 C   0  0  0  0  0  0  0  0  0  0  0  0
   -6.8715    2.7287  -36.1097 C   0  0  0  0  0  0  0  0  0  0  0  0
   -5.5654    4.9149  -38.5534 O   0  0  0  0  0  0  0  0  0  0  0  0
   -6.4495    6.7102  -34.6022 O   0  0  0  0  0  0  0  0  0  0  0  0
   -6.8539    3.9971  -35.4828 O   0  0  0  0  0  0  0  0  0  0  0  0
   -5.3087    7.6094  -36.8546 H   0  0  0  0  0  0  0  0  0  0  0  0
   -6.6663    7.2912  -37.9605 H   0  0  0  0  0  0  0  0  0  0  0  0
   -4.7666    5.2139  -36.6462 H   0  0  0  0  0  0  0  0  0  0  0  0
   -8.0120    6.9525  -35.9564 H   0  0  0  0  0  0  0  0  0  0  0  0
   -7.8140    4.8372  -37.1336 H   0  0  0  0  0  0  0  0  0  0  0  0
   -6.7815    1.9459  -35.3525 H   0  0  0  0  0  0  0  0  0  0  0  0
   -6.0434    2.6606  -36.8197 H   0  0  0  0  0  0  0  0  0  0  0  0
   -7.8173    2.6090  -36.6434 H   0  0  0  0  0  0  0  0  0  0  0  0
   -4.9021    5.4623  -38.9937 H   0  0  0  0  0  0  0  0  0  0  0  0
   -7.1218    6.4114  -33.9772 H   0  0  0  0  0  0  0  0  0  0  0  0
  1  2  1  0  0  0  0
  1  3  1  0  0  0  0
  2  4  1  0  0  0  0
  2  6  1  1  0  0  0
  3  4  1  0  0  0  0
  3  7  1  6  0  0  0
  4  8  1  0  0  0  0
  5  8  1  0  0  0  0
  1  9  1  0  0  0  0
  1 10  1  0  0  0  0
  2 11  1  0  0  0  0
  3 12  1  0  0  0  0
  4 13  1  0  0  0  0
  5 14  1  0  0  0  0
  5 15  1  0  0  0  0
  5 16  1  0  0  0  0
  6 17  1  0  0  0  0
  7 18  1  0  0  0  0
M  END
> <id>
EN300-37374468

> <smiles>
COC1[C@@H](O)C[C@@H]1O |&1:3,6,r|

> <IUPAC Name>
rac-(1R,3R)-2-methoxycyclobutane-1,3-diol

> <Purity>
95

> <URL>
https://www.enaminestore.com/catalog/EN300-37374468

> <ROCS_ShapeQuery>
hit0

> <ROCS_TanimotoCombo>
1.145 

> <ROCS_ShapeTanimoto>
0.524 

> <ROCS_ColorTanimoto>
0.621 

> <ROCS_RefTversky>
1.245 

> <ROCS_RefColorTversky>
0.766 

> <ROCS_RefTverskyCombo>
2.011 

> <ROCS_FitTversky>
0.475 

> <ROCS_FitColorTversky>
0.766 

> <ROCS_FitTverskyCombo>
1.241 

> <ROCS_ColorScore>
-4.596

> <ROCS_Overlap>
148.430

> <ROCS_Rank>
18                  

$$$$
untitled-dbase-144171_63
  -OEChem-06232314393D

 19 19  0     1  0  0  0  0  0999 V2000
   -6.9806    6.0721  -36.7081 C   0  0  0  0  0  0  0  0  0  0  0  0
   -5.0557    5.5291  -35.9193 C   0  0  0  0  0  0  0  0  0  0  0  0
   -6.0088    6.7215  -35.7015 C   0  0  2  0  0  0  0  0  0  0  0  0
   -6.2520    4.7212  -36.4860 C   0  0  2  0  0  0  0  0  0  0  0  0
   -5.9397    3.9463  -37.7569 C   0  0  0  0  0  0  0  0  0  0  0  0
   -5.5191    4.8433  -38.7816 N   0  0  0  0  0  0  0  0  0  0  0  0
   -6.5074    6.8826  -34.3595 O   0  0  0  0  0  0  0  0  0  0  0  0
   -6.8829    3.8373  -35.5323 O   0  0  0  0  0  0  0  0  0  0  0  0
   -8.0271    6.0732  -36.3828 H   0  0  0  0  0  0  0  0  0  0  0  0
   -6.9337    6.4788  -37.7223 H   0  0  0  0  0  0  0  0  0  0  0  0
   -4.2343    5.7171  -36.6165 H   0  0  0  0  0  0  0  0  0  0  0  0
   -4.6375    5.1183  -34.9934 H   0  0  0  0  0  0  0  0  0  0  0  0
   -5.5929    7.6679  -36.0671 H   0  0  0  0  0  0  0  0  0  0  0  0
   -5.1458    3.2382  -37.5204 H   0  0  0  0  0  0  0  0  0  0  0  0
   -6.8504    3.4272  -38.0546 H   0  0  0  0  0  0  0  0  0  0  0  0
   -4.7101    5.3566  -38.4812 H   0  0  0  0  0  0  0  0  0  0  0  0
   -5.2874    4.3320  -39.6141 H   0  0  0  0  0  0  0  0  0  0  0  0
   -6.7167    5.9924  -34.0471 H   0  0  0  0  0  0  0  0  0  0  0  0
   -7.7636    3.6629  -35.8854 H   0  0  0  0  0  0  0  0  0  0  0  0
  1  3  1  0  0  0  0
  1  4  1  0  0  0  0
  2  3  1  0  0  0  0
  2  4  1  0  0  0  0
  3  7  1  1  0  0  0
  4  5  1  0  0  0  0
  4  8  1  1  0  0  0
  5  6  1  0  0  0  0
  1  9  1  0  0  0  0
  1 10  1  0  0  0  0
  2 11  1  0  0  0  0
  2 12  1  0  0  0  0
  3 13  1  0  0  0  0
  5 14  1  0  0  0  0
  5 15  1  0  0  0  0
  6 16  1  0  0  0  0
  6 17  1  0  0  0  0
  7 18  1  0  0  0  0
  8 19  1  0  0  0  0
M  END
> <id>
EN300-39676217

> <smiles>
Cl.NC[C@]1(O)C[C@@H](O)C1

> <IUPAC Name>
(1s,3s)-1-(aminomethyl)cyclobutane-1,3-diol hydrochloride

> <CAS>
2839128-58-2

> <Purity>
95

> <URL>
https://www.enaminestore.com/catalog/EN300-39676217

> <ROCS_ShapeQuery>
hit0

> <ROCS_TanimotoCombo>
1.144 

> <ROCS_ShapeTanimoto>
0.521 

> <ROCS_ColorTanimoto>
0.624 

> <ROCS_RefTversky>
1.241 

> <ROCS_RefColorTversky>
0.825 

> <ROCS_RefTverskyCombo>
2.066 

> <ROCS_FitTversky>
0.473 

> <ROCS_FitColorTversky>
0.718 

> <ROCS_FitTverskyCombo>
1.191 

> <ROCS_ColorScore>
-4.993

> <ROCS_Overlap>
147.922

> <ROCS_Rank>
19                  

$$$$
untitled-dbase-179249_63
  -OEChem-06232314393D

 19 19  0     1  0  0  0  0  0999 V2000
   -6.9806    6.0721  -36.7081 C   0  0  0  0  0  0  0  0  0  0  0  0
   -5.0557    5.5291  -35.9193 C   0  0  0  0  0  0  0  0  0  0  0  0
   -6.0088    6.7215  -35.7015 C   0  0  2  0  0  0  0  0  0  0  0  0
   -6.2520    4.7212  -36.4860 C   0  0  2  0  0  0  0  0  0  0  0  0
   -5.9397    3.9463  -37.7569 C   0  0  0  0  0  0  0  0  0  0  0  0
   -5.5191    4.8433  -38.7816 N   0  0  0  0  0  0  0  0  0  0  0  0
   -6.5074    6.8826  -34.3595 O   0  0  0  0  0  0  0  0  0  0  0  0
   -6.8829    3.8373  -35.5323 O   0  0  0  0  0  0  0  0  0  0  0  0
   -8.0271    6.0732  -36.3828 H   0  0  0  0  0  0  0  0  0  0  0  0
   -6.9337    6.4788  -37.7223 H   0  0  0  0  0  0  0  0  0  0  0  0
   -4.2343    5.7171  -36.6165 H   0  0  0  0  0  0  0  0  0  0  0  0
   -4.6375    5.1183  -34.9934 H   0  0  0  0  0  0  0  0  0  0  0  0
   -5.5929    7.6679  -36.0671 H   0  0  0  0  0  0  0  0  0  0  0  0
   -5.1458    3.2382  -37.5204 H   0  0  0  0  0  0  0  0  0  0  0  0
   -6.8504    3.4272  -38.0546 H   0  0  0  0  0  0  0  0  0  0  0  0
   -4.7101    5.3566  -38.4812 H   0  0  0  0  0  0  0  0  0  0  0  0
   -5.2874    4.3320  -39.6141 H   0  0  0  0  0  0  0  0  0  0  0  0
   -6.7167    5.9924  -34.0471 H   0  0  0  0  0  0  0  0  0  0  0  0
   -7.7636    3.6629  -35.8854 H   0  0  0  0  0  0  0  0  0  0  0  0
  1  3  1  0  0  0  0
  1  4  1  0  0  0  0
  2  3  1  0  0  0  0
  2  4  1  0  0  0  0
  3  7  1  1  0  0  0
  4  5  1  0  0  0  0
  4  8  1  1  0  0  0
  5  6  1  0  0  0  0
  1  9  1  0  0  0  0
  1 10  1  0  0  0  0
  2 11  1  0  0  0  0
  2 12  1  0  0  0  0
  3 13  1  0  0  0  0
  5 14  1  0  0  0  0
  5 15  1  0  0  0  0
  6 16  1  0  0  0  0
  6 17  1  0  0  0  0
  7 18  1  0  0  0  0
  8 19  1  0  0  0  0
M  END
> <id>
EN300-39676218

> <smiles>
NC[C@]1(O)C[C@@H](O)C1

> <IUPAC Name>
(1s,3s)-1-(aminomethyl)cyclobutane-1,3-diol

> <URL>
https://www.enaminestore.com/catalog/EN300-39676218

> <ROCS_ShapeQuery>
hit0

> <ROCS_TanimotoCombo>
1.144 

> <ROCS_ShapeTanimoto>
0.521 

> <ROCS_ColorTanimoto>
0.624 

> <ROCS_RefTversky>
1.241 

> <ROCS_RefColorTversky>
0.825 

> <ROCS_RefTverskyCombo>
2.066 

> <ROCS_FitTversky>
0.473 

> <ROCS_FitColorTversky>
0.718 

> <ROCS_FitTverskyCombo>
1.191 

> <ROCS_ColorScore>
-4.993

> <ROCS_Overlap>
147.922

> <ROCS_Rank>
20                  

$$$$
untitled-dbase-139491_63
  -OEChem-06232314393D

 19 19  0     0  0  0  0  0  0999 V2000
   -6.9684    6.0629  -36.7072 C   0  0  0  0  0  0  0  0  0  0  0  0
   -5.0451    5.5286  -35.9083 C   0  0  0  0  0  0  0  0  0  0  0  0
   -6.0027    6.7188  -35.6992 C   0  0  0  0  0  0  0  0  0  0  0  0
   -6.2359    4.7154  -36.4792 C   0  0  0  0  0  0  0  0  0  0  0  0
   -5.9311    3.9439  -37.7540 C   0  0  0  0  0  0  0  0  0  0  0  0
   -5.5193    4.8441  -38.7796 N   0  0  0  0  0  0  0  0  0  0  0  0
   -6.5075    6.8837  -34.3600 O   0  0  0  0  0  0  0  0  0  0  0  0
   -6.8830    3.8350  -35.5332 O   0  0  0  0  0  0  0  0  0  0  0  0
   -8.0160    6.0619  -36.3851 H   0  0  0  0  0  0  0  0  0  0  0  0
   -6.9200    6.4678  -37.7222 H   0  0  0  0  0  0  0  0  0  0  0  0
   -4.2200    5.7165  -36.6012 H   0  0  0  0  0  0  0  0  0  0  0  0
   -4.6308    5.1210  -34.9790 H   0  0  0  0  0  0  0  0  0  0  0  0
   -5.5880    7.6651  -36.0664 H   0  0  0  0  0  0  0  0  0  0  0  0
   -5.1343    3.2368  -37.5247 H   0  0  0  0  0  0  0  0  0  0  0  0
   -6.8429    3.4239  -38.0465 H   0  0  0  0  0  0  0  0  0  0  0  0
   -4.7093    5.3582  -38.4836 H   0  0  0  0  0  0  0  0  0  0  0  0
   -5.2925    4.3352  -39.6148 H   0  0  0  0  0  0  0  0  0  0  0  0
   -5.7947    7.3017  -33.8589 H   0  0  0  0  0  0  0  0  0  0  0  0
   -6.9105    4.3244  -34.7023 H   0  0  0  0  0  0  0  0  0  0  0  0
  1  3  1  0  0  0  0
  1  4  1  0  0  0  0
  2  3  1  0  0  0  0
  2  4  1  0  0  0  0
  3  7  1  0  0  0  0
  4  5  1  0  0  0  0
  4  8  1  0  0  0  0
  5  6  1  0  0  0  0
  1  9  1  0  0  0  0
  1 10  1  0  0  0  0
  2 11  1  0  0  0  0
  2 12  1  0  0  0  0
  3 13  1  0  0  0  0
  5 14  1  0  0  0  0
  5 15  1  0  0  0  0
  6 16  1  0  0  0  0
  6 17  1  0  0  0  0
  7 18  1  0  0  0  0
  8 19  1  0  0  0  0
M  END
> <id>
EN300-22142219

> <smiles>
NCC1(O)CC(O)C1

> <MDLNUMBER>
MFCD31705863

> <IUPAC Name>
1-(aminomethyl)cyclobutane-1,3-diol

> <URL>
https://www.enaminestore.com/catalog/EN300-22142219

> <ROCS_ShapeQuery>
hit0

> <ROCS_TanimotoCombo>
1.144 

> <ROCS_ShapeTanimoto>
0.520 

> <ROCS_ColorTanimoto>
0.624 

> <ROCS_RefTversky>
1.241 

> <ROCS_RefColorTversky>
0.825 

> <ROCS_RefTverskyCombo>
2.066 

> <ROCS_FitTversky>
0.473 

> <ROCS_FitColorTversky>
0.718 

> <ROCS_FitTverskyCombo>
1.191 

> <ROCS_ColorScore>
-4.994

> <ROCS_Overlap>
147.886

> <ROCS_Rank>
21                  

$$$$
untitled-dbase-140520_63
  -OEChem-06232314393D

 19 19  0     0  0  0  0  0  0999 V2000
   -6.9684    6.0629  -36.7072 C   0  0  0  0  0  0  0  0  0  0  0  0
   -5.0451    5.5286  -35.9083 C   0  0  0  0  0  0  0  0  0  0  0  0
   -6.0027    6.7188  -35.6992 C   0  0  0  0  0  0  0  0  0  0  0  0
   -6.2359    4.7154  -36.4792 C   0  0  0  0  0  0  0  0  0  0  0  0
   -5.9311    3.9439  -37.7540 C   0  0  0  0  0  0  0  0  0  0  0  0
   -5.5193    4.8441  -38.7796 N   0  0  0  0  0  0  0  0  0  0  0  0
   -6.5075    6.8837  -34.3600 O   0  0  0  0  0  0  0  0  0  0  0  0
   -6.8830    3.8350  -35.5332 O   0  0  0  0  0  0  0  0  0  0  0  0
   -8.0160    6.0619  -36.3851 H   0  0  0  0  0  0  0  0  0  0  0  0
   -6.9200    6.4678  -37.7222 H   0  0  0  0  0  0  0  0  0  0  0  0
   -4.2200    5.7165  -36.6012 H   0  0  0  0  0  0  0  0  0  0  0  0
   -4.6308    5.1210  -34.9790 H   0  0  0  0  0  0  0  0  0  0  0  0
   -5.5880    7.6651  -36.0664 H   0  0  0  0  0  0  0  0  0  0  0  0
   -5.1343    3.2368  -37.5247 H   0  0  0  0  0  0  0  0  0  0  0  0
   -6.8429    3.4239  -38.0465 H   0  0  0  0  0  0  0  0  0  0  0  0
   -4.7093    5.3582  -38.4836 H   0  0  0  0  0  0  0  0  0  0  0  0
   -5.2925    4.3352  -39.6148 H   0  0  0  0  0  0  0  0  0  0  0  0
   -5.7947    7.3017  -33.8589 H   0  0  0  0  0  0  0  0  0  0  0  0
   -6.9105    4.3244  -34.7023 H   0  0  0  0  0  0  0  0  0  0  0  0
  1  3  1  0  0  0  0
  1  4  1  0  0  0  0
  2  3  1  0  0  0  0
  2  4  1  0  0  0  0
  3  7  1  0  0  0  0
  4  5  1  0  0  0  0
  4  8  1  0  0  0  0
  5  6  1  0  0  0  0
  1  9  1  0  0  0  0
  1 10  1  0  0  0  0
  2 11  1  0  0  0  0
  2 12  1  0  0  0  0
  3 13  1  0  0  0  0
  5 14  1  0  0  0  0
  5 15  1  0  0  0  0
  6 16  1  0  0  0  0
  6 17  1  0  0  0  0
  7 18  1  0  0  0  0
  8 19  1  0  0  0  0
M  END
> <id>
EN300-39667514

> <smiles>
Cl.NCC1(O)CC(O)C1

> <IUPAC Name>
1-(aminomethyl)cyclobutane-1,3-diol hydrochloride

> <URL>
https://www.enaminestore.com/catalog/EN300-39667514

> <ROCS_ShapeQuery>
hit0

> <ROCS_TanimotoCombo>
1.144 

> <ROCS_ShapeTanimoto>
0.520 

> <ROCS_ColorTanimoto>
0.624 

> <ROCS_RefTversky>
1.241 

> <ROCS_RefColorTversky>
0.825 

> <ROCS_RefTverskyCombo>
2.066 

> <ROCS_FitTversky>
0.473 

> <ROCS_FitColorTversky>
0.718 

> <ROCS_FitTverskyCombo>
1.191 

> <ROCS_ColorScore>
-4.994

> <ROCS_Overlap>
147.886

> <ROCS_Rank>
22                  

$$$$
untitled-dbase-4869_23
  -OEChem-06232314393D

 19 19  0     1  0  0  0  0  0999 V2000
   -7.6609    6.2295  -36.2196 C   0  0  0  0  0  0  0  0  0  0  0  0
   -6.8939    4.9743  -36.5759 C   0  0  1  0  0  0  0  0  0  0  0  0
   -5.4932    5.4980  -36.8607 C   0  0  1  0  0  0  0  0  0  0  0  0
   -6.6053    7.0676  -35.5174 C   0  0  2  0  0  0  0  0  0  0  0  0
   -5.2765    5.8292  -38.3313 C   0  0  0  0  0  0  0  0  0  0  0  0
   -5.3483    6.7207  -36.1121 O   0  0  0  0  0  0  0  0  0  0  0  0
   -6.8390    4.1081  -35.4452 O   0  0  0  0  0  0  0  0  0  0  0  0
   -6.6102    6.7648  -34.1270 O   0  0  0  0  0  0  0  0  0  0  0  0
   -5.4635    4.6500  -39.0940 O   0  0  0  0  0  0  0  0  0  0  0  0
   -7.9773    6.7346  -37.1394 H   0  0  0  0  0  0  0  0  0  0  0  0
   -8.5348    6.0377  -35.5899 H   0  0  0  0  0  0  0  0  0  0  0  0
   -7.3358    4.4158  -37.4056 H   0  0  0  0  0  0  0  0  0  0  0  0
   -4.7166    4.8037  -36.5215 H   0  0  0  0  0  0  0  0  0  0  0  0
   -6.7927    8.1387  -35.6435 H   0  0  0  0  0  0  0  0  0  0  0  0
   -4.2621    6.1995  -38.4865 H   0  0  0  0  0  0  0  0  0  0  0  0
   -5.9948    6.5836  -38.6555 H   0  0  0  0  0  0  0  0  0  0  0  0
   -6.3874    4.6000  -34.7419 H   0  0  0  0  0  0  0  0  0  0  0  0
   -5.9255    7.3185  -33.7192 H   0  0  0  0  0  0  0  0  0  0  0  0
   -5.3200    4.8878  -40.0257 H   0  0  0  0  0  0  0  0  0  0  0  0
  1  2  1  0  0  0  0
  1  4  1  0  0  0  0
  2  3  1  0  0  0  0
  2  7  1  6  0  0  0
  3  5  1  1  0  0  0
  3  6  1  0  0  0  0
  4  6  1  0  0  0  0
  4  8  1  0  0  0  0
  5  9  1  0  0  0  0
  1 10  1  0  0  0  0
  1 11  1  0  0  0  0
  2 12  1  0  0  0  0
  3 13  1  0  0  0  0
  4 14  1  0  0  0  0
  5 15  1  0  0  0  0
  5 16  1  0  0  0  0
  7 17  1  0  0  0  0
  8 18  1  0  0  0  0
  9 19  1  0  0  0  0
M  END
> <id>
EN300-104560

> <smiles>
OC[C@H]1OC(O)C[C@@H]1O

> <MDLNUMBER>
MFCD00075746

> <IUPAC Name>
(4S,5R)-5-(hydroxymethyl)oxolane-2,4-diol

> <CAS>
1831121-84-6

> <Purity>
95

> <URL>
https://www.enaminestore.com/catalog/EN300-104560

> <MP>
88-91

> <ROCS_ShapeQuery>
hit0

> <ROCS_TanimotoCombo>
1.141 

> <ROCS_ShapeTanimoto>
0.504 

> <ROCS_ColorTanimoto>
0.637 

> <ROCS_RefTversky>
1.338 

> <ROCS_RefColorTversky>
0.894 

> <ROCS_RefTverskyCombo>
2.232 

> <ROCS_FitTversky>
0.447 

> <ROCS_FitColorTversky>
0.689 

> <ROCS_FitTverskyCombo>
1.136 

> <ROCS_ColorScore>
-5.452

> <ROCS_Overlap>
163.163

> <ROCS_Rank>
23                  

$$$$
untitled-dbase-128444_107
  -OEChem-06232314393D

 19 19  0     1  0  0  0  0  0999 V2000
   -5.2022    5.5985  -36.0770 C   0  0  0  0  0  0  0  0  0  0  0  0
   -7.2457    6.0496  -36.6164 C   0  0  0  0  0  0  0  0  0  0  0  0
   -6.1827    6.7428  -35.7332 C   0  0  1  0  0  0  0  0  0  0  0  0
   -6.3920    4.7606  -36.5998 C   0  0  1  0  0  0  0  0  0  0  0  0
   -6.2212    4.0063  -37.8972 C   0  0  0  0  0  0  0  0  0  0  0  0
   -6.8730    3.8990  -35.5119 N   0  0  0  0  0  0  0  0  0  0  0  0
   -6.5146    6.8819  -34.3383 O   0  0  0  0  0  0  0  0  0  0  0  0
   -5.5078    4.8205  -38.8162 O   0  0  0  0  0  0  0  0  0  0  0  0
   -4.4380    5.8565  -36.8262 H   0  0  0  0  0  0  0  0  0  0  0  0
   -4.6756    5.1970  -35.1942 H   0  0  0  0  0  0  0  0  0  0  0  0
   -8.2354    5.9835  -36.1333 H   0  0  0  0  0  0  0  0  0  0  0  0
   -7.3922    6.5086  -37.6059 H   0  0  0  0  0  0  0  0  0  0  0  0
   -5.8576    7.7132  -36.1394 H   0  0  0  0  0  0  0  0  0  0  0  0
   -7.1957    3.7587  -38.3295 H   0  0  0  0  0  0  0  0  0  0  0  0
   -5.6573    3.0826  -37.7342 H   0  0  0  0  0  0  0  0  0  0  0  0
   -7.8217    4.1275  -35.3334 H   0  0  0  0  0  0  0  0  0  0  0  0
   -6.7875    2.9553  -35.8053 H   0  0  0  0  0  0  0  0  0  0  0  0
   -5.6786    7.0500  -33.8838 H   0  0  0  0  0  0  0  0  0  0  0  0
   -5.4165    4.3067  -39.6353 H   0  0  0  0  0  0  0  0  0  0  0  0
  1  3  1  0  0  0  0
  1  4  1  0  0  0  0
  2  3  1  0  0  0  0
  2  4  1  0  0  0  0
  3  7  1  6  0  0  0
  4  5  1  0  0  0  0
  4  6  1  6  0  0  0
  5  8  1  0  0  0  0
  1  9  1  0  0  0  0
  1 10  1  0  0  0  0
  2 11  1  0  0  0  0
  2 12  1  0  0  0  0
  3 13  1  0  0  0  0
  5 14  1  0  0  0  0
  5 15  1  0  0  0  0
  6 16  1  0  0  0  0
  6 17  1  0  0  0  0
  7 18  1  0  0  0  0
  8 19  1  0  0  0  0
M  END
> <id>
EN300-26667000

> <smiles>
Cl.N[C@]1(CO)C[C@H](O)C1

> <MDLNUMBER>
MFCD32668505

> <IUPAC Name>
(1s,3s)-3-amino-3-(hydroxymethyl)cyclobutan-1-ol hydrochloride

> <CAS>
2416233-77-5

> <Purity>
95

> <URL>
https://www.enaminestore.com/catalog/EN300-26667000

> <Saltdate>
Cl

> <ROCS_ShapeQuery>
hit0

> <ROCS_TanimotoCombo>
1.141 

> <ROCS_ShapeTanimoto>
0.519 

> <ROCS_ColorTanimoto>
0.622 

> <ROCS_RefTversky>
1.238 

> <ROCS_RefColorTversky>
0.824 

> <ROCS_RefTverskyCombo>
2.062 

> <ROCS_FitTversky>
0.472 

> <ROCS_FitColorTversky>
0.718 

> <ROCS_FitTverskyCombo>
1.189 

> <ROCS_ColorScore>
-4.987

> <ROCS_Overlap>
147.579

> <ROCS_Rank>
24                  

$$$$
untitled-dbase-128252_107
  -OEChem-06232314393D

 19 19  0     1  0  0  0  0  0999 V2000
   -5.2022    5.5985  -36.0770 C   0  0  0  0  0  0  0  0  0  0  0  0
   -7.2457    6.0496  -36.6164 C   0  0  0  0  0  0  0  0  0  0  0  0
   -6.1827    6.7428  -35.7332 C   0  0  1  0  0  0  0  0  0  0  0  0
   -6.3920    4.7606  -36.5998 C   0  0  1  0  0  0  0  0  0  0  0  0
   -6.2212    4.0063  -37.8972 C   0  0  0  0  0  0  0  0  0  0  0  0
   -6.8730    3.8990  -35.5119 N   0  0  0  0  0  0  0  0  0  0  0  0
   -6.5146    6.8819  -34.3383 O   0  0  0  0  0  0  0  0  0  0  0  0
   -5.5078    4.8205  -38.8162 O   0  0  0  0  0  0  0  0  0  0  0  0
   -4.4380    5.8565  -36.8262 H   0  0  0  0  0  0  0  0  0  0  0  0
   -4.6756    5.1970  -35.1942 H   0  0  0  0  0  0  0  0  0  0  0  0
   -8.2354    5.9835  -36.1333 H   0  0  0  0  0  0  0  0  0  0  0  0
   -7.3922    6.5086  -37.6059 H   0  0  0  0  0  0  0  0  0  0  0  0
   -5.8576    7.7132  -36.1394 H   0  0  0  0  0  0  0  0  0  0  0  0
   -7.1957    3.7587  -38.3295 H   0  0  0  0  0  0  0  0  0  0  0  0
   -5.6573    3.0826  -37.7342 H   0  0  0  0  0  0  0  0  0  0  0  0
   -7.8217    4.1275  -35.3334 H   0  0  0  0  0  0  0  0  0  0  0  0
   -6.7875    2.9553  -35.8053 H   0  0  0  0  0  0  0  0  0  0  0  0
   -5.6786    7.0500  -33.8838 H   0  0  0  0  0  0  0  0  0  0  0  0
   -5.4165    4.3067  -39.6353 H   0  0  0  0  0  0  0  0  0  0  0  0
  1  3  1  0  0  0  0
  1  4  1  0  0  0  0
  2  3  1  0  0  0  0
  2  4  1  0  0  0  0
  3  7  1  6  0  0  0
  4  5  1  0  0  0  0
  4  6  1  6  0  0  0
  5  8  1  0  0  0  0
  1  9  1  0  0  0  0
  1 10  1  0  0  0  0
  2 11  1  0  0  0  0
  2 12  1  0  0  0  0
  3 13  1  0  0  0  0
  5 14  1  0  0  0  0
  5 15  1  0  0  0  0
  6 16  1  0  0  0  0
  6 17  1  0  0  0  0
  7 18  1  0  0  0  0
  8 19  1  0  0  0  0
M  END
> <id>
EN300-26667001

> <smiles>
N[C@]1(CO)C[C@H](O)C1

> <IUPAC Name>
(1s,3s)-3-amino-3-(hydroxymethyl)cyclobutan-1-ol

> <CAS>
2416230-21-0

> <URL>
https://www.enaminestore.com/catalog/EN300-26667001

> <ROCS_ShapeQuery>
hit0

> <ROCS_TanimotoCombo>
1.141 

> <ROCS_ShapeTanimoto>
0.519 

> <ROCS_ColorTanimoto>
0.622 

> <ROCS_RefTversky>
1.238 

> <ROCS_RefColorTversky>
0.824 

> <ROCS_RefTverskyCombo>
2.062 

> <ROCS_FitTversky>
0.472 

> <ROCS_FitColorTversky>
0.718 

> <ROCS_FitTverskyCombo>
1.189 

> <ROCS_ColorScore>
-4.987

> <ROCS_Overlap>
147.579

> <ROCS_Rank>
25                  

$$$$
untitled-dbase-19194_70
  -OEChem-06232314393D

 19 19  0     1  0  0  0  0  0999 V2000
   -7.3314    4.7691  -36.6014 C   0  0  0  0  0  0  0  0  0  0  0  0
   -6.2832    4.5028  -34.5281 C   0  0  0  0  0  0  0  0  0  0  0  0
   -6.2289    5.8236  -36.5779 C   0  0  1  0  0  0  0  0  0  0  0  0
   -5.8191    5.8424  -35.1018 C   0  0  1  0  0  0  0  0  0  0  0  0
   -5.0532    5.4347  -37.4763 C   0  0  0  0  0  0  0  0  0  0  0  0
   -6.8569    3.7637  -35.6544 N   0  0  0  0  0  0  0  0  0  0  0  0
   -6.4877    6.9063  -34.4289 O   0  0  0  0  0  0  0  0  0  0  0  0
   -5.5611    4.8450  -38.6607 O   0  0  0  0  0  0  0  0  0  0  0  0
   -8.3038    5.1827  -36.2976 H   0  0  0  0  0  0  0  0  0  0  0  0
   -7.4560    4.3226  -37.6005 H   0  0  0  0  0  0  0  0  0  0  0  0
   -5.4238    3.9429  -34.1396 H   0  0  0  0  0  0  0  0  0  0  0  0
   -7.0095    4.6085  -33.7145 H   0  0  0  0  0  0  0  0  0  0  0  0
   -6.6022    6.7845  -36.8877 H   0  0  0  0  0  0  0  0  0  0  0  0
   -4.7450    5.9658  -34.9625 H   0  0  0  0  0  0  0  0  0  0  0  0
   -4.4112    4.7148  -36.9654 H   0  0  0  0  0  0  0  0  0  0  0  0
   -4.4710    6.3199  -37.7389 H   0  0  0  0  0  0  0  0  0  0  0  0
   -7.6613    3.2326  -35.3154 H   0  0  0  0  0  0  0  0  0  0  0  0
   -6.2550    6.8363  -33.4882 H   0  0  0  0  0  0  0  0  0  0  0  0
   -6.0694    4.0611  -38.3924 H   0  0  0  0  0  0  0  0  0  0  0  0
  1  3  1  0  0  0  0
  1  6  1  0  0  0  0
  2  4  1  0  0  0  0
  2  6  1  0  0  0  0
  3  4  1  0  0  0  0
  3  5  1  0  0  0  0
  4  7  1  0  0  0  0
  5  8  1  0  0  0  0
  1  9  1  0  0  0  0
  1 10  1  0  0  0  0
  2 11  1  0  0  0  0
  2 12  1  0  0  0  0
  3 13  1  0  0  0  0
  4 14  1  0  0  0  0
  5 15  1  0  0  0  0
  5 16  1  0  0  0  0
  6 17  1  0  0  0  0
  7 18  1  0  0  0  0
  8 19  1  0  0  0  0
M  END
> <id>
EN300-252792

> <smiles>
Cl.OCC1CNCC1O

> <MDLNUMBER>
MFCD28024801

> <IUPAC Name>
4-(hydroxymethyl)pyrrolidin-3-ol hydrochloride

> <CAS>
1609403-89-5

> <URL>
https://www.enaminestore.com/catalog/EN300-252792

> <Saltdate>
Cl

> <ROCS_ShapeQuery>
hit0

> <ROCS_TanimotoCombo>
1.138 

> <ROCS_ShapeTanimoto>
0.529 

> <ROCS_ColorTanimoto>
0.609 

> <ROCS_RefTversky>
1.261 

> <ROCS_RefColorTversky>
0.813 

> <ROCS_RefTverskyCombo>
2.074 

> <ROCS_FitTversky>
0.477 

> <ROCS_FitColorTversky>
0.708 

> <ROCS_FitTverskyCombo>
1.185 

> <ROCS_ColorScore>
-4.921

> <ROCS_Overlap>
150.474

> <ROCS_Rank>
26                  

$$$$
untitled-dbase-18215_70
  -OEChem-06232314393D

 19 19  0     1  0  0  0  0  0999 V2000
   -7.3314    4.7691  -36.6014 C   0  0  0  0  0  0  0  0  0  0  0  0
   -6.2832    4.5028  -34.5281 C   0  0  0  0  0  0  0  0  0  0  0  0
   -6.2289    5.8236  -36.5779 C   0  0  1  0  0  0  0  0  0  0  0  0
   -5.8191    5.8424  -35.1018 C   0  0  1  0  0  0  0  0  0  0  0  0
   -5.0532    5.4347  -37.4763 C   0  0  0  0  0  0  0  0  0  0  0  0
   -6.8569    3.7637  -35.6544 N   0  0  0  0  0  0  0  0  0  0  0  0
   -6.4877    6.9063  -34.4289 O   0  0  0  0  0  0  0  0  0  0  0  0
   -5.5611    4.8450  -38.6607 O   0  0  0  0  0  0  0  0  0  0  0  0
   -8.3038    5.1827  -36.2976 H   0  0  0  0  0  0  0  0  0  0  0  0
   -7.4560    4.3226  -37.6005 H   0  0  0  0  0  0  0  0  0  0  0  0
   -5.4238    3.9429  -34.1396 H   0  0  0  0  0  0  0  0  0  0  0  0
   -7.0095    4.6085  -33.7145 H   0  0  0  0  0  0  0  0  0  0  0  0
   -6.6022    6.7845  -36.8877 H   0  0  0  0  0  0  0  0  0  0  0  0
   -4.7450    5.9658  -34.9625 H   0  0  0  0  0  0  0  0  0  0  0  0
   -4.4112    4.7148  -36.9654 H   0  0  0  0  0  0  0  0  0  0  0  0
   -4.4710    6.3199  -37.7389 H   0  0  0  0  0  0  0  0  0  0  0  0
   -7.6613    3.2326  -35.3154 H   0  0  0  0  0  0  0  0  0  0  0  0
   -6.2550    6.8363  -33.4882 H   0  0  0  0  0  0  0  0  0  0  0  0
   -6.0694    4.0611  -38.3924 H   0  0  0  0  0  0  0  0  0  0  0  0
  1  3  1  0  0  0  0
  1  6  1  0  0  0  0
  2  4  1  0  0  0  0
  2  6  1  0  0  0  0
  3  4  1  0  0  0  0
  3  5  1  0  0  0  0
  4  7  1  0  0  0  0
  5  8  1  0  0  0  0
  1  9  1  0  0  0  0
  1 10  1  0  0  0  0
  2 11  1  0  0  0  0
  2 12  1  0  0  0  0
  3 13  1  0  0  0  0
  4 14  1  0  0  0  0
  5 15  1  0  0  0  0
  5 16  1  0  0  0  0
  6 17  1  0  0  0  0
  7 18  1  0  0  0  0
  8 19  1  0  0  0  0
M  END
> <id>
EN300-248521

> <smiles>
OCC1CNCC1O

> <MDLNUMBER>
MFCD19218318

> <IUPAC Name>
4-(hydroxymethyl)pyrrolidin-3-ol

> <CAS>
765-78-6

> <Purity>
95

> <URL>
https://www.enaminestore.com/catalog/EN300-248521

> <ROCS_ShapeQuery>
hit0

> <ROCS_TanimotoCombo>
1.138 

> <ROCS_ShapeTanimoto>
0.529 

> <ROCS_ColorTanimoto>
0.609 

> <ROCS_RefTversky>
1.261 

> <ROCS_RefColorTversky>
0.813 

> <ROCS_RefTverskyCombo>
2.074 

> <ROCS_FitTversky>
0.477 

> <ROCS_FitColorTversky>
0.708 

> <ROCS_FitTverskyCombo>
1.185 

> <ROCS_ColorScore>
-4.921

> <ROCS_Overlap>
150.474

> <ROCS_Rank>
27                  

$$$$
untitled-dbase-54518_14
  -OEChem-06232314393D

 14 14  0     0  0  0  0  0  0999 V2000
   -5.8089    5.7846  -36.2611 C   0  0  0  0  0  0  0  0  0  0  0  0
   -6.0633    4.4566  -36.6529 C   0  0  0  0  0  0  0  0  0  0  0  0
   -6.4397    5.9115  -35.0477 C   0  0  0  0  0  0  0  0  0  0  0  0
   -5.6169    3.7840  -37.8849 C   0  0  0  0  0  0  0  0  0  0  0  0
   -6.7983    3.7876  -35.7606 N   0  0  0  0  0  0  0  0  0  0  0  0
   -7.0110    4.6989  -34.7960 N   0  0  0  0  0  0  0  0  0  0  0  0
   -6.5555    6.9184  -34.1976 O   0  0  0  0  0  0  0  0  0  0  0  0
   -5.4954    4.7329  -38.9458 O   0  0  0  0  0  0  0  0  0  0  0  0
   -5.2472    6.5452  -36.7840 H   0  0  0  0  0  0  0  0  0  0  0  0
   -4.6363    3.2888  -37.7605 H   0  0  0  0  0  0  0  0  0  0  0  0
   -6.3249    2.9997  -38.2097 H   0  0  0  0  0  0  0  0  0  0  0  0
   -7.5574    4.4255  -33.9890 H   0  0  0  0  0  0  0  0  0  0  0  0
   -6.0929    7.7287  -34.5114 H   0  0  0  0  0  0  0  0  0  0  0  0
   -4.8407    5.3851  -38.6548 H   0  0  0  0  0  0  0  0  0  0  0  0
  1  2  1  0  0  0  0
  1  3  2  0  0  0  0
  2  4  1  0  0  0  0
  2  5  2  0  0  0  0
  3  6  1  0  0  0  0
  3  7  1  0  0  0  0
  4  8  1  0  0  0  0
  5  6  1  0  0  0  0
  1  9  1  0  0  0  0
  4 10  1  0  0  0  0
  4 11  1  0  0  0  0
  6 12  1  0  0  0  0
  7 13  1  0  0  0  0
  8 14  1  0  0  0  0
M  END
> <id>
EN300-702627

> <smiles>
OCC=1C=C(O)NN1

> <MDLNUMBER>
MFCD08236784

> <IUPAC Name>
3-(hydroxymethyl)-1H-pyrazol-5-ol

> <CAS>
70498-81-6

> <Purity>
95

> <URL>
https://www.enaminestore.com/catalog/EN300-702627

> <MP>
155-156

> <ROCS_ShapeQuery>
hit0

> <ROCS_TanimotoCombo>
1.137 

> <ROCS_ShapeTanimoto>
0.490 

> <ROCS_ColorTanimoto>
0.647 

> <ROCS_RefTversky>
1.251 

> <ROCS_RefColorTversky>
0.844 

> <ROCS_RefTverskyCombo>
2.095 

> <ROCS_FitTversky>
0.446 

> <ROCS_FitColorTversky>
0.734 

> <ROCS_FitTverskyCombo>
1.180 

> <ROCS_ColorScore>
-5.108

> <ROCS_Overlap>
150.766

> <ROCS_Rank>
28                  

$$$$
untitled-dbase-176077_6
  -OEChem-06232314393D

 17 17  0     1  0  0  0  0  0999 V2000
   -5.4748    5.8935  -37.8052 C   0  0  0  0  0  0  0  0  0  0  0  0
   -5.9950    4.4431  -37.8387 C   0  0  0  0  0  0  0  0  0  0  0  0
   -5.7569    5.8898  -36.2824 C   0  0  2  0  0  0  0  0  0  0  0  0
   -6.7989    4.7672  -36.5570 C   0  0  2  0  0  0  0  0  0  0  0  0
   -6.2923    7.1787  -35.6922 C   0  0  0  0  0  0  0  0  0  0  0  0
   -6.8882    3.7233  -35.5715 O   0  0  0  0  0  0  0  0  0  0  0  0
   -6.5027    6.9961  -34.3006 O   0  0  0  0  0  0  0  0  0  0  0  0
   -4.4286    6.0261  -38.0931 H   0  0  0  0  0  0  0  0  0  0  0  0
   -6.0936    6.5919  -38.3806 H   0  0  0  0  0  0  0  0  0  0  0  0
   -6.5906    4.1813  -38.7174 H   0  0  0  0  0  0  0  0  0  0  0  0
   -5.2147    3.6865  -37.6976 H   0  0  0  0  0  0  0  0  0  0  0  0
   -4.8965    5.5271  -35.7018 H   0  0  0  0  0  0  0  0  0  0  0  0
   -7.8060    5.1560  -36.7885 H   0  0  0  0  0  0  0  0  0  0  0  0
   -7.2428    7.4481  -36.1611 H   0  0  0  0  0  0  0  0  0  0  0  0
   -5.5763    7.9925  -35.8377 H   0  0  0  0  0  0  0  0  0  0  0  0
   -7.4157    4.0873  -34.8484 H   0  0  0  0  0  0  0  0  0  0  0  0
   -6.8444    7.8370  -33.9542 H   0  0  0  0  0  0  0  0  0  0  0  0
  1  2  1  0  0  0  0
  1  3  1  0  0  0  0
  2  4  1  0  0  0  0
  3  4  1  0  0  0  0
  3  5  1  6  0  0  0
  4  6  1  1  0  0  0
  5  7  1  0  0  0  0
  1  8  1  0  0  0  0
  1  9  1  0  0  0  0
  2 10  1  0  0  0  0
  2 11  1  0  0  0  0
  3 12  1  0  0  0  0
  4 13  1  0  0  0  0
  5 14  1  0  0  0  0
  5 15  1  0  0  0  0
  6 16  1  0  0  0  0
  7 17  1  0  0  0  0
M  END
> <id>
EN300-22120832

> <smiles>
OC[C@@H]1CC[C@H]1O |&1:2,5,r|

> <MDLNUMBER>
MFCD31705687

> <IUPAC Name>
rac-(1R,2S)-2-(hydroxymethyl)cyclobutan-1-ol

> <Purity>
95

> <URL>
https://www.enaminestore.com/catalog/EN300-22120832

> <ROCS_ShapeQuery>
hit0

> <ROCS_TanimotoCombo>
1.135 

> <ROCS_ShapeTanimoto>
0.571 

> <ROCS_ColorTanimoto>
0.564 

> <ROCS_RefTversky>
1.195 

> <ROCS_RefColorTversky>
0.667 

> <ROCS_RefTverskyCombo>
1.862 

> <ROCS_FitTversky>
0.522 

> <ROCS_FitColorTversky>
0.786 

> <ROCS_FitTverskyCombo>
1.308 

> <ROCS_ColorScore>
-3.969

> <ROCS_Overlap>
139.563

> <ROCS_Rank>
29                  

$$$$
untitled-dbase-114184_113
  -OEChem-06232314393D

 19 19  0     0  0  0  0  0  0999 V2000
   -7.2004    6.0912  -36.6676 C   0  0  0  0  0  0  0  0  0  0  0  0
   -5.1688    5.6154  -36.1148 C   0  0  0  0  0  0  0  0  0  0  0  0
   -6.1076    6.8074  -35.8533 C   0  0  0  0  0  0  0  0  0  0  0  0
   -6.3984    4.7650  -36.5417 C   0  0  0  0  0  0  0  0  0  0  0  0
   -6.2116    4.0063  -37.8473 C   0  0  0  0  0  0  0  0  0  0  0  0
   -6.4931    6.7999  -34.4427 N   0  0  0  0  0  0  0  0  0  0  0  0
   -6.8789    3.8524  -35.5293 O   0  0  0  0  0  0  0  0  0  0  0  0
   -5.5203    4.8399  -38.7603 O   0  0  0  0  0  0  0  0  0  0  0  0
   -8.1972    6.0412  -36.1991 H   0  0  0  0  0  0  0  0  0  0  0  0
   -7.3364    6.4720  -37.6903 H   0  0  0  0  0  0  0  0  0  0  0  0
   -4.4134    5.7867  -36.8954 H   0  0  0  0  0  0  0  0  0  0  0  0
   -4.6462    5.2097  -35.2329 H   0  0  0  0  0  0  0  0  0  0  0  0
   -5.7749    7.7684  -36.2483 H   0  0  0  0  0  0  0  0  0  0  0  0
   -7.1824    3.7409  -38.2677 H   0  0  0  0  0  0  0  0  0  0  0  0
   -5.6277    3.1016  -37.6741 H   0  0  0  0  0  0  0  0  0  0  0  0
   -7.4439    6.5180  -34.3777 H   0  0  0  0  0  0  0  0  0  0  0  0
   -5.9067    6.1588  -33.9601 H   0  0  0  0  0  0  0  0  0  0  0  0
   -6.8160    4.3350  -34.6964 H   0  0  0  0  0  0  0  0  0  0  0  0
   -6.0670    5.6330  -38.8922 H   0  0  0  0  0  0  0  0  0  0  0  0
  1  3  1  0  0  0  0
  1  4  1  0  0  0  0
  2  3  1  0  0  0  0
  2  4  1  0  0  0  0
  3  6  1  0  0  0  0
  4  5  1  0  0  0  0
  4  7  1  0  0  0  0
  5  8  1  0  0  0  0
  1  9  1  0  0  0  0
  1 10  1  0  0  0  0
  2 11  1  0  0  0  0
  2 12  1  0  0  0  0
  3 13  1  0  0  0  0
  5 14  1  0  0  0  0
  5 15  1  0  0  0  0
  6 16  1  0  0  0  0
  6 17  1  0  0  0  0
  7 18  1  0  0  0  0
  8 19  1  0  0  0  0
M  END
> <id>
EN300-7631371

> <smiles>
Cl.NC1CC(O)(CO)C1

> <MDLNUMBER>
MFCD34595151

> <IUPAC Name>
3-amino-1-(hydroxymethyl)cyclobutan-1-ol hydrochloride

> <CAS>
2751615-80-0

> <Purity>
95

> <URL>
https://www.enaminestore.com/catalog/EN300-7631371

> <ROCS_ShapeQuery>
hit0

> <ROCS_TanimotoCombo>
1.135 

> <ROCS_ShapeTanimoto>
0.517 

> <ROCS_ColorTanimoto>
0.618 

> <ROCS_RefTversky>
1.238 

> <ROCS_RefColorTversky>
0.821 

> <ROCS_RefTverskyCombo>
2.058 

> <ROCS_FitTversky>
0.470 

> <ROCS_FitColorTversky>
0.714 

> <ROCS_FitTverskyCombo>
1.184 

> <ROCS_ColorScore>
-4.966

> <ROCS_Overlap>
147.638

> <ROCS_Rank>
30                  

$$$$
untitled-dbase-138152_113
  -OEChem-06232314393D

 19 19  0     0  0  0  0  0  0999 V2000
   -7.2004    6.0912  -36.6676 C   0  0  0  0  0  0  0  0  0  0  0  0
   -5.1688    5.6154  -36.1148 C   0  0  0  0  0  0  0  0  0  0  0  0
   -6.1076    6.8074  -35.8533 C   0  0  0  0  0  0  0  0  0  0  0  0
   -6.3984    4.7650  -36.5417 C   0  0  0  0  0  0  0  0  0  0  0  0
   -6.2116    4.0063  -37.8473 C   0  0  0  0  0  0  0  0  0  0  0  0
   -6.4931    6.7999  -34.4427 N   0  0  0  0  0  0  0  0  0  0  0  0
   -6.8789    3.8524  -35.5293 O   0  0  0  0  0  0  0  0  0  0  0  0
   -5.5203    4.8399  -38.7603 O   0  0  0  0  0  0  0  0  0  0  0  0
   -8.1972    6.0412  -36.1991 H   0  0  0  0  0  0  0  0  0  0  0  0
   -7.3364    6.4720  -37.6903 H   0  0  0  0  0  0  0  0  0  0  0  0
   -4.4134    5.7867  -36.8954 H   0  0  0  0  0  0  0  0  0  0  0  0
   -4.6462    5.2097  -35.2329 H   0  0  0  0  0  0  0  0  0  0  0  0
   -5.7749    7.7684  -36.2483 H   0  0  0  0  0  0  0  0  0  0  0  0
   -7.1824    3.7409  -38.2677 H   0  0  0  0  0  0  0  0  0  0  0  0
   -5.6277    3.1016  -37.6741 H   0  0  0  0  0  0  0  0  0  0  0  0
   -7.4439    6.5180  -34.3777 H   0  0  0  0  0  0  0  0  0  0  0  0
   -5.9067    6.1588  -33.9601 H   0  0  0  0  0  0  0  0  0  0  0  0
   -6.8160    4.3350  -34.6964 H   0  0  0  0  0  0  0  0  0  0  0  0
   -6.0670    5.6330  -38.8922 H   0  0  0  0  0  0  0  0  0  0  0  0
  1  3  1  0  0  0  0
  1  4  1  0  0  0  0
  2  3  1  0  0  0  0
  2  4  1  0  0  0  0
  3  6  1  0  0  0  0
  4  5  1  0  0  0  0
  4  7  1  0  0  0  0
  5  8  1  0  0  0  0
  1  9  1  0  0  0  0
  1 10  1  0  0  0  0
  2 11  1  0  0  0  0
  2 12  1  0  0  0  0
  3 13  1  0  0  0  0
  5 14  1  0  0  0  0
  5 15  1  0  0  0  0
  6 16  1  0  0  0  0
  6 17  1  0  0  0  0
  7 18  1  0  0  0  0
  8 19  1  0  0  0  0
M  END
> <id>
EN300-5232963

> <smiles>
NC1CC(O)(CO)C1

> <MDLNUMBER>
MFCD24627616

> <IUPAC Name>
3-amino-1-(hydroxymethyl)cyclobutan-1-ol

> <CAS>
1272667-83-0

> <Purity>
95

> <URL>
https://www.enaminestore.com/catalog/EN300-5232963

> <ROCS_ShapeQuery>
hit0

> <ROCS_TanimotoCombo>
1.135 

> <ROCS_ShapeTanimoto>
0.517 

> <ROCS_ColorTanimoto>
0.618 

> <ROCS_RefTversky>
1.238 

> <ROCS_RefColorTversky>
0.821 

> <ROCS_RefTverskyCombo>
2.058 

> <ROCS_FitTversky>
0.470 

> <ROCS_FitColorTversky>
0.714 

> <ROCS_FitTverskyCombo>
1.184 

> <ROCS_ColorScore>
-4.966

> <ROCS_Overlap>
147.638

> <ROCS_Rank>
31                  

$$$$
untitled-dbase-4858_23
  -OEChem-06232314393D

 19 19  0     1  0  0  0  0  0999 V2000
   -4.9223    5.5145  -35.2887 C   0  0  0  0  0  0  0  0  0  0  0  0
   -5.7946    4.6887  -36.2087 C   0  0  2  0  0  0  0  0  0  0  0  0
   -6.3663    5.7279  -37.1639 C   0  0  2  0  0  0  0  0  0  0  0  0
   -5.6852    6.8264  -35.2059 C   0  0  1  0  0  0  0  0  0  0  0  0
   -5.5231    5.8963  -38.4207 C   0  0  0  0  0  0  0  0  0  0  0  0
   -6.3583    6.9857  -36.4608 O   0  0  0  0  0  0  0  0  0  0  0  0
   -6.8473    4.1079  -35.4432 O   0  0  0  0  0  0  0  0  0  0  0  0
   -6.6182    6.7637  -34.1332 O   0  0  0  0  0  0  0  0  0  0  0  0
   -5.4568    4.6508  -39.0926 O   0  0  0  0  0  0  0  0  0  0  0  0
   -4.7691    5.0536  -34.3083 H   0  0  0  0  0  0  0  0  0  0  0  0
   -3.9513    5.6852  -35.7672 H   0  0  0  0  0  0  0  0  0  0  0  0
   -5.2515    3.8774  -36.7020 H   0  0  0  0  0  0  0  0  0  0  0  0
   -7.4022    5.5068  -37.4426 H   0  0  0  0  0  0  0  0  0  0  0  0
   -5.0122    7.6728  -35.0354 H   0  0  0  0  0  0  0  0  0  0  0  0
   -4.5139    6.2145  -38.1551 H   0  0  0  0  0  0  0  0  0  0  0  0
   -5.9778    6.6362  -39.0810 H   0  0  0  0  0  0  0  0  0  0  0  0
   -7.3447    4.8441  -35.0546 H   0  0  0  0  0  0  0  0  0  0  0  0
   -7.0808    7.6166  -34.1164 H   0  0  0  0  0  0  0  0  0  0  0  0
   -4.9149    4.7852  -39.8885 H   0  0  0  0  0  0  0  0  0  0  0  0
  1  2  1  0  0  0  0
  1  4  1  0  0  0  0
  2  3  1  0  0  0  0
  2  7  1  1  0  0  0
  3  5  1  6  0  0  0
  3  6  1  0  0  0  0
  4  6  1  0  0  0  0
  4  8  1  0  0  0  0
  5  9  1  0  0  0  0
  1 10  1  0  0  0  0
  1 11  1  0  0  0  0
  2 12  1  0  0  0  0
  3 13  1  0  0  0  0
  4 14  1  0  0  0  0
  5 15  1  0  0  0  0
  5 16  1  0  0  0  0
  7 17  1  0  0  0  0
  8 18  1  0  0  0  0
  9 19  1  0  0  0  0
M  END
> <id>
EN300-104539

> <smiles>
OC[C@@H]1OC(O)C[C@H]1O

> <MDLNUMBER>
MFCD00132941

> <IUPAC Name>
(4R,5S)-5-(hydroxymethyl)oxolane-2,4-diol

> <CAS>
2640030-37-9

> <Purity>
95

> <URL>
https://www.enaminestore.com/catalog/EN300-104539

> <MP>
80-85

> <ROCS_ShapeQuery>
hit0

> <ROCS_TanimotoCombo>
1.134 

> <ROCS_ShapeTanimoto>
0.496 

> <ROCS_ColorTanimoto>
0.637 

> <ROCS_RefTversky>
1.324 

> <ROCS_RefColorTversky>
0.894 

> <ROCS_RefTverskyCombo>
2.218 

> <ROCS_FitTversky>
0.443 

> <ROCS_FitColorTversky>
0.690 

> <ROCS_FitTverskyCombo>
1.132 

> <ROCS_ColorScore>
-5.454

> <ROCS_Overlap>
161.466

> <ROCS_Rank>
32                  

$$$$
untitled-dbase-103309_0
  -OEChem-06232314393D

 17 17  0     0  0  0  0  0  0999 V2000
   -4.7085    6.3800  -37.1308 C   0  0  0  0  0  0  0  0  0  0  0  0
   -4.8066    5.9174  -38.4331 C   0  0  0  0  0  0  0  0  0  0  0  0
   -5.4070    5.6953  -36.1426 C   0  0  0  0  0  0  0  0  0  0  0  0
   -6.1715    4.5846  -36.4822 C   0  0  0  0  0  0  0  0  0  0  0  0
   -6.2043    4.2026  -37.8136 C   0  0  0  0  0  0  0  0  0  0  0  0
   -5.3167    6.1748  -34.7307 C   0  0  0  0  0  0  0  0  0  0  0  0
   -5.5391    4.8425  -38.8013 N   0  0  0  0  0  0  0  0  0  0  0  0
   -6.8861    3.8781  -35.4950 N   0  0  0  0  0  0  0  0  0  0  0  0
   -6.5248    6.8375  -34.3813 O   0  0  0  0  0  0  0  0  0  0  0  0
   -7.1110    2.8473  -38.3667 Cl  0  0  0  0  0  0  0  0  0  0  0  0
   -4.1028    7.2497  -36.8993 H   0  0  0  0  0  0  0  0  0  0  0  0
   -4.2809    6.4162  -39.2408 H   0  0  0  0  0  0  0  0  0  0  0  0
   -5.1588    5.3399  -34.0356 H   0  0  0  0  0  0  0  0  0  0  0  0
   -4.4796    6.8735  -34.6043 H   0  0  0  0  0  0  0  0  0  0  0  0
   -7.4677    3.1103  -35.7668 H   0  0  0  0  0  0  0  0  0  0  0  0
   -6.8766    4.2113  -34.5513 H   0  0  0  0  0  0  0  0  0  0  0  0
   -6.4264    7.1323  -33.4616 H   0  0  0  0  0  0  0  0  0  0  0  0
  1  2  1  0  0  0  0
  1  3  2  0  0  0  0
  2  7  2  0  0  0  0
  3  4  1  0  0  0  0
  3  6  1  0  0  0  0
  4  5  2  0  0  0  0
  4  8  1  0  0  0  0
  5  7  1  0  0  0  0
  5 10  1  0  0  0  0
  6  9  1  0  0  0  0
  1 11  1  0  0  0  0
  2 12  1  0  0  0  0
  6 13  1  0  0  0  0
  6 14  1  0  0  0  0
  8 15  1  0  0  0  0
  8 16  1  0  0  0  0
  9 17  1  0  0  0  0
M  END
> <id>
EN300-7563170

> <smiles>
NC=1C(Cl)=NC=CC1CO

> <MDLNUMBER>
MFCD17168844

> <IUPAC Name>
(3-amino-2-chloropyridin-4-yl)methanol

> <CAS>
1002129-57-8

> <Purity>
95

> <URL>
https://www.enaminestore.com/catalog/EN300-7563170

> <ROCS_ShapeQuery>
hit0

> <ROCS_TanimotoCombo>
1.133 

> <ROCS_ShapeTanimoto>
0.426 

> <ROCS_ColorTanimoto>
0.706 

> <ROCS_RefTversky>
1.282 

> <ROCS_RefColorTversky>
0.828 

> <ROCS_RefTverskyCombo>
2.110 

> <ROCS_FitTversky>
0.390 

> <ROCS_FitColorTversky>
0.828 

> <ROCS_FitTverskyCombo>
1.218 

> <ROCS_ColorScore>
-4.967

> <ROCS_Overlap>
159.297

> <ROCS_Rank>
33                  

$$$$
untitled-dbase-99736_291
  -OEChem-06232314393D

 23 23  0     1  0  0  0  0  0999 V2000
   -5.2958    6.3600  -36.7023 C   0  0  0  0  0  0  0  0  0  0  0  0
   -7.6858    5.9167  -36.5582 C   0  0  0  0  0  0  0  0  0  0  0  0
   -5.5816    4.9342  -37.2048 C   0  0  1  0  0  0  0  0  0  0  0  0
   -6.9820    4.5696  -36.7166 C   0  0  1  0  0  0  0  0  0  0  0  0
   -6.5874    6.8402  -36.0215 C   0  0  0  0  0  0  0  0  0  0  0  0
   -6.8814    8.3107  -36.2804 C   0  0  0  0  0  0  0  0  0  0  0  0
   -8.0919    8.6891  -35.6278 N   0  0  0  0  0  0  0  0  0  0  0  0
   -5.5474    4.9186  -38.6290 O   0  0  0  0  0  0  0  0  0  0  0  0
   -6.8817    3.9161  -35.4569 O   0  0  0  0  0  0  0  0  0  0  0  0
   -6.4701    6.6773  -34.6067 O   0  0  0  0  0  0  0  0  0  0  0  0
   -4.4318    6.3522  -36.0115 H   0  0  0  0  0  0  0  0  0  0  0  0
   -5.0129    7.0157  -37.5491 H   0  0  0  0  0  0  0  0  0  0  0  0
   -8.0107    6.2610  -37.5422 H   0  0  0  0  0  0  0  0  0  0  0  0
   -8.5459    5.8627  -35.8916 H   0  0  0  0  0  0  0  0  0  0  0  0
   -4.8222    4.2347  -36.8465 H   0  0  0  0  0  0  0  0  0  0  0  0
   -7.5156    3.9219  -37.4008 H   0  0  0  0  0  0  0  0  0  0  0  0
   -6.0428    8.8878  -35.8889 H   0  0  0  0  0  0  0  0  0  0  0  0
   -6.9743    8.4428  -37.3589 H   0  0  0  0  0  0  0  0  0  0  0  0
   -8.7506    9.0393  -36.2993 H   0  0  0  0  0  0  0  0  0  0  0  0
   -8.4939    7.8963  -35.1617 H   0  0  0  0  0  0  0  0  0  0  0  0
   -5.7314    4.0057  -38.9074 H   0  0  0  0  0  0  0  0  0  0  0  0
   -7.7886    3.7896  -35.1351 H   0  0  0  0  0  0  0  0  0  0  0  0
   -5.7124    7.2149  -34.3311 H   0  0  0  0  0  0  0  0  0  0  0  0
  1  3  1  0  0  0  0
  1  5  1  0  0  0  0
  2  4  1  0  0  0  0
  2  5  1  0  0  0  0
  3  4  1  0  0  0  0
  3  8  1  0  0  0  0
  4  9  1  0  0  0  0
  5  6  1  0  0  0  0
  5 10  1  0  0  0  0
  6  7  1  0  0  0  0
  1 11  1  0  0  0  0
  1 12  1  0  0  0  0
  2 13  1  0  0  0  0
  2 14  1  0  0  0  0
  3 15  1  0  0  0  0
  4 16  1  0  0  0  0
  6 17  1  0  0  0  0
  6 18  1  0  0  0  0
  7 19  1  0  0  0  0
  7 20  1  0  0  0  0
  8 21  1  0  0  0  0
  9 22  1  0  0  0  0
 10 23  1  0  0  0  0
M  END
> <id>
EN300-37463280

> <smiles>
NCC1(O)CC(O)C(O)C1

> <IUPAC Name>
4-(aminomethyl)cyclopentane-1,2,4-triol

> <URL>
https://www.enaminestore.com/catalog/EN300-37463280

> <ROCS_ShapeQuery>
hit0

> <ROCS_TanimotoCombo>
1.126 

> <ROCS_ShapeTanimoto>
0.525 

> <ROCS_ColorTanimoto>
0.601 

> <ROCS_RefTversky>
1.459 

> <ROCS_RefColorTversky>
0.916 

> <ROCS_RefTverskyCombo>
2.375 

> <ROCS_FitTversky>
0.450 

> <ROCS_FitColorTversky>
0.637 

> <ROCS_FitTverskyCombo>
1.087 

> <ROCS_ColorScore>
-5.634

> <ROCS_Overlap>
180.769

> <ROCS_Rank>
34                  

$$$$
untitled-dbase-124685_9
  -OEChem-06232314393D

 17 17  0     1  0  0  0  0  0999 V2000
   -6.3763    6.4997  -35.0370 C   0  0  0  0  0  0  0  0  0  0  0  0
   -7.5262    5.8796  -35.7763 C   0  0  0  0  0  0  0  0  0  0  0  0
   -6.8905    4.6521  -36.3909 C   0  0  1  0  0  0  0  0  0  0  0  0
   -5.4365    5.0469  -36.5552 C   0  0  1  0  0  0  0  0  0  0  0  0
   -5.1441    5.7429  -37.8771 C   0  0  0  0  0  0  0  0  0  0  0  0
   -6.4699    7.3673  -34.1824 O   0  0  0  0  0  0  0  0  0  0  0  0
   -5.1951    5.9746  -35.4826 O   0  0  0  0  0  0  0  0  0  0  0  0
   -6.9666    3.5699  -35.4643 O   0  0  0  0  0  0  0  0  0  0  0  0
   -5.4687    4.8599  -38.9367 O   0  0  0  0  0  0  0  0  0  0  0  0
   -8.3315    5.6319  -35.0803 H   0  0  0  0  0  0  0  0  0  0  0  0
   -7.8652    6.5869  -36.5388 H   0  0  0  0  0  0  0  0  0  0  0  0
   -7.3724    4.3324  -37.3191 H   0  0  0  0  0  0  0  0  0  0  0  0
   -4.7622    4.1942  -36.4203 H   0  0  0  0  0  0  0  0  0  0  0  0
   -4.0860    6.0024  -37.9386 H   0  0  0  0  0  0  0  0  0  0  0  0
   -5.7478    6.6474  -37.9669 H   0  0  0  0  0  0  0  0  0  0  0  0
   -6.5503    2.8085  -35.8962 H   0  0  0  0  0  0  0  0  0  0  0  0
   -5.2733    5.3274  -39.7664 H   0  0  0  0  0  0  0  0  0  0  0  0
  1  2  1  0  0  0  0
  1  6  2  0  0  0  0
  1  7  1  0  0  0  0
  2  3  1  0  0  0  0
  3  4  1  0  0  0  0
  3  8  1  6  0  0  0
  4  5  1  1  0  0  0
  4  7  1  0  0  0  0
  5  9  1  0  0  0  0
  2 10  1  0  0  0  0
  2 11  1  0  0  0  0
  3 12  1  0  0  0  0
  4 13  1  0  0  0  0
  5 14  1  0  0  0  0
  5 15  1  0  0  0  0
  8 16  1  0  0  0  0
  9 17  1  0  0  0  0
M  END
> <id>
EN300-1699866

> <smiles>
OC[C@H]1OC(=O)C[C@@H]1O

> <MDLNUMBER>
MFCD15144952

> <IUPAC Name>
(4S,5R)-4-hydroxy-5-(hydroxymethyl)oxolan-2-one

> <CAS>
34371-14-7

> <Purity>
95

> <URL>
https://www.enaminestore.com/catalog/EN300-1699866

> <MP>
153-154

> <ROCS_ShapeQuery>
hit0

> <ROCS_TanimotoCombo>
1.125 

> <ROCS_ShapeTanimoto>
0.500 

> <ROCS_ColorTanimoto>
0.626 

> <ROCS_RefTversky>
1.342 

> <ROCS_RefColorTversky>
0.770 

> <ROCS_RefTverskyCombo>
2.112 

> <ROCS_FitTversky>
0.443 

> <ROCS_FitColorTversky>
0.770 

> <ROCS_FitTverskyCombo>
1.213 

> <ROCS_ColorScore>
-4.619

> <ROCS_Overlap>
164.058

> <ROCS_Rank>
35                  

$$$$
untitled-dbase-41710_3
  -OEChem-06232314393D

 16 16  0     0  0  0  0  0  0999 V2000
   -6.2938    8.3072  -37.7709 C   0  0  0  0  0  0  0  0  0  0  0  0
   -5.9953    7.1696  -38.5208 C   0  0  0  0  0  0  0  0  0  0  0  0
   -6.4598    8.2082  -36.3895 C   0  0  0  0  0  0  0  0  0  0  0  0
   -6.0290    5.8339  -36.5079 C   0  0  0  0  0  0  0  0  0  0  0  0
   -5.8630    5.9329  -37.8893 C   0  0  0  0  0  0  0  0  0  0  0  0
   -6.3274    6.9715  -35.7580 C   0  0  0  0  0  0  0  0  0  0  0  0
   -5.8913    4.5407  -35.8475 C   0  0  0  0  0  0  0  0  0  0  0  0
   -6.8381    3.7712  -35.6779 O   0  0  0  0  0  0  0  0  0  0  0  0
   -5.5700    4.8343  -38.6413 O   0  0  0  0  0  0  0  0  0  0  0  0
   -6.4929    6.8975  -34.4070 O   0  0  0  0  0  0  0  0  0  0  0  0
   -6.3963    9.2704  -38.2626 H   0  0  0  0  0  0  0  0  0  0  0  0
   -5.8677    7.2539  -39.5965 H   0  0  0  0  0  0  0  0  0  0  0  0
   -6.6926    9.0985  -35.8118 H   0  0  0  0  0  0  0  0  0  0  0  0
   -4.8791    4.2590  -35.4898 H   0  0  0  0  0  0  0  0  0  0  0  0
   -5.4885    5.0809  -39.5757 H   0  0  0  0  0  0  0  0  0  0  0  0
   -6.6936    7.7750  -34.0462 H   0  0  0  0  0  0  0  0  0  0  0  0
  1  2  1  0  0  0  0
  1  3  2  0  0  0  0
  2  5  2  0  0  0  0
  3  6  1  0  0  0  0
  4  5  1  0  0  0  0
  4  6  2  0  0  0  0
  4  7  1  0  0  0  0
  5  9  1  0  0  0  0
  6 10  1  0  0  0  0
  7  8  2  0  0  0  0
  1 11  1  0  0  0  0
  2 12  1  0  0  0  0
  3 13  1  0  0  0  0
  7 14  1  0  0  0  0
  9 15  1  0  0  0  0
 10 16  1  0  0  0  0
M  END
> <id>
EN300-861906

> <smiles>
OC=1C=CC=C(O)C1C=O

> <MDLNUMBER>
MFCD08061915

> <IUPAC Name>
2,6-dihydroxybenzaldehyde

> <CAS>
387-46-2

> <Purity>
95

> <URL>
https://www.enaminestore.com/catalog/EN300-861906

> <MP>
154-156

> <ROCS_ShapeQuery>
hit0

> <ROCS_TanimotoCombo>
1.123 

> <ROCS_ShapeTanimoto>
0.431 

> <ROCS_ColorTanimoto>
0.692 

> <ROCS_RefTversky>
1.322 

> <ROCS_RefColorTversky>
0.818 

> <ROCS_RefTverskyCombo>
2.140 

> <ROCS_FitTversky>
0.390 

> <ROCS_FitColorTversky>
0.818 

> <ROCS_FitTverskyCombo>
1.208 

> <ROCS_ColorScore>
-4.909

> <ROCS_Overlap>
165.255

> <ROCS_Rank>
36                  

$$$$
untitled-dbase-177560_42
  -OEChem-06232314393D

 19 19  0     1  0  0  0  0  0999 V2000
   -5.5126    5.6587  -36.0634 C   0  0  0  0  0  0  0  0  0  0  0  0
   -7.6834    5.0033  -35.2064 C   0  0  0  0  0  0  0  0  0  0  0  0
   -6.8033    6.2181  -35.4805 C   0  0  1  0  0  0  0  0  0  0  0  0
   -5.8898    4.2679  -36.5501 C   0  0  2  0  0  0  0  0  0  0  0  0
   -6.4687    4.2643  -37.9640 C   0  0  0  0  0  0  0  0  0  0  0  0
   -6.8666    3.8359  -35.5476 N   0  0  0  0  0  0  0  0  0  0  0  0
   -6.5215    6.9341  -34.2895 O   0  0  0  0  0  0  0  0  0  0  0  0
   -5.5053    4.8029  -38.8544 O   0  0  0  0  0  0  0  0  0  0  0  0
   -5.1853    6.2878  -36.9079 H   0  0  0  0  0  0  0  0  0  0  0  0
   -4.6918    5.6232  -35.3312 H   0  0  0  0  0  0  0  0  0  0  0  0
   -8.0020    4.9564  -34.1581 H   0  0  0  0  0  0  0  0  0  0  0  0
   -8.5795    5.0138  -35.8356 H   0  0  0  0  0  0  0  0  0  0  0  0
   -7.2745    6.9205  -36.1975 H   0  0  0  0  0  0  0  0  0  0  0  0
   -5.0086    3.6053  -36.5188 H   0  0  0  0  0  0  0  0  0  0  0  0
   -7.3725    4.8766  -38.0050 H   0  0  0  0  0  0  0  0  0  0  0  0
   -6.7078    3.2442  -38.2732 H   0  0  0  0  0  0  0  0  0  0  0  0
   -6.4005    3.4611  -34.7180 H   0  0  0  0  0  0  0  0  0  0  0  0
   -5.9155    7.6522  -34.5324 H   0  0  0  0  0  0  0  0  0  0  0  0
   -5.9003    4.7878  -39.7421 H   0  0  0  0  0  0  0  0  0  0  0  0
  1  3  1  0  0  0  0
  1  4  1  0  0  0  0
  2  3  1  0  0  0  0
  2  6  1  0  0  0  0
  3  7  1  6  0  0  0
  4  5  1  1  0  0  0
  4  6  1  0  0  0  0
  5  8  1  0  0  0  0
  1  9  1  0  0  0  0
  1 10  1  0  0  0  0
  2 11  1  0  0  0  0
  2 12  1  0  0  0  0
  3 13  1  0  0  0  0
  4 14  1  0  0  0  0
  5 15  1  0  0  0  0
  5 16  1  0  0  0  0
  6 17  1  0  0  0  0
  7 18  1  0  0  0  0
  8 19  1  0  0  0  0
M  END
> <id>
EN300-6477979

> <smiles>
OC[C@H]1C[C@H](O)CN1

> <MDLNUMBER>
MFCD19217761

> <IUPAC Name>
(3S,5R)-5-(hydroxymethyl)pyrrolidin-3-ol

> <CAS>
1046134-67-1

> <URL>
https://www.enaminestore.com/catalog/EN300-6477979

> <ROCS_ShapeQuery>
hit0

> <ROCS_TanimotoCombo>
1.122 

> <ROCS_ShapeTanimoto>
0.500 

> <ROCS_ColorTanimoto>
0.622 

> <ROCS_RefTversky>
1.218 

> <ROCS_RefColorTversky>
0.824 

> <ROCS_RefTverskyCombo>
2.042 

> <ROCS_FitTversky>
0.459 

> <ROCS_FitColorTversky>
0.718 

> <ROCS_FitTverskyCombo>
1.176 

> <ROCS_ColorScore>
-4.987

> <ROCS_Overlap>
145.466

> <ROCS_Rank>
37                  

$$$$
untitled-dbase-9341_39
  -OEChem-06232314393D

 19 19  0     1  0  0  0  0  0999 V2000
   -6.7641    5.9712  -36.4797 C   0  0  0  0  0  0  0  0  0  0  0  0
   -6.0252    4.5861  -34.6368 C   0  0  0  0  0  0  0  0  0  0  0  0
   -5.9537    6.0040  -35.1929 C   0  0  2  0  0  0  0  0  0  0  0  0
   -6.7999    4.4996  -36.8596 C   0  0  1  0  0  0  0  0  0  0  0  0
   -5.5715    4.0513  -37.6483 C   0  0  0  0  0  0  0  0  0  0  0  0
   -6.8766    3.8169  -35.5586 N   0  0  0  0  0  0  0  0  0  0  0  0
   -6.5172    6.9438  -34.2935 O   0  0  0  0  0  0  0  0  0  0  0  0
   -5.5012    4.8018  -38.8490 O   0  0  0  0  0  0  0  0  0  0  0  0
   -7.7770    6.3831  -36.3592 H   0  0  0  0  0  0  0  0  0  0  0  0
   -6.2488    6.5592  -37.2565 H   0  0  0  0  0  0  0  0  0  0  0  0
   -5.0293    4.1260  -34.5872 H   0  0  0  0  0  0  0  0  0  0  0  0
   -6.4520    4.5571  -33.6245 H   0  0  0  0  0  0  0  0  0  0  0  0
   -4.9108    6.3154  -35.4049 H   0  0  0  0  0  0  0  0  0  0  0  0
   -7.7014    4.2674  -37.4439 H   0  0  0  0  0  0  0  0  0  0  0  0
   -5.6476    2.9903  -37.8949 H   0  0  0  0  0  0  0  0  0  0  0  0
   -4.6644    4.2248  -37.0657 H   0  0  0  0  0  0  0  0  0  0  0  0
   -6.4864    2.8793  -35.6545 H   0  0  0  0  0  0  0  0  0  0  0  0
   -7.4263    6.6524  -34.1184 H   0  0  0  0  0  0  0  0  0  0  0  0
   -4.7130    4.4965  -39.3287 H   0  0  0  0  0  0  0  0  0  0  0  0
  1  3  1  0  0  0  0
  1  4  1  0  0  0  0
  2  3  1  0  0  0  0
  2  6  1  0  0  0  0
  3  7  1  1  0  0  0
  4  5  1  6  0  0  0
  4  6  1  0  0  0  0
  5  8  1  0  0  0  0
  1  9  1  0  0  0  0
  1 10  1  0  0  0  0
  2 11  1  0  0  0  0
  2 12  1  0  0  0  0
  3 13  1  0  0  0  0
  4 14  1  0  0  0  0
  5 15  1  0  0  0  0
  5 16  1  0  0  0  0
  6 17  1  0  0  0  0
  7 18  1  0  0  0  0
  8 19  1  0  0  0  0
M  END
> <id>
EN300-153245

> <smiles>
Cl.OC[C@@H]1C[C@@H](O)CN1

> <MDLNUMBER>
MFCD09056830

> <IUPAC Name>
(3R,5S)-5-(hydroxymethyl)pyrrolidin-3-ol hydrochloride

> <CAS>
478922-47-3

> <Purity>
95

> <URL>
https://www.enaminestore.com/catalog/EN300-153245

> <Saltdate>
Cl

> <MP>
121-122

> <ROCS_ShapeQuery>
hit0

> <ROCS_TanimotoCombo>
1.117 

> <ROCS_ShapeTanimoto>
0.495 

> <ROCS_ColorTanimoto>
0.623 

> <ROCS_RefTversky>
1.207 

> <ROCS_RefColorTversky>
0.825 

> <ROCS_RefTverskyCombo>
2.031 

> <ROCS_FitTversky>
0.456 

> <ROCS_FitColorTversky>
0.718 

> <ROCS_FitTverskyCombo>
1.174 

> <ROCS_ColorScore>
-4.989

> <ROCS_Overlap>
144.024

> <ROCS_Rank>
38                  

$$$$
untitled-dbase-79959_4
  -OEChem-06232314393D

 17 17  0     0  0  0  0  0  0999 V2000
   -5.0284    6.7246  -36.3520 C   0  0  0  0  0  0  0  0  0  0  0  0
   -6.8788    5.8421  -34.5512 C   0  0  0  0  0  0  0  0  0  0  0  0
   -5.4864    5.4142  -36.4312 C   0  0  0  0  0  0  0  0  0  0  0  0
   -6.4292    4.9567  -35.5174 C   0  0  0  0  0  0  0  0  0  0  0  0
   -5.5408    7.5310  -35.3485 C   0  0  0  0  0  0  0  0  0  0  0  0
   -4.9516    4.5220  -37.5030 C   0  0  0  0  0  0  0  0  0  0  0  0
   -6.4574    7.1221  -34.4427 N   0  0  0  0  0  0  0  0  0  0  0  0
   -6.9215    3.6402  -35.5580 N   0  0  0  0  0  0  0  0  0  0  0  0
   -5.5374    4.8793  -38.7481 O   0  0  0  0  0  0  0  0  0  0  0  0
   -5.0342    9.1612  -35.1748 Cl  0  0  0  0  0  0  0  0  0  0  0  0
   -4.2927    7.1004  -37.0562 H   0  0  0  0  0  0  0  0  0  0  0  0
   -7.6142    5.5437  -33.8100 H   0  0  0  0  0  0  0  0  0  0  0  0
   -3.8607    4.6111  -37.5884 H   0  0  0  0  0  0  0  0  0  0  0  0
   -5.1819    3.4696  -37.2919 H   0  0  0  0  0  0  0  0  0  0  0  0
   -6.6228    3.0254  -36.2907 H   0  0  0  0  0  0  0  0  0  0  0  0
   -7.6349    3.3616  -34.9117 H   0  0  0  0  0  0  0  0  0  0  0  0
   -5.1657    4.2793  -39.4146 H   0  0  0  0  0  0  0  0  0  0  0  0
  1  3  2  0  0  0  0
  1  5  1  0  0  0  0
  2  4  2  0  0  0  0
  2  7  1  0  0  0  0
  3  4  1  0  0  0  0
  3  6  1  0  0  0  0
  4  8  1  0  0  0  0
  5  7  2  0  0  0  0
  5 10  1  0  0  0  0
  6  9  1  0  0  0  0
  1 11  1  0  0  0  0
  2 12  1  0  0  0  0
  6 13  1  0  0  0  0
  6 14  1  0  0  0  0
  8 15  1  0  0  0  0
  8 16  1  0  0  0  0
  9 17  1  0  0  0  0
M  END
> <id>
EN300-7536796

> <smiles>
NC=1C=NC(Cl)=CC1CO

> <MDLNUMBER>
MFCD11848212

> <IUPAC Name>
(5-amino-2-chloropyridin-4-yl)methanol

> <CAS>
1227583-24-5

> <Purity>
95

> <URL>
https://www.enaminestore.com/catalog/EN300-7536796

> <ROCS_ShapeQuery>
hit0

> <ROCS_TanimotoCombo>
1.117 

> <ROCS_ShapeTanimoto>
0.434 

> <ROCS_ColorTanimoto>
0.684 

> <ROCS_RefTversky>
1.297 

> <ROCS_RefColorTversky>
0.812 

> <ROCS_RefTverskyCombo>
2.109 

> <ROCS_FitTversky>
0.394 

> <ROCS_FitColorTversky>
0.812 

> <ROCS_FitTverskyCombo>
1.206 

> <ROCS_ColorScore>
-4.872

> <ROCS_Overlap>
161.100

> <ROCS_Rank>
39                  

$$$$
untitled-dbase-80852_20
  -OEChem-06232314393D

 14 14  0     0  0  0  0  0  0999 V2000
   -7.2009    4.6254  -34.3397 C   0  0  0  0  0  0  0  0  0  0  0  0
   -6.5913    5.6546  -35.0147 C   0  0  0  0  0  0  0  0  0  0  0  0
   -6.1950    5.0859  -36.2400 C   0  0  0  0  0  0  0  0  0  0  0  0
   -5.4919    5.7462  -37.3535 C   0  0  0  0  0  0  0  0  0  0  0  0
   -6.5248    3.7955  -36.3402 N   0  0  0  0  0  0  0  0  0  0  0  0
   -7.1348    3.5448  -35.1692 N   0  0  0  0  0  0  0  0  0  0  0  0
   -6.4345    6.9045  -34.5630 O   0  0  0  0  0  0  0  0  0  0  0  0
   -5.5773    4.9438  -38.5323 O   0  0  0  0  0  0  0  0  0  0  0  0
   -7.6655    4.5645  -33.3658 H   0  0  0  0  0  0  0  0  0  0  0  0
   -5.9181    6.7387  -37.5886 H   0  0  0  0  0  0  0  0  0  0  0  0
   -4.4218    5.9096  -37.1301 H   0  0  0  0  0  0  0  0  0  0  0  0
   -7.4843    2.6097  -35.0008 H   0  0  0  0  0  0  0  0  0  0  0  0
   -5.9709    7.4670  -35.2161 H   0  0  0  0  0  0  0  0  0  0  0  0
   -5.1009    5.4251  -39.2251 H   0  0  0  0  0  0  0  0  0  0  0  0
  1  2  2  0  0  0  0
  1  6  1  0  0  0  0
  2  3  1  0  0  0  0
  2  7  1  0  0  0  0
  3  4  1  0  0  0  0
  3  5  2  0  0  0  0
  4  8  1  0  0  0  0
  5  6  1  0  0  0  0
  1  9  1  0  0  0  0
  4 10  1  0  0  0  0
  4 11  1  0  0  0  0
  6 12  1  0  0  0  0
  7 13  1  0  0  0  0
  8 14  1  0  0  0  0
M  END
> <id>
EN300-23311133

> <smiles>
OCC1=NNC=C1O

> <MDLNUMBER>
MFCD32702490

> <IUPAC Name>
3-(hydroxymethyl)-1H-pyrazol-4-ol

> <CAS>
2308682-20-2

> <Purity>
95

> <URL>
https://www.enaminestore.com/catalog/EN300-23311133

> <ROCS_ShapeQuery>
hit0

> <ROCS_TanimotoCombo>
1.115 

> <ROCS_ShapeTanimoto>
0.503 

> <ROCS_ColorTanimoto>
0.613 

> <ROCS_RefTversky>
1.271 

> <ROCS_RefColorTversky>
0.816 

> <ROCS_RefTverskyCombo>
2.088 

> <ROCS_FitTversky>
0.454 

> <ROCS_FitColorTversky>
0.711 

> <ROCS_FitTverskyCombo>
1.164 

> <ROCS_ColorScore>
-4.938

> <ROCS_Overlap>
153.231

> <ROCS_Rank>
40                  

$$$$
untitled-dbase-176652_5
  -OEChem-06232314393D

 16 16  0     0  0  0  0  0  0999 V2000
   -6.0155    7.1654  -38.5263 C   0  0  0  0  0  0  0  0  0  0  0  0
   -6.3214    8.3020  -37.7778 C   0  0  0  0  0  0  0  0  0  0  0  0
   -6.0339    5.8331  -36.5110 C   0  0  0  0  0  0  0  0  0  0  0  0
   -5.8719    5.9310  -37.8929 C   0  0  0  0  0  0  0  0  0  0  0  0
   -6.3397    6.9697  -35.7624 C   0  0  0  0  0  0  0  0  0  0  0  0
   -6.4834    8.2042  -36.3959 C   0  0  0  0  0  0  0  0  0  0  0  0
   -5.8848    4.5425  -35.8484 C   0  0  0  0  0  0  0  0  0  0  0  0
   -6.8254    3.7660  -35.6751 O   0  0  0  0  0  0  0  0  0  0  0  0
   -5.5730    4.8332  -38.6435 O   0  0  0  0  0  0  0  0  0  0  0  0
   -6.5016    6.8951  -34.4111 O   0  0  0  0  0  0  0  0  0  0  0  0
   -6.7761    9.3004  -35.6826 F   0  0  0  0  0  0  0  0  0  0  0  0
   -5.8910    7.2484  -39.6028 H   0  0  0  0  0  0  0  0  0  0  0  0
   -6.4339    9.2629  -38.2710 H   0  0  0  0  0  0  0  0  0  0  0  0
   -4.8697    4.2691  -35.4925 H   0  0  0  0  0  0  0  0  0  0  0  0
   -5.4961    5.0783  -39.5787 H   0  0  0  0  0  0  0  0  0  0  0  0
   -6.7092    7.7711  -34.0503 H   0  0  0  0  0  0  0  0  0  0  0  0
  1  2  1  0  0  0  0
  1  4  2  0  0  0  0
  2  6  2  0  0  0  0
  3  4  1  0  0  0  0
  3  5  2  0  0  0  0
  3  7  1  0  0  0  0
  4  9  1  0  0  0  0
  5  6  1  0  0  0  0
  5 10  1  0  0  0  0
  6 11  1  0  0  0  0
  7  8  2  0  0  0  0
  1 12  1  0  0  0  0
  2 13  1  0  0  0  0
  7 14  1  0  0  0  0
  9 15  1  0  0  0  0
 10 16  1  0  0  0  0
M  END
> <id>
EN300-6816529

> <smiles>
OC=1C=CC(F)=C(O)C1C=O

> <MDLNUMBER>
MFCD33414993

> <IUPAC Name>
3-fluoro-2,6-dihydroxybenzaldehyde

> <CAS>
1782313-69-2

> <Purity>
95

> <URL>
https://www.enaminestore.com/catalog/EN300-6816529

> <ROCS_ShapeQuery>
hit0

> <ROCS_TanimotoCombo>
1.115 

> <ROCS_ShapeTanimoto>
0.423 

> <ROCS_ColorTanimoto>
0.692 

> <ROCS_RefTversky>
1.393 

> <ROCS_RefColorTversky>
0.818 

> <ROCS_RefTverskyCombo>
2.211 

> <ROCS_FitTversky>
0.378 

> <ROCS_FitColorTversky>
0.818 

> <ROCS_FitTverskyCombo>
1.195 

> <ROCS_ColorScore>
-4.908

> <ROCS_Overlap>
177.647

> <ROCS_Rank>
41                  

$$$$
untitled-dbase-79970_9
  -OEChem-06232314393D

 18 18  0     0  0  0  0  0  0999 V2000
   -6.2876    5.7863  -36.7723 C   0  0  0  0  0  0  0  0  0  0  0  0
   -6.7864    5.1605  -35.6141 C   0  0  0  0  0  0  0  0  0  0  0  0
   -6.0062    4.7498  -37.6285 C   0  0  0  0  0  0  0  0  0  0  0  0
   -6.2249    2.2500  -37.4317 C   0  0  0  0  0  0  0  0  0  0  0  0
   -7.2436    5.8060  -34.3721 C   0  0  0  0  0  0  0  0  0  0  0  0
   -6.8211    3.8296  -35.7215 N   0  0  0  0  0  0  0  0  0  0  0  0
   -6.3408    3.6106  -36.9573 N   0  0  0  0  0  0  0  0  0  0  0  0
   -5.5065    4.7187  -38.8810 N   0  0  0  0  0  0  0  0  0  0  0  0
   -6.5302    7.0257  -34.1609 O   0  0  0  0  0  0  0  0  0  0  0  0
   -6.1503    6.8419  -36.9587 H   0  0  0  0  0  0  0  0  0  0  0  0
   -5.2350    1.8789  -37.1535 H   0  0  0  0  0  0  0  0  0  0  0  0
   -7.0058    1.6368  -36.9734 H   0  0  0  0  0  0  0  0  0  0  0  0
   -6.3488    2.2343  -38.5182 H   0  0  0  0  0  0  0  0  0  0  0  0
   -8.3226    6.0459  -34.3963 H   0  0  0  0  0  0  0  0  0  0  0  0
   -7.0859    5.1627  -33.4869 H   0  0  0  0  0  0  0  0  0  0  0  0
   -5.3107    3.8334  -39.3725 H   0  0  0  0  0  0  0  0  0  0  0  0
   -5.2070    5.5736  -39.3741 H   0  0  0  0  0  0  0  0  0  0  0  0
   -6.7173    7.5873  -34.9279 H   0  0  0  0  0  0  0  0  0  0  0  0
  1  2  1  0  0  0  0
  1  3  2  0  0  0  0
  2  5  1  0  0  0  0
  2  6  2  0  0  0  0
  3  7  1  0  0  0  0
  3  8  1  0  0  0  0
  4  7  1  0  0  0  0
  5  9  1  0  0  0  0
  6  7  1  0  0  0  0
  1 10  1  0  0  0  0
  4 11  1  0  0  0  0
  4 12  1  0  0  0  0
  4 13  1  0  0  0  0
  5 14  1  0  0  0  0
  5 15  1  0  0  0  0
  8 16  1  0  0  0  0
  8 17  1  0  0  0  0
  9 18  1  0  0  0  0
M  END
> <id>
EN300-2009111

> <smiles>
CN1N=C(CO)C=C1N

> <MDLNUMBER>
MFCD25949426

> <IUPAC Name>
(5-amino-1-methyl-1H-pyrazol-3-yl)methanol

> <CAS>
1224888-30-5

> <Purity>
95

> <URL>
https://www.enaminestore.com/catalog/EN300-2009111

> <ROCS_ShapeQuery>
hit0

> <ROCS_TanimotoCombo>
1.114 

> <ROCS_ShapeTanimoto>
0.437 

> <ROCS_ColorTanimoto>
0.678 

> <ROCS_RefTversky>
1.244 

> <ROCS_RefColorTversky>
0.808 

> <ROCS_RefTverskyCombo>
2.052 

> <ROCS_FitTversky>
0.402 

> <ROCS_FitColorTversky>
0.808 

> <ROCS_FitTverskyCombo>
1.210 

> <ROCS_ColorScore>
-4.848

> <ROCS_Overlap>
152.648

> <ROCS_Rank>
42                  

$$$$
untitled-dbase-56316_30
  -OEChem-06232314393D

 20 20  0     1  0  0  0  0  0999 V2000
   -5.3118    4.9309  -38.6265 C   0  0  0  0  0  0  0  0  0  0  0  0
   -5.5097    6.2740  -37.9246 C   0  0  0  0  0  0  0  0  0  0  0  0
   -5.9956    3.8825  -37.7496 C   0  0  0  0  0  0  0  0  0  0  0  0
   -5.8896    5.9132  -36.4908 C   0  0  2  0  0  0  0  0  0  0  0  0
   -6.7540    4.6692  -36.6867 C   0  0  2  0  0  0  0  0  0  0  0  0
   -6.6055    7.0422  -35.7655 C   0  0  0  0  0  0  0  0  0  0  0  0
   -6.8733    3.9090  -35.4994 O   0  0  0  0  0  0  0  0  0  0  0  0
   -6.5151    6.8159  -34.3693 O   0  0  0  0  0  0  0  0  0  0  0  0
   -5.7402    4.9531  -39.6341 H   0  0  0  0  0  0  0  0  0  0  0  0
   -4.2460    4.6984  -38.7289 H   0  0  0  0  0  0  0  0  0  0  0  0
   -4.6094    6.8948  -37.9698 H   0  0  0  0  0  0  0  0  0  0  0  0
   -6.3195    6.8274  -38.4161 H   0  0  0  0  0  0  0  0  0  0  0  0
   -6.6682    3.2415  -38.3293 H   0  0  0  0  0  0  0  0  0  0  0  0
   -5.2486    3.2220  -37.2924 H   0  0  0  0  0  0  0  0  0  0  0  0
   -4.9890    5.6527  -35.9185 H   0  0  0  0  0  0  0  0  0  0  0  0
   -7.7571    4.9254  -37.0489 H   0  0  0  0  0  0  0  0  0  0  0  0
   -7.6575    7.0689  -36.0558 H   0  0  0  0  0  0  0  0  0  0  0  0
   -6.1377    7.9993  -36.0034 H   0  0  0  0  0  0  0  0  0  0  0  0
   -5.9711    3.7141  -35.1922 H   0  0  0  0  0  0  0  0  0  0  0  0
   -6.9792    7.5495  -33.9320 H   0  0  0  0  0  0  0  0  0  0  0  0
  1  2  1  0  0  0  0
  1  3  1  0  0  0  0
  2  4  1  0  0  0  0
  3  5  1  0  0  0  0
  4  5  1  0  0  0  0
  4  6  1  0  0  0  0
  5  7  1  0  0  0  0
  6  8  1  0  0  0  0
  1  9  1  0  0  0  0
  1 10  1  0  0  0  0
  2 11  1  0  0  0  0
  2 12  1  0  0  0  0
  3 13  1  0  0  0  0
  3 14  1  0  0  0  0
  4 15  1  0  0  0  0
  5 16  1  0  0  0  0
  6 17  1  0  0  0  0
  6 18  1  0  0  0  0
  7 19  1  0  0  0  0
  8 20  1  0  0  0  0
M  END
> <id>
EN300-1718714

> <smiles>
OCC1CCCC1O

> <MDLNUMBER>
MFCD01452045

> <IUPAC Name>
2-(hydroxymethyl)cyclopentan-1-ol

> <CAS>
69618-32-2

> <Purity>
95

> <URL>
https://www.enaminestore.com/catalog/EN300-1718714

> <ROCS_ShapeQuery>
hit0

> <ROCS_TanimotoCombo>
1.114 

> <ROCS_ShapeTanimoto>
0.553 

> <ROCS_ColorTanimoto>
0.561 

> <ROCS_RefTversky>
1.289 

> <ROCS_RefColorTversky>
0.664 

> <ROCS_RefTverskyCombo>
1.953 

> <ROCS_FitTversky>
0.492 

> <ROCS_FitColorTversky>
0.783 

> <ROCS_FitTverskyCombo>
1.275 

> <ROCS_ColorScore>
-3.953

> <ROCS_Overlap>
153.620

> <ROCS_Rank>
43                  

$$$$
untitled-dbase-152293_1
  -OEChem-06232314393D

 16 15  0     1  0  0  0  0  0999 V2000
   -6.0917    4.7032  -37.6414 C   0  0  0  0  0  0  0  0  0  0  0  0
   -5.7078    7.5186  -36.5026 C   0  0  0  0  0  0  0  0  0  0  0  0
   -6.0446    5.0185  -36.1508 C   0  0  1  0  0  0  0  0  0  0  0  0
   -6.5470    6.4345  -35.8364 C   0  0  1  0  0  0  0  0  0  0  0  0
   -6.8476    4.0652  -35.4576 O   0  0  0  0  0  0  0  0  0  0  0  0
   -6.5398    6.6606  -34.4282 O   0  0  0  0  0  0  0  0  0  0  0  0
   -7.1077    4.8009  -38.0386 H   0  0  0  0  0  0  0  0  0  0  0  0
   -5.7272    3.6919  -37.8452 H   0  0  0  0  0  0  0  0  0  0  0  0
   -5.4717    5.4135  -38.1994 H   0  0  0  0  0  0  0  0  0  0  0  0
   -4.6603    7.4551  -36.1934 H   0  0  0  0  0  0  0  0  0  0  0  0
   -5.7582    7.4515  -37.5947 H   0  0  0  0  0  0  0  0  0  0  0  0
   -6.0901    8.5101  -36.2357 H   0  0  0  0  0  0  0  0  0  0  0  0
   -5.0157    4.9110  -35.7883 H   0  0  0  0  0  0  0  0  0  0  0  0
   -7.5852    6.5337  -36.1721 H   0  0  0  0  0  0  0  0  0  0  0  0
   -6.4653    3.1945  -35.6460 H   0  0  0  0  0  0  0  0  0  0  0  0
   -7.0794    5.9582  -34.0341 H   0  0  0  0  0  0  0  0  0  0  0  0
  1  3  1  6  0  0  0
  2  4  1  6  0  0  0
  3  4  1  0  0  0  0
  3  5  1  0  0  0  0
  4  6  1  0  0  0  0
  1  7  1  0  0  0  0
  1  8  1  0  0  0  0
  1  9  1  0  0  0  0
  2 10  1  0  0  0  0
  2 11  1  0  0  0  0
  2 12  1  0  0  0  0
  3 13  1  0  0  0  0
  4 14  1  0  0  0  0
  5 15  1  0  0  0  0
  6 16  1  0  0  0  0
M  END
> <id>
EN300-141852

> <smiles>
C[C@H](O)[C@H](C)O

> <MDLNUMBER>
MFCD00063648

> <IUPAC Name>
(2S,3S)-butane-2,3-diol

> <CAS>
19132-06-0

> <Purity>
95

> <URL>
https://www.enaminestore.com/catalog/EN300-141852

> <MP>
18-18.19999999999999928945726423989981412887

> <ROCS_ShapeQuery>
hit0

> <ROCS_TanimotoCombo>
1.113 

> <ROCS_ShapeTanimoto>
0.523 

> <ROCS_ColorTanimoto>
0.590 

> <ROCS_RefTversky>
1.000 

> <ROCS_RefColorTversky>
0.629 

> <ROCS_RefTverskyCombo>
1.629 

> <ROCS_FitTversky>
0.524 

> <ROCS_FitColorTversky>
0.905 

> <ROCS_FitTverskyCombo>
1.429 

> <ROCS_ColorScore>
-3.711

> <ROCS_Overlap>
113.631

> <ROCS_Rank>
44                  

$$$$
untitled-dbase-117389_207
  -OEChem-06232314393D

 29 29  0     1  0  0  0  0  0999 V2000
   -4.6598    7.3417  -37.5378 C   0  0  0  0  0  0  0  0  0  0  0  0
   -4.4334    7.8265  -36.1075 C   0  0  0  0  0  0  0  0  0  0  0  0
   -3.7675    6.1736  -37.9636 C   0  0  0  0  0  0  0  0  0  0  0  0
   -4.2835    6.7552  -35.0297 C   0  0  0  0  0  0  0  0  0  0  0  0
   -4.9913    4.1623  -36.7376 C   0  0  2  0  0  0  0  0  0  0  0  0
   -4.4355    4.7943  -38.0257 C   0  0  1  0  0  0  0  0  0  0  0  0
   -5.4946    5.8606  -34.7768 C   0  0  2  0  0  0  0  0  0  0  0  0
   -6.0123    4.9829  -35.9283 C   0  0  2  0  0  0  0  0  0  0  0  0
   -4.2347    1.7378  -34.6393 N   0  5  0  0  0  0  0  0  0  0  0  0
   -3.8735    3.7320  -35.8848 N   0  0  0  0  0  0  0  0  0  0  0  0
   -4.0708    2.6933  -35.2404 N   0  3  0  0  0  0  0  0  0  0  0  0
   -5.4588    4.8078  -39.0268 O   0  0  0  0  0  0  0  0  0  0  0  0
   -6.5703    6.7039  -34.3416 O   0  0  0  0  0  0  0  0  0  0  0  0
   -6.9126    4.0425  -35.3022 O   0  0  0  0  0  0  0  0  0  0  0  0
   -5.6939    7.0098  -37.6122 H   0  0  0  0  0  0  0  0  0  0  0  0
   -4.5383    8.1696  -38.2315 H   0  0  0  0  0  0  0  0  0  0  0  0
   -3.4929    8.4126  -36.1230 H   0  0  0  0  0  0  0  0  0  0  0  0
   -5.2096    8.5690  -35.8371 H   0  0  0  0  0  0  0  0  0  0  0  0
   -3.2548    6.4110  -38.9148 H   0  0  0  0  0  0  0  0  0  0  0  0
   -2.9396    6.1294  -37.2280 H   0  0  0  0  0  0  0  0  0  0  0  0
   -3.3777    6.1429  -35.2016 H   0  0  0  0  0  0  0  0  0  0  0  0
   -4.0683    7.2847  -34.0783 H   0  0  0  0  0  0  0  0  0  0  0  0
   -5.5191    3.2178  -37.0370 H   0  0  0  0  0  0  0  0  0  0  0  0
   -3.6648    4.0652  -38.4849 H   0  0  0  0  0  0  0  0  0  0  0  0
   -5.2699    5.2128  -33.8955 H   0  0  0  0  0  0  0  0  0  0  0  0
   -6.6455    5.5707  -36.5884 H   0  0  0  0  0  0  0  0  0  0  0  0
   -5.0117    5.0196  -39.8565 H   0  0  0  0  0  0  0  0  0  0  0  0
   -6.2606    7.1334  -33.5327 H   0  0  0  0  0  0  0  0  0  0  0  0
   -7.5424    4.5767  -34.8015 H   0  0  0  0  0  0  0  0  0  0  0  0
  1  2  1  0  0  0  0
  1  3  1  0  0  0  0
  2  4  1  0  0  0  0
  3  6  1  0  0  0  0
  4  7  1  0  0  0  0
  5  6  1  0  0  0  0
  5  8  1  0  0  0  0
  5 10  1  0  0  0  0
  6 12  1  0  0  0  0
  7  8  1  0  0  0  0
  7 13  1  0  0  0  0
  8 14  1  0  0  0  0
  9 11  2  0  0  0  0
 10 11  2  0  0  0  0
  1 15  1  0  0  0  0
  1 16  1  0  0  0  0
  2 17  1  0  0  0  0
  2 18  1  0  0  0  0
  3 19  1  0  0  0  0
  3 20  1  0  0  0  0
  4 21  1  0  0  0  0
  4 22  1  0  0  0  0
  5 23  1  0  0  0  0
  6 24  1  0  0  0  0
  7 25  1  0  0  0  0
  8 26  1  0  0  0  0
 12 27  1  0  0  0  0
 13 28  1  0  0  0  0
 14 29  1  0  0  0  0
M  CHG  2   9  -1  11   1
M  END
> <id>
EN300-37468747

> <smiles>
OC1CCCCC(O)C(N=[N+]=[N-])C1O

> <IUPAC Name>
3-azidocyclooctane-1,2,4-triol

> <URL>
https://www.enaminestore.com/catalog/EN300-37468747

> <ROCS_ShapeQuery>
hit0

> <ROCS_TanimotoCombo>
1.112 

> <ROCS_ShapeTanimoto>
0.241 

> <ROCS_ColorTanimoto>
0.871 

> <ROCS_RefTversky>
1.017 

> <ROCS_RefColorTversky>
0.931 

> <ROCS_RefTverskyCombo>
1.948 

> <ROCS_FitTversky>
0.240 

> <ROCS_FitColorTversky>
0.931 

> <ROCS_FitTverskyCombo>
1.171 

> <ROCS_ColorScore>
-5.586

> <ROCS_Overlap>
134.430

> <ROCS_Rank>
45                  

$$$$
untitled-dbase-69005_0
  -OEChem-06232314393D

 16 16  0     1  0  0  0  0  0999 V2000
   -6.3424    3.3552  -36.7656 C   0  0  0  0  0  0  0  0  0  0  0  0
   -5.5102    4.5481  -37.2721 C   0  0  2  0  0  0  0  0  0  0  0  0
   -6.4493    5.3930  -36.3917 C   0  0  2  0  0  0  0  0  0  0  0  0
   -5.6783    6.3743  -35.4936 C   0  0  0  0  0  0  0  0  0  0  0  0
   -6.7708    4.1767  -35.6122 N   0  0  0  0  0  0  0  0  0  0  0  0
   -5.5651    4.8112  -38.6840 O   0  0  0  0  0  0  0  0  0  0  0  0
   -6.5187    6.7764  -34.4232 O   0  0  0  0  0  0  0  0  0  0  0  0
   -7.1648    3.0622  -37.4289 H   0  0  0  0  0  0  0  0  0  0  0  0
   -5.7703    2.4630  -36.4963 H   0  0  0  0  0  0  0  0  0  0  0  0
   -4.4719    4.5207  -36.9225 H   0  0  0  0  0  0  0  0  0  0  0  0
   -7.2595    5.8469  -36.8926 H   0  0  0  0  0  0  0  0  0  0  0  0
   -5.3816    7.2598  -36.0623 H   0  0  0  0  0  0  0  0  0  0  0  0
   -4.7859    5.8950  -35.0820 H   0  0  0  0  0  0  0  0  0  0  0  0
   -7.7526    4.0775  -35.3595 H   0  0  0  0  0  0  0  0  0  0  0  0
   -5.2348    4.0118  -39.1152 H   0  0  0  0  0  0  0  0  0  0  0  0
   -6.7579    5.9716  -33.9344 H   0  0  0  0  0  0  0  0  0  0  0  0
  1  2  1  0  0  0  0
  1  5  1  0  0  0  0
  2  3  1  0  0  0  0
  2  6  1  1  0  0  0
  3  4  1  6  0  0  0
  3  5  1  0  0  0  0
  4  7  1  0  0  0  0
  1  8  1  0  0  0  0
  1  9  1  0  0  0  0
  2 10  1  0  0  0  0
  3 11  1  0  0  0  0
  4 12  1  0  0  0  0
  4 13  1  0  0  0  0
  5 14  1  0  0  0  0
  6 15  1  0  0  0  0
  7 16  1  0  0  0  0
M  END
> <id>
EN300-20000102

> <smiles>
OC[C@@H]1NC[C@H]1O

> <MDLNUMBER>
MFCD22373985

> <IUPAC Name>
(2S,3R)-2-(hydroxymethyl)azetidin-3-ol

> <CAS>
1932211-23-8

> <Purity>
95

> <URL>
https://www.enaminestore.com/catalog/EN300-20000102

> <ROCS_ShapeQuery>
hit0

> <ROCS_TanimotoCombo>
1.111 

> <ROCS_ShapeTanimoto>
0.532 

> <ROCS_ColorTanimoto>
0.579 

> <ROCS_RefTversky>
1.154 

> <ROCS_RefColorTversky>
0.788 

> <ROCS_RefTverskyCombo>
1.943 

> <ROCS_FitTversky>
0.496 

> <ROCS_FitColorTversky>
0.686 

> <ROCS_FitTverskyCombo>
1.182 

> <ROCS_ColorScore>
-4.770

> <ROCS_Overlap>
135.154

> <ROCS_Rank>
46                  

$$$$
untitled-dbase-143800_1
  -OEChem-06232314393D

 16 15  0     1  0  0  0  0  0999 V2000
   -5.9680    4.6658  -37.6016 C   0  0  0  0  0  0  0  0  0  0  0  0
   -5.6901    7.5069  -36.5022 C   0  0  0  0  0  0  0  0  0  0  0  0
   -6.6695    5.1618  -36.3425 C   0  0  2  0  0  0  0  0  0  0  0  0
   -5.8798    6.2699  -35.6321 C   0  0  2  0  0  0  0  0  0  0  0  0
   -6.8468    4.0593  -35.4553 O   0  0  0  0  0  0  0  0  0  0  0  0
   -6.5425    6.6610  -34.4313 O   0  0  0  0  0  0  0  0  0  0  0  0
   -4.9679    4.2806  -37.3764 H   0  0  0  0  0  0  0  0  0  0  0  0
   -5.8817    5.4615  -38.3477 H   0  0  0  0  0  0  0  0  0  0  0  0
   -6.5272    3.8348  -38.0453 H   0  0  0  0  0  0  0  0  0  0  0  0
   -6.6525    7.9245  -36.8126 H   0  0  0  0  0  0  0  0  0  0  0  0
   -5.1209    8.2828  -35.9790 H   0  0  0  0  0  0  0  0  0  0  0  0
   -5.1150    7.2534  -37.3996 H   0  0  0  0  0  0  0  0  0  0  0  0
   -7.6647    5.5391  -36.6047 H   0  0  0  0  0  0  0  0  0  0  0  0
   -4.8952    5.8848  -35.3443 H   0  0  0  0  0  0  0  0  0  0  0  0
   -7.3892    3.4098  -35.9284 H   0  0  0  0  0  0  0  0  0  0  0  0
   -6.6485    5.8565  -33.9009 H   0  0  0  0  0  0  0  0  0  0  0  0
  1  3  1  0  0  0  0
  2  4  1  0  0  0  0
  3  4  1  0  0  0  0
  3  5  1  0  0  0  0
  4  6  1  0  0  0  0
  1  7  1  0  0  0  0
  1  8  1  0  0  0  0
  1  9  1  0  0  0  0
  2 10  1  0  0  0  0
  2 11  1  0  0  0  0
  2 12  1  0  0  0  0
  3 13  1  0  0  0  0
  4 14  1  0  0  0  0
  5 15  1  0  0  0  0
  6 16  1  0  0  0  0
M  END
> <id>
EN300-19321

> <smiles>
CC(O)C(C)O

> <MDLNUMBER>
MFCD00004523

> <IUPAC Name>
butane-2,3-diol

> <CAS>
513-85-9

> <Purity>
95

> <URL>
https://www.enaminestore.com/catalog/EN300-19321

> <MP>
19-20

> <ROCS_ShapeQuery>
hit0

> <ROCS_TanimotoCombo>
1.108 

> <ROCS_ShapeTanimoto>
0.517 

> <ROCS_ColorTanimoto>
0.591 

> <ROCS_RefTversky>
0.989 

> <ROCS_RefColorTversky>
0.630 

> <ROCS_RefTverskyCombo>
1.618 

> <ROCS_FitTversky>
0.520 

> <ROCS_FitColorTversky>
0.906 

> <ROCS_FitTverskyCombo>
1.426 

> <ROCS_ColorScore>
-3.715

> <ROCS_Overlap>
112.852

> <ROCS_Rank>
47                  

$$$$
untitled-dbase-25390_1
  -OEChem-06232314393D

 16 15  0     1  0  0  0  0  0999 V2000
   -5.9680    4.6658  -37.6016 C   0  0  0  0  0  0  0  0  0  0  0  0
   -5.6901    7.5069  -36.5022 C   0  0  0  0  0  0  0  0  0  0  0  0
   -6.6695    5.1618  -36.3425 C   0  0  2  0  0  0  0  0  0  0  0  0
   -5.8798    6.2699  -35.6321 C   0  0  2  0  0  0  0  0  0  0  0  0
   -6.8468    4.0593  -35.4553 O   0  0  0  0  0  0  0  0  0  0  0  0
   -6.5425    6.6610  -34.4313 O   0  0  0  0  0  0  0  0  0  0  0  0
   -4.9679    4.2806  -37.3764 H   0  0  0  0  0  0  0  0  0  0  0  0
   -5.8817    5.4615  -38.3477 H   0  0  0  0  0  0  0  0  0  0  0  0
   -6.5272    3.8348  -38.0453 H   0  0  0  0  0  0  0  0  0  0  0  0
   -6.6525    7.9245  -36.8126 H   0  0  0  0  0  0  0  0  0  0  0  0
   -5.1209    8.2828  -35.9790 H   0  0  0  0  0  0  0  0  0  0  0  0
   -5.1150    7.2534  -37.3996 H   0  0  0  0  0  0  0  0  0  0  0  0
   -7.6647    5.5391  -36.6047 H   0  0  0  0  0  0  0  0  0  0  0  0
   -4.8952    5.8848  -35.3443 H   0  0  0  0  0  0  0  0  0  0  0  0
   -7.3892    3.4098  -35.9284 H   0  0  0  0  0  0  0  0  0  0  0  0
   -6.6485    5.8565  -33.9009 H   0  0  0  0  0  0  0  0  0  0  0  0
  1  3  1  1  0  0  0
  2  4  1  1  0  0  0
  3  4  1  0  0  0  0
  3  5  1  0  0  0  0
  4  6  1  0  0  0  0
  1  7  1  0  0  0  0
  1  8  1  0  0  0  0
  1  9  1  0  0  0  0
  2 10  1  0  0  0  0
  2 11  1  0  0  0  0
  2 12  1  0  0  0  0
  3 13  1  0  0  0  0
  4 14  1  0  0  0  0
  5 15  1  0  0  0  0
  6 16  1  0  0  0  0
M  END
> <id>
EN300-141851

> <smiles>
C[C@@H](O)[C@@H](C)O

> <MDLNUMBER>
MFCD00064267

> <IUPAC Name>
(2R,3R)-butane-2,3-diol

> <CAS>
24347-58-8

> <Purity>
95

> <URL>
https://www.enaminestore.com/catalog/EN300-141851

> <MP>
16-19

> <ROCS_ShapeQuery>
hit0

> <ROCS_TanimotoCombo>
1.108 

> <ROCS_ShapeTanimoto>
0.517 

> <ROCS_ColorTanimoto>
0.591 

> <ROCS_RefTversky>
0.989 

> <ROCS_RefColorTversky>
0.630 

> <ROCS_RefTverskyCombo>
1.618 

> <ROCS_FitTversky>
0.520 

> <ROCS_FitColorTversky>
0.906 

> <ROCS_FitTverskyCombo>
1.426 

> <ROCS_ColorScore>
-3.715

> <ROCS_Overlap>
112.852

> <ROCS_Rank>
48                  

$$$$
untitled-dbase-178638_75
  -OEChem-06232314393D

 22 22  0     1  0  0  0  0  0999 V2000
   -8.3693    5.7036  -35.5582 C   0  0  0  0  0  0  0  0  0  0  0  0
   -7.8170    7.0165  -34.9899 C   0  0  0  0  0  0  0  0  0  0  0  0
   -5.5033    6.4205  -35.4385 C   0  0  0  0  0  0  0  0  0  0  0  0
   -6.1165    5.7772  -36.6997 C   0  0  2  0  0  0  0  0  0  0  0  0
   -7.3132    4.8914  -36.3236 C   0  0  1  0  0  0  0  0  0  0  0  0
   -5.0454    5.0230  -37.4880 C   0  0  0  0  0  0  0  0  0  0  0  0
   -6.4808    6.8437  -34.4264 N   0  0  0  0  0  0  0  0  0  0  0  0
   -6.8947    3.8145  -35.4843 O   0  0  0  0  0  0  0  0  0  0  0  0
   -5.5083    4.8442  -38.8129 O   0  0  0  0  0  0  0  0  0  0  0  0
   -8.7697    5.1031  -34.7263 H   0  0  0  0  0  0  0  0  0  0  0  0
   -9.2156    5.9234  -36.2291 H   0  0  0  0  0  0  0  0  0  0  0  0
   -7.7715    7.7651  -35.7902 H   0  0  0  0  0  0  0  0  0  0  0  0
   -8.4954    7.4210  -34.2274 H   0  0  0  0  0  0  0  0  0  0  0  0
   -4.7665    5.7343  -34.9685 H   0  0  0  0  0  0  0  0  0  0  0  0
   -4.9091    7.3104  -35.7313 H   0  0  0  0  0  0  0  0  0  0  0  0
   -6.4903    6.5885  -37.3437 H   0  0  0  0  0  0  0  0  0  0  0  0
   -7.7684    4.4545  -37.2173 H   0  0  0  0  0  0  0  0  0  0  0  0
   -4.8682    4.0507  -37.0314 H   0  0  0  0  0  0  0  0  0  0  0  0
   -4.1224    5.6003  -37.5011 H   0  0  0  0  0  0  0  0  0  0  0  0
   -6.1720    7.7318  -34.0255 H   0  0  0  0  0  0  0  0  0  0  0  0
   -6.5252    4.2172  -34.6836 H   0  0  0  0  0  0  0  0  0  0  0  0
   -6.3326    4.3303  -38.7616 H   0  0  0  0  0  0  0  0  0  0  0  0
  1  2  1  0  0  0  0
  1  5  1  0  0  0  0
  2  7  1  0  0  0  0
  3  4  1  0  0  0  0
  3  7  1  0  0  0  0
  4  5  1  0  0  0  0
  4  6  1  6  0  0  0
  5  8  1  6  0  0  0
  6  9  1  0  0  0  0
  1 10  1  0  0  0  0
  1 11  1  0  0  0  0
  2 12  1  0  0  0  0
  2 13  1  0  0  0  0
  3 14  1  0  0  0  0
  3 15  1  0  0  0  0
  4 16  1  0  0  0  0
  5 17  1  0  0  0  0
  6 18  1  0  0  0  0
  6 19  1  0  0  0  0
  7 20  1  0  0  0  0
  8 21  1  0  0  0  0
  9 22  1  0  0  0  0
M  END
> <id>
EN300-7448139

> <smiles>
OC[C@@H]1CNCC[C@@H]1O |&1:2,7,r|

> <IUPAC Name>
rac-(3R,4R)-3-(hydroxymethyl)piperidin-4-ol

> <CAS>
252906-74-4

> <Purity>
95

> <URL>
https://www.enaminestore.com/catalog/EN300-7448139

> <ROCS_ShapeQuery>
hit0

> <ROCS_TanimotoCombo>
1.106 

> <ROCS_ShapeTanimoto>
0.486 

> <ROCS_ColorTanimoto>
0.620 

> <ROCS_RefTversky>
1.278 

> <ROCS_RefColorTversky>
0.823 

> <ROCS_RefTverskyCombo>
2.101 

> <ROCS_FitTversky>
0.440 

> <ROCS_FitColorTversky>
0.716 

> <ROCS_FitTverskyCombo>
1.156 

> <ROCS_ColorScore>
-4.977

> <ROCS_Overlap>
155.091

> <ROCS_Rank>
49                  

$$$$
untitled-dbase-11223_139
  -OEChem-06232314393D

 22 22  0     1  0  0  0  0  0999 V2000
   -5.2252    6.7014  -36.4504 C   0  0  0  0  0  0  0  0  0  0  0  0
   -6.1413    7.6370  -35.6660 C   0  0  0  0  0  0  0  0  0  0  0  0
   -6.5240    5.6763  -34.2371 C   0  0  0  0  0  0  0  0  0  0  0  0
   -5.8523    5.3099  -36.6436 C   0  0  1  0  0  0  0  0  0  0  0  0
   -6.9019    5.0087  -35.5582 C   0  0  1  0  0  0  0  0  0  0  0  0
   -6.4728    5.1664  -38.0362 C   0  0  0  0  0  0  0  0  0  0  0  0
   -6.4751    7.1357  -34.3323 N   0  0  0  0  0  0  0  0  0  0  0  0
   -6.9853    3.5974  -35.3791 O   0  0  0  0  0  0  0  0  0  0  0  0
   -5.4366    4.8995  -38.9613 O   0  0  0  0  0  0  0  0  0  0  0  0
   -5.0013    7.1473  -37.4312 H   0  0  0  0  0  0  0  0  0  0  0  0
   -4.2651    6.6069  -35.9241 H   0  0  0  0  0  0  0  0  0  0  0  0
   -5.6819    8.6390  -35.5856 H   0  0  0  0  0  0  0  0  0  0  0  0
   -7.0773    7.7793  -36.2326 H   0  0  0  0  0  0  0  0  0  0  0  0
   -7.2578    5.3922  -33.4667 H   0  0  0  0  0  0  0  0  0  0  0  0
   -5.5601    5.2855  -33.8703 H   0  0  0  0  0  0  0  0  0  0  0  0
   -5.0599    4.5452  -36.5750 H   0  0  0  0  0  0  0  0  0  0  0  0
   -7.8873    5.3658  -35.8861 H   0  0  0  0  0  0  0  0  0  0  0  0
   -6.9760    6.0916  -38.3116 H   0  0  0  0  0  0  0  0  0  0  0  0
   -7.1836    4.3420  -38.0391 H   0  0  0  0  0  0  0  0  0  0  0  0
   -5.7821    7.4919  -33.6573 H   0  0  0  0  0  0  0  0  0  0  0  0
   -7.6688    3.4438  -34.7085 H   0  0  0  0  0  0  0  0  0  0  0  0
   -4.8211    5.6521  -38.9277 H   0  0  0  0  0  0  0  0  0  0  0  0
  1  2  1  0  0  0  0
  1  4  1  0  0  0  0
  2  7  1  0  0  0  0
  3  5  1  0  0  0  0
  3  7  1  0  0  0  0
  4  5  1  0  0  0  0
  4  6  1  0  0  0  0
  5  8  1  0  0  0  0
  6  9  1  0  0  0  0
  1 10  1  0  0  0  0
  1 11  1  0  0  0  0
  2 12  1  0  0  0  0
  2 13  1  0  0  0  0
  3 14  1  0  0  0  0
  3 15  1  0  0  0  0
  4 16  1  0  0  0  0
  5 17  1  0  0  0  0
  6 18  1  0  0  0  0
  6 19  1  0  0  0  0
  7 20  1  0  0  0  0
  8 21  1  0  0  0  0
  9 22  1  0  0  0  0
M  END
> <id>
EN300-95639

> <smiles>
OCC1CCNCC1O

> <MDLNUMBER>
MFCD09036027

> <IUPAC Name>
4-(hydroxymethyl)piperidin-3-ol

> <CAS>
220218-57-5

> <Purity>
95

> <URL>
https://www.enaminestore.com/catalog/EN300-95639

> <ROCS_ShapeQuery>
hit0

> <ROCS_TanimotoCombo>
1.106 

> <ROCS_ShapeTanimoto>
0.536 

> <ROCS_ColorTanimoto>
0.570 

> <ROCS_RefTversky>
1.359 

> <ROCS_RefColorTversky>
0.781 

> <ROCS_RefTverskyCombo>
2.139 

> <ROCS_FitTversky>
0.469 

> <ROCS_FitColorTversky>
0.679 

> <ROCS_FitTverskyCombo>
1.149 

> <ROCS_ColorScore>
-4.722

> <ROCS_Overlap>
164.734

> <ROCS_Rank>
50                  

$$$$
untitled-dbase-10854_139
  -OEChem-06232314393D

 22 22  0     1  0  0  0  0  0999 V2000
   -5.2252    6.7014  -36.4504 C   0  0  0  0  0  0  0  0  0  0  0  0
   -6.1413    7.6370  -35.6660 C   0  0  0  0  0  0  0  0  0  0  0  0
   -6.5240    5.6763  -34.2371 C   0  0  0  0  0  0  0  0  0  0  0  0
   -5.8523    5.3099  -36.6436 C   0  0  1  0  0  0  0  0  0  0  0  0
   -6.9019    5.0087  -35.5582 C   0  0  1  0  0  0  0  0  0  0  0  0
   -6.4728    5.1664  -38.0362 C   0  0  0  0  0  0  0  0  0  0  0  0
   -6.4751    7.1357  -34.3323 N   0  0  0  0  0  0  0  0  0  0  0  0
   -6.9853    3.5974  -35.3791 O   0  0  0  0  0  0  0  0  0  0  0  0
   -5.4366    4.8995  -38.9613 O   0  0  0  0  0  0  0  0  0  0  0  0
   -5.0013    7.1473  -37.4312 H   0  0  0  0  0  0  0  0  0  0  0  0
   -4.2651    6.6069  -35.9241 H   0  0  0  0  0  0  0  0  0  0  0  0
   -5.6819    8.6390  -35.5856 H   0  0  0  0  0  0  0  0  0  0  0  0
   -7.0773    7.7793  -36.2326 H   0  0  0  0  0  0  0  0  0  0  0  0
   -7.2578    5.3922  -33.4667 H   0  0  0  0  0  0  0  0  0  0  0  0
   -5.5601    5.2855  -33.8703 H   0  0  0  0  0  0  0  0  0  0  0  0
   -5.0599    4.5452  -36.5750 H   0  0  0  0  0  0  0  0  0  0  0  0
   -7.8873    5.3658  -35.8861 H   0  0  0  0  0  0  0  0  0  0  0  0
   -6.9760    6.0916  -38.3116 H   0  0  0  0  0  0  0  0  0  0  0  0
   -7.1836    4.3420  -38.0391 H   0  0  0  0  0  0  0  0  0  0  0  0
   -5.7821    7.4919  -33.6573 H   0  0  0  0  0  0  0  0  0  0  0  0
   -7.6688    3.4438  -34.7085 H   0  0  0  0  0  0  0  0  0  0  0  0
   -4.8211    5.6521  -38.9277 H   0  0  0  0  0  0  0  0  0  0  0  0
  1  2  1  0  0  0  0
  1  4  1  0  0  0  0
  2  7  1  0  0  0  0
  3  5  1  0  0  0  0
  3  7  1  0  0  0  0
  4  5  1  0  0  0  0
  4  6  1  0  0  0  0
  5  8  1  0  0  0  0
  6  9  1  0  0  0  0
  1 10  1  0  0  0  0
  1 11  1  0  0  0  0
  2 12  1  0  0  0  0
  2 13  1  0  0  0  0
  3 14  1  0  0  0  0
  3 15  1  0  0  0  0
  4 16  1  0  0  0  0
  5 17  1  0  0  0  0
  6 18  1  0  0  0  0
  6 19  1  0  0  0  0
  7 20  1  0  0  0  0
  8 21  1  0  0  0  0
  9 22  1  0  0  0  0
M  END
> <id>
EN300-177553

> <smiles>
Cl.OCC1CCNCC1O

> <MDLNUMBER>
MFCD22570168

> <IUPAC Name>
4-(hydroxymethyl)piperidin-3-ol hydrochloride

> <CAS>
1951441-80-7

> <URL>
https://www.enaminestore.com/catalog/EN300-177553

> <Saltdate>
Cl

> <ROCS_ShapeQuery>
hit0

> <ROCS_TanimotoCombo>
1.106 

> <ROCS_ShapeTanimoto>
0.536 

> <ROCS_ColorTanimoto>
0.570 

> <ROCS_RefTversky>
1.359 

> <ROCS_RefColorTversky>
0.781 

> <ROCS_RefTverskyCombo>
2.139 

> <ROCS_FitTversky>
0.469 

> <ROCS_FitColorTversky>
0.679 

> <ROCS_FitTverskyCombo>
1.149 

> <ROCS_ColorScore>
-4.722

> <ROCS_Overlap>
164.734

> <ROCS_Rank>
51                  

$$$$
untitled-dbase-159393_0
  -OEChem-06232314393D

 13 12  0     1  0  0  0  0  0999 V2000
   -6.2643    4.9323  -37.6237 C   0  0  0  0  0  0  0  0  0  0  0  0
   -6.9272    6.3649  -35.7356 C   0  0  0  0  0  0  0  0  0  0  0  0
   -7.1846    8.7043  -35.9846 C   0  0  0  0  0  0  0  0  0  0  0  0
   -7.1314    5.0446  -36.4473 C   0  0  2  0  0  0  0  0  0  0  0  0
   -5.5797    4.8422  -38.5564 N   0  0  0  0  0  0  0  0  0  0  0  0
   -6.5115    6.4768  -34.5891 O   0  0  0  0  0  0  0  0  0  0  0  0
   -6.8272    3.9922  -35.5456 O   0  0  0  0  0  0  0  0  0  0  0  0
   -7.3015    7.3953  -36.5513 O   0  0  0  0  0  0  0  0  0  0  0  0
   -7.5076    9.4490  -36.7162 H   0  0  0  0  0  0  0  0  0  0  0  0
   -6.1460    8.8866  -35.6975 H   0  0  0  0  0  0  0  0  0  0  0  0
   -7.8217    8.7665  -35.0992 H   0  0  0  0  0  0  0  0  0  0  0  0
   -8.1866    4.9533  -36.7255 H   0  0  0  0  0  0  0  0  0  0  0  0
   -5.8928    4.0926  -35.2990 H   0  0  0  0  0  0  0  0  0  0  0  0
  1  4  1  0  0  0  0
  1  5  3  0  0  0  0
  2  4  1  0  0  0  0
  2  6  2  0  0  0  0
  2  8  1  0  0  0  0
  3  8  1  0  0  0  0
  4  7  1  0  0  0  0
  3  9  1  0  0  0  0
  3 10  1  0  0  0  0
  3 11  1  0  0  0  0
  4 12  1  0  0  0  0
  7 13  1  0  0  0  0
M  END
> <id>
EN300-95549

> <smiles>
COC(=O)C(O)C#N

> <MDLNUMBER>
MFCD21304958

> <IUPAC Name>
methyl 2-cyano-2-hydroxyacetate

> <CAS>
1495924-95-2

> <URL>
https://www.enaminestore.com/catalog/EN300-95549

> <ROCS_ShapeQuery>
hit0

> <ROCS_TanimotoCombo>
1.105 

> <ROCS_ShapeTanimoto>
0.534 

> <ROCS_ColorTanimoto>
0.571 

> <ROCS_RefTversky>
1.261 

> <ROCS_RefColorTversky>
0.616 

> <ROCS_RefTverskyCombo>
1.877 

> <ROCS_FitTversky>
0.481 

> <ROCS_FitColorTversky>
0.886 

> <ROCS_FitTverskyCombo>
1.367 

> <ROCS_ColorScore>
-3.636

> <ROCS_Overlap>
150.297

> <ROCS_Rank>
52                  

$$$$
untitled-dbase-9948_60
  -OEChem-06232314393D

 19 19  0     1  0  0  0  0  0999 V2000
   -5.6302    5.4886  -36.4387 C   0  0  0  0  0  0  0  0  0  0  0  0
   -6.7657    3.5381  -37.1141 C   0  0  0  0  0  0  0  0  0  0  0  0
   -5.5254    4.3491  -37.4319 C   0  0  1  0  0  0  0  0  0  0  0  0
   -6.1826    4.8081  -35.1911 C   0  0  1  0  0  0  0  0  0  0  0  0
   -7.0684    5.7292  -34.3641 C   0  0  0  0  0  0  0  0  0  0  0  0
   -6.8973    3.6090  -35.6583 N   0  0  0  0  0  0  0  0  0  0  0  0
   -5.5383    4.8367  -38.7584 O   0  0  0  0  0  0  0  0  0  0  0  0
   -6.4847    7.0209  -34.3378 O   0  0  0  0  0  0  0  0  0  0  0  0
   -4.6558    5.9431  -36.2416 H   0  0  0  0  0  0  0  0  0  0  0  0
   -6.2988    6.2760  -36.8025 H   0  0  0  0  0  0  0  0  0  0  0  0
   -7.6716    3.9060  -37.6081 H   0  0  0  0  0  0  0  0  0  0  0  0
   -6.6224    2.4892  -37.4014 H   0  0  0  0  0  0  0  0  0  0  0  0
   -4.6212    3.7639  -37.2657 H   0  0  0  0  0  0  0  0  0  0  0  0
   -5.3335    4.4827  -34.5355 H   0  0  0  0  0  0  0  0  0  0  0  0
   -7.1521    5.3548  -33.3418 H   0  0  0  0  0  0  0  0  0  0  0  0
   -8.0633    5.7964  -34.8091 H   0  0  0  0  0  0  0  0  0  0  0  0
   -7.8951    3.7070  -35.4224 H   0  0  0  0  0  0  0  0  0  0  0  0
   -5.4689    4.0645  -39.3438 H   0  0  0  0  0  0  0  0  0  0  0  0
   -7.0693    7.5856  -33.8050 H   0  0  0  0  0  0  0  0  0  0  0  0
  1  3  1  0  0  0  0
  1  4  1  0  0  0  0
  2  3  1  0  0  0  0
  2  6  1  0  0  0  0
  3  7  1  0  0  0  0
  4  5  1  0  0  0  0
  4  6  1  0  0  0  0
  5  8  1  0  0  0  0
  1  9  1  0  0  0  0
  1 10  1  0  0  0  0
  2 11  1  0  0  0  0
  2 12  1  0  0  0  0
  3 13  1  0  0  0  0
  4 14  1  0  0  0  0
  5 15  1  0  0  0  0
  5 16  1  0  0  0  0
  6 17  1  0  0  0  0
  7 18  1  0  0  0  0
  8 19  1  0  0  0  0
M  END
> <id>
EN300-120376

> <smiles>
OCC1CC(O)CN1

> <MDLNUMBER>
MFCD08445393

> <IUPAC Name>
5-(hydroxymethyl)pyrrolidin-3-ol

> <CAS>
178105-24-3

> <URL>
https://www.enaminestore.com/catalog/EN300-120376

> <ROCS_ShapeQuery>
hit0

> <ROCS_TanimotoCombo>
1.104 

> <ROCS_ShapeTanimoto>
0.496 

> <ROCS_ColorTanimoto>
0.609 

> <ROCS_RefTversky>
1.207 

> <ROCS_RefColorTversky>
0.813 

> <ROCS_RefTverskyCombo>
2.020 

> <ROCS_FitTversky>
0.457 

> <ROCS_FitColorTversky>
0.708 

> <ROCS_FitTverskyCombo>
1.165 

> <ROCS_ColorScore>
-4.919

> <ROCS_Overlap>
144.091

> <ROCS_Rank>
53                  

$$$$
untitled-dbase-51461_60
  -OEChem-06232314393D

 19 19  0     1  0  0  0  0  0999 V2000
   -5.6302    5.4886  -36.4387 C   0  0  0  0  0  0  0  0  0  0  0  0
   -6.7657    3.5381  -37.1141 C   0  0  0  0  0  0  0  0  0  0  0  0
   -5.5254    4.3491  -37.4319 C   0  0  1  0  0  0  0  0  0  0  0  0
   -6.1826    4.8081  -35.1911 C   0  0  1  0  0  0  0  0  0  0  0  0
   -7.0684    5.7292  -34.3641 C   0  0  0  0  0  0  0  0  0  0  0  0
   -6.8973    3.6090  -35.6583 N   0  0  0  0  0  0  0  0  0  0  0  0
   -5.5383    4.8367  -38.7584 O   0  0  0  0  0  0  0  0  0  0  0  0
   -6.4847    7.0209  -34.3378 O   0  0  0  0  0  0  0  0  0  0  0  0
   -4.6558    5.9431  -36.2416 H   0  0  0  0  0  0  0  0  0  0  0  0
   -6.2988    6.2760  -36.8025 H   0  0  0  0  0  0  0  0  0  0  0  0
   -7.6716    3.9060  -37.6081 H   0  0  0  0  0  0  0  0  0  0  0  0
   -6.6224    2.4892  -37.4014 H   0  0  0  0  0  0  0  0  0  0  0  0
   -4.6212    3.7639  -37.2657 H   0  0  0  0  0  0  0  0  0  0  0  0
   -5.3335    4.4827  -34.5355 H   0  0  0  0  0  0  0  0  0  0  0  0
   -7.1521    5.3548  -33.3418 H   0  0  0  0  0  0  0  0  0  0  0  0
   -8.0633    5.7964  -34.8091 H   0  0  0  0  0  0  0  0  0  0  0  0
   -7.8951    3.7070  -35.4224 H   0  0  0  0  0  0  0  0  0  0  0  0
   -5.4689    4.0645  -39.3438 H   0  0  0  0  0  0  0  0  0  0  0  0
   -7.0693    7.5856  -33.8050 H   0  0  0  0  0  0  0  0  0  0  0  0
  1  3  1  0  0  0  0
  1  4  1  0  0  0  0
  2  3  1  0  0  0  0
  2  6  1  0  0  0  0
  3  7  1  0  0  0  0
  4  5  1  0  0  0  0
  4  6  1  0  0  0  0
  5  8  1  0  0  0  0
  1  9  1  0  0  0  0
  1 10  1  0  0  0  0
  2 11  1  0  0  0  0
  2 12  1  0  0  0  0
  3 13  1  0  0  0  0
  4 14  1  0  0  0  0
  5 15  1  0  0  0  0
  5 16  1  0  0  0  0
  6 17  1  0  0  0  0
  7 18  1  0  0  0  0
  8 19  1  0  0  0  0
M  END
> <id>
EN300-120377

> <smiles>
Cl.OCC1CC(O)CN1

> <MDLNUMBER>
MFCD22628520

> <IUPAC Name>
5-(hydroxymethyl)pyrrolidin-3-ol hydrochloride

> <CAS>
1423026-02-1

> <URL>
https://www.enaminestore.com/catalog/EN300-120377

> <Saltdate>
Cl

> <ROCS_ShapeQuery>
hit0

> <ROCS_TanimotoCombo>
1.104 

> <ROCS_ShapeTanimoto>
0.496 

> <ROCS_ColorTanimoto>
0.609 

> <ROCS_RefTversky>
1.207 

> <ROCS_RefColorTversky>
0.813 

> <ROCS_RefTverskyCombo>
2.020 

> <ROCS_FitTversky>
0.457 

> <ROCS_FitColorTversky>
0.708 

> <ROCS_FitTverskyCombo>
1.165 

> <ROCS_ColorScore>
-4.919

> <ROCS_Overlap>
144.091

> <ROCS_Rank>
54                  

$$$$
untitled-dbase-173655_38
  -OEChem-06232314393D

 17 17  0     1  0  0  0  0  0999 V2000
   -5.0779    6.5129  -36.9513 C   0  0  0  0  0  0  0  0  0  0  0  0
   -6.6829    5.1541  -36.5586 C   0  0  0  0  0  0  0  0  0  0  0  0
   -6.5973    6.6915  -36.7167 C   0  0  1  0  0  0  0  0  0  0  0  0
   -5.3698    5.0532  -37.3663 C   0  0  1  0  0  0  0  0  0  0  0  0
   -7.0041    7.5195  -35.5153 C   0  0  0  0  0  0  0  0  0  0  0  0
   -5.5225    4.8174  -38.7792 O   0  0  0  0  0  0  0  0  0  0  0  0
   -6.5005    6.9003  -34.3441 O   0  0  0  0  0  0  0  0  0  0  0  0
   -4.6826    7.1328  -37.7619 H   0  0  0  0  0  0  0  0  0  0  0  0
   -4.4409    6.6317  -36.0728 H   0  0  0  0  0  0  0  0  0  0  0  0
   -6.6345    4.7748  -35.5359 H   0  0  0  0  0  0  0  0  0  0  0  0
   -7.5471    4.7081  -37.0609 H   0  0  0  0  0  0  0  0  0  0  0  0
   -7.1246    7.0539  -37.6175 H   0  0  0  0  0  0  0  0  0  0  0  0
   -4.6589    4.3401  -36.9348 H   0  0  0  0  0  0  0  0  0  0  0  0
   -8.0921    7.5776  -35.4492 H   0  0  0  0  0  0  0  0  0  0  0  0
   -6.5896    8.5262  -35.5939 H   0  0  0  0  0  0  0  0  0  0  0  0
   -5.6978    3.8716  -38.8714 H   0  0  0  0  0  0  0  0  0  0  0  0
   -6.7752    7.4505  -33.5913 H   0  0  0  0  0  0  0  0  0  0  0  0
  1  3  1  0  0  0  0
  1  4  1  0  0  0  0
  2  3  1  0  0  0  0
  2  4  1  0  0  0  0
  3  5  1  1  0  0  0
  4  6  1  6  0  0  0
  5  7  1  0  0  0  0
  1  8  1  0  0  0  0
  1  9  1  0  0  0  0
  2 10  1  0  0  0  0
  2 11  1  0  0  0  0
  3 12  1  0  0  0  0
  4 13  1  0  0  0  0
  5 14  1  0  0  0  0
  5 15  1  0  0  0  0
  6 16  1  0  0  0  0
  7 17  1  0  0  0  0
M  END
> <id>
EN300-7154885

> <smiles>
OC[C@H]1C[C@H](O)C1

> <MDLNUMBER>
MFCD16660376

> <IUPAC Name>
(1r,3r)-3-(hydroxymethyl)cyclobutan-1-ol

> <CAS>
112623-30-0

> <Purity>
95

> <URL>
https://www.enaminestore.com/catalog/EN300-7154885

> <ROCS_ShapeQuery>
hit0

> <ROCS_TanimotoCombo>
1.104 

> <ROCS_ShapeTanimoto>
0.533 

> <ROCS_ColorTanimoto>
0.571 

> <ROCS_RefTversky>
1.143 

> <ROCS_RefColorTversky>
0.672 

> <ROCS_RefTverskyCombo>
1.815 

> <ROCS_FitTversky>
0.499 

> <ROCS_FitColorTversky>
0.792 

> <ROCS_FitTverskyCombo>
1.291 

> <ROCS_ColorScore>
-3.998

> <ROCS_Overlap>
133.526

> <ROCS_Rank>
55                  

$$$$
untitled-dbase-9333_59
  -OEChem-06232314393D

 19 19  0     1  0  0  0  0  0999 V2000
   -5.6046    5.4710  -36.4237 C   0  0  0  0  0  0  0  0  0  0  0  0
   -6.7937    3.5585  -37.1146 C   0  0  0  0  0  0  0  0  0  0  0  0
   -5.5332    4.3388  -37.4287 C   0  0  1  0  0  0  0  0  0  0  0  0
   -6.1842    4.7994  -35.1826 C   0  0  1  0  0  0  0  0  0  0  0  0
   -7.0776    5.7314  -34.3758 C   0  0  0  0  0  0  0  0  0  0  0  0
   -6.9006    3.6042  -35.6565 N   0  0  0  0  0  0  0  0  0  0  0  0
   -5.5371    4.8397  -38.7503 O   0  0  0  0  0  0  0  0  0  0  0  0
   -6.4844    7.0187  -34.3451 O   0  0  0  0  0  0  0  0  0  0  0  0
   -4.6161    5.8915  -36.2188 H   0  0  0  0  0  0  0  0  0  0  0  0
   -6.2454    6.2842  -36.7824 H   0  0  0  0  0  0  0  0  0  0  0  0
   -7.6930    3.9649  -37.5874 H   0  0  0  0  0  0  0  0  0  0  0  0
   -6.6846    2.5132  -37.4250 H   0  0  0  0  0  0  0  0  0  0  0  0
   -4.6443    3.7285  -37.2711 H   0  0  0  0  0  0  0  0  0  0  0  0
   -5.3495    4.4711  -34.5109 H   0  0  0  0  0  0  0  0  0  0  0  0
   -7.1825    5.3626  -33.3534 H   0  0  0  0  0  0  0  0  0  0  0  0
   -8.0638    5.8041  -34.8389 H   0  0  0  0  0  0  0  0  0  0  0  0
   -7.8945    3.6931  -35.4016 H   0  0  0  0  0  0  0  0  0  0  0  0
   -5.4900    4.0717  -39.3434 H   0  0  0  0  0  0  0  0  0  0  0  0
   -7.0741    7.5905  -33.8255 H   0  0  0  0  0  0  0  0  0  0  0  0
  1  3  1  0  0  0  0
  1  4  1  0  0  0  0
  2  3  1  0  0  0  0
  2  6  1  0  0  0  0
  3  7  1  6  0  0  0
  4  5  1  6  0  0  0
  4  6  1  0  0  0  0
  5  8  1  0  0  0  0
  1  9  1  0  0  0  0
  1 10  1  0  0  0  0
  2 11  1  0  0  0  0
  2 12  1  0  0  0  0
  3 13  1  0  0  0  0
  4 14  1  0  0  0  0
  5 15  1  0  0  0  0
  5 16  1  0  0  0  0
  6 17  1  0  0  0  0
  7 18  1  0  0  0  0
  8 19  1  0  0  0  0
M  END
> <id>
EN300-152756

> <smiles>
Cl.OC[C@@H]1C[C@H](O)CN1

> <MDLNUMBER>
MFCD27500777

> <IUPAC Name>
(3S,5S)-5-(hydroxymethyl)pyrrolidin-3-ol hydrochloride

> <CAS>
1350834-24-0

> <Purity>
95

> <URL>
https://www.enaminestore.com/catalog/EN300-152756

> <Saltdate>
Cl

> <ROCS_ShapeQuery>
hit0

> <ROCS_TanimotoCombo>
1.103 

> <ROCS_ShapeTanimoto>
0.494 

> <ROCS_ColorTanimoto>
0.608 

> <ROCS_RefTversky>
1.205 

> <ROCS_RefColorTversky>
0.813 

> <ROCS_RefTverskyCombo>
2.018 

> <ROCS_FitTversky>
0.456 

> <ROCS_FitColorTversky>
0.707 

> <ROCS_FitTverskyCombo>
1.163 

> <ROCS_ColorScore>
-4.917

> <ROCS_Overlap>
143.838

> <ROCS_Rank>
56                  

$$$$
untitled-dbase-87719_157
  -OEChem-06232314393D

 21 21  0     1  0  0  0  0  0999 V2000
   -6.9206    6.0016  -37.4478 C   0  0  0  0  0  0  0  0  0  0  0  0
   -7.8631    5.8871  -36.2562 C   0  0  0  0  0  0  0  0  0  0  0  0
   -5.9126    3.8195  -36.7237 C   0  0  0  0  0  0  0  0  0  0  0  0
   -6.4653    4.6176  -37.8973 C   0  0  2  0  0  0  0  0  0  0  0  0
   -7.2841    5.0064  -35.1446 C   0  0  2  0  0  0  0  0  0  0  0  0
   -6.1733    5.6911  -34.3512 C   0  0  0  0  0  0  0  0  0  0  0  0
   -6.8554    3.7405  -35.6583 O   0  0  0  0  0  0  0  0  0  0  0  0
   -5.4817    4.7340  -38.9156 O   0  0  0  0  0  0  0  0  0  0  0  0
   -6.5261    7.0494  -34.1559 O   0  0  0  0  0  0  0  0  0  0  0  0
   -7.4416    6.4981  -38.2717 H   0  0  0  0  0  0  0  0  0  0  0  0
   -6.0607    6.6168  -37.1696 H   0  0  0  0  0  0  0  0  0  0  0  0
   -8.0548    6.9006  -35.8604 H   0  0  0  0  0  0  0  0  0  0  0  0
   -8.8392    5.4934  -36.5878 H   0  0  0  0  0  0  0  0  0  0  0  0
   -5.6341    2.8038  -37.0323 H   0  0  0  0  0  0  0  0  0  0  0  0
   -5.0156    4.3044  -36.3214 H   0  0  0  0  0  0  0  0  0  0  0  0
   -7.3266    4.0766  -38.3378 H   0  0  0  0  0  0  0  0  0  0  0  0
   -8.1250    4.7859  -34.4046 H   0  0  0  0  0  0  0  0  0  0  0  0
   -5.2329    5.6409  -34.9023 H   0  0  0  0  0  0  0  0  0  0  0  0
   -6.0536    5.2087  -33.3798 H   0  0  0  0  0  0  0  0  0  0  0  0
   -5.8999    5.2112  -39.6484 H   0  0  0  0  0  0  0  0  0  0  0  0
   -6.6222    7.4479  -35.0373 H   0  0  0  0  0  0  0  0  0  0  0  0
  1  2  1  0  0  0  0
  1  4  1  0  0  0  0
  2  5  1  0  0  0  0
  3  4  1  0  0  0  0
  3  7  1  0  0  0  0
  4  8  1  0  0  0  0
  5  6  1  0  0  0  0
  5  7  1  0  0  0  0
  6  9  1  0  0  0  0
  1 10  1  0  0  0  0
  1 11  1  0  0  0  0
  2 12  1  0  0  0  0
  2 13  1  0  0  0  0
  3 14  1  0  0  0  0
  3 15  1  0  0  0  0
  4 16  1  0  0  0  0
  5 17  1  0  0  0  0
  6 18  1  0  0  0  0
  6 19  1  0  0  0  0
  8 20  1  0  0  0  0
  9 21  1  0  0  0  0
M  END
> <id>
EN300-188465

> <smiles>
OCC1CCC(O)CO1

> <MDLNUMBER>
MFCD21608207

> <IUPAC Name>
6-(hydroxymethyl)oxan-3-ol

> <CAS>
94249-15-7

> <URL>
https://www.enaminestore.com/catalog/EN300-188465

> <ROCS_ShapeQuery>
hit0

> <ROCS_TanimotoCombo>
1.101 

> <ROCS_ShapeTanimoto>
0.424 

> <ROCS_ColorTanimoto>
0.676 

> <ROCS_RefTversky>
1.172 

> <ROCS_RefColorTversky>
0.807 

> <ROCS_RefTverskyCombo>
1.979 

> <ROCS_FitTversky>
0.400 

> <ROCS_FitColorTversky>
0.807 

> <ROCS_FitTverskyCombo>
1.206 

> <ROCS_ColorScore>
-4.842

> <ROCS_Overlap>
142.381

> <ROCS_Rank>
57                  

$$$$
untitled-dbase-124081_13
  -OEChem-06232314393D

 16 15  0     1  0  0  0  0  0999 V2000
   -8.0102    5.0491  -37.2615 C   0  0  0  0  0  0  0  0  0  0  0  0
   -5.7358    3.9963  -37.6457 C   0  0  0  0  0  0  0  0  0  0  0  0
   -6.6533    4.7052  -36.6420 C   0  0  1  0  0  0  0  0  0  0  0  0
   -5.9740    5.9557  -36.0957 C   0  0  0  0  0  0  0  0  0  0  0  0
   -5.5223    4.8150  -38.7904 O   0  0  0  0  0  0  0  0  0  0  0  0
   -6.8759    3.8103  -35.5491 O   0  0  0  0  0  0  0  0  0  0  0  0
   -6.7257    6.5473  -35.1410 F   0  0  0  0  0  0  0  0  0  0  0  0
   -4.7743    5.6632  -35.5463 F   0  0  0  0  0  0  0  0  0  0  0  0
   -5.7627    6.8669  -37.0713 F   0  0  0  0  0  0  0  0  0  0  0  0
   -8.6608    5.5551  -36.5397 H   0  0  0  0  0  0  0  0  0  0  0  0
   -8.5233    4.1538  -37.6270 H   0  0  0  0  0  0  0  0  0  0  0  0
   -7.8916    5.7447  -38.1002 H   0  0  0  0  0  0  0  0  0  0  0  0
   -6.1900    3.0617  -37.9926 H   0  0  0  0  0  0  0  0  0  0  0  0
   -4.7606    3.7742  -37.1995 H   0  0  0  0  0  0  0  0  0  0  0  0
   -4.9390    4.3162  -39.3840 H   0  0  0  0  0  0  0  0  0  0  0  0
   -7.4447    4.2822  -34.9234 H   0  0  0  0  0  0  0  0  0  0  0  0
  1  3  1  0  0  0  0
  2  3  1  0  0  0  0
  2  5  1  0  0  0  0
  3  4  1  0  0  0  0
  3  6  1  0  0  0  0
  4  7  1  0  0  0  0
  4  8  1  0  0  0  0
  4  9  1  0  0  0  0
  1 10  1  0  0  0  0
  1 11  1  0  0  0  0
  1 12  1  0  0  0  0
  2 13  1  0  0  0  0
  2 14  1  0  0  0  0
  5 15  1  0  0  0  0
  6 16  1  0  0  0  0
M  END
> <id>
EN300-1233893

> <smiles>
CC(O)(CO)C(F)(F)F

> <MDLNUMBER>
MFCD28152355

> <IUPAC Name>
3,3,3-trifluoro-2-methylpropane-1,2-diol

> <CAS>
101055-10-1

> <Purity>
95

> <URL>
https://www.enaminestore.com/catalog/EN300-1233893

> <ROCS_ShapeQuery>
hit0

> <ROCS_TanimotoCombo>
1.101 

> <ROCS_ShapeTanimoto>
0.434 

> <ROCS_ColorTanimoto>
0.666 

> <ROCS_RefTversky>
1.209 

> <ROCS_RefColorTversky>
0.678 

> <ROCS_RefTverskyCombo>
1.887 

> <ROCS_FitTversky>
0.404 

> <ROCS_FitColorTversky>
0.975 

> <ROCS_FitTverskyCombo>
1.379 

> <ROCS_ColorScore>
-3.999

> <ROCS_Overlap>
147.438

> <ROCS_Rank>
58                  

$$$$
untitled-dbase-57975_1
  -OEChem-06232314393D

 13 13  0     0  0  0  0  0  0999 V2000
   -5.8172    4.4958  -36.5188 C   0  0  0  0  0  0  0  0  0  0  0  0
   -6.4887    5.7583  -34.9789 C   0  0  0  0  0  0  0  0  0  0  0  0
   -5.0197    4.1123  -37.6901 C   0  0  0  0  0  0  0  0  0  0  0  0
   -6.7129    3.8053  -35.8526 N   0  0  0  0  0  0  0  0  0  0  0  0
   -7.1547    4.6359  -34.8397 N   0  0  0  0  0  0  0  0  0  0  0  0
   -6.5446    6.8962  -34.2533 N   0  0  0  0  0  0  0  0  0  0  0  0
   -5.6178    5.7485  -36.0249 O   0  0  0  0  0  0  0  0  0  0  0  0
   -5.5303    4.7456  -38.8665 O   0  0  0  0  0  0  0  0  0  0  0  0
   -3.9549    4.3999  -37.5910 H   0  0  0  0  0  0  0  0  0  0  0  0
   -5.0295    3.0190  -37.8654 H   0  0  0  0  0  0  0  0  0  0  0  0
   -7.2088    7.0171  -33.4749 H   0  0  0  0  0  0  0  0  0  0  0  0
   -5.9939    7.7310  -34.5013 H   0  0  0  0  0  0  0  0  0  0  0  0
   -5.4699    5.6991  -38.7090 H   0  0  0  0  0  0  0  0  0  0  0  0
  1  3  1  0  0  0  0
  1  4  2  0  0  0  0
  1  7  1  0  0  0  0
  2  5  2  0  0  0  0
  2  6  1  0  0  0  0
  2  7  1  0  0  0  0
  3  8  1  0  0  0  0
  4  5  1  0  0  0  0
  3  9  1  0  0  0  0
  3 10  1  0  0  0  0
  6 11  1  0  0  0  0
  6 12  1  0  0  0  0
  8 13  1  0  0  0  0
M  END
> <id>
EN300-155372

> <smiles>
NC1=NN=C(CO)O1

> <MDLNUMBER>
MFCD19206765

> <IUPAC Name>
(5-amino-1,3,4-oxadiazol-2-yl)methanol

> <CAS>
23982-94-7

> <Purity>
95

> <URL>
https://www.enaminestore.com/catalog/EN300-155372

> <MP>
144-145

> <ROCS_ShapeQuery>
hit0

> <ROCS_TanimotoCombo>
1.100 

> <ROCS_ShapeTanimoto>
0.471 

> <ROCS_ColorTanimoto>
0.629 

> <ROCS_RefTversky>
1.227 

> <ROCS_RefColorTversky>
0.847 

> <ROCS_RefTverskyCombo>
2.074 

> <ROCS_FitTversky>
0.433 

> <ROCS_FitColorTversky>
0.709 

> <ROCS_FitTverskyCombo>
1.143 

> <ROCS_ColorScore>
-5.134

> <ROCS_Overlap>
148.222

> <ROCS_Rank>
59                  

$$$$
untitled-dbase-19169_83
  -OEChem-06232314393D

 22 22  0     1  0  0  0  0  0999 V2000
   -8.2746    5.7291  -35.7956 C   0  0  0  0  0  0  0  0  0  0  0  0
   -7.8544    6.3942  -34.4780 C   0  0  0  0  0  0  0  0  0  0  0  0
   -5.9212    7.0711  -35.7799 C   0  0  0  0  0  0  0  0  0  0  0  0
   -5.8561    5.7494  -36.5704 C   0  0  1  0  0  0  0  0  0  0  0  0
   -7.1412    4.9073  -36.4047 C   0  0  1  0  0  0  0  0  0  0  0  0
   -5.5908    6.0539  -38.0464 C   0  0  0  0  0  0  0  0  0  0  0  0
   -6.4616    6.8450  -34.4456 N   0  0  0  0  0  0  0  0  0  0  0  0
   -6.8770    3.8100  -35.5270 O   0  0  0  0  0  0  0  0  0  0  0  0
   -5.5244    4.8283  -38.7489 O   0  0  0  0  0  0  0  0  0  0  0  0
   -9.1513    5.0880  -35.6246 H   0  0  0  0  0  0  0  0  0  0  0  0
   -8.6059    6.4945  -36.5094 H   0  0  0  0  0  0  0  0  0  0  0  0
   -8.5306    7.2455  -34.2558 H   0  0  0  0  0  0  0  0  0  0  0  0
   -8.0115    5.6734  -33.6520 H   0  0  0  0  0  0  0  0  0  0  0  0
   -4.9146    7.4836  -35.6842 H   0  0  0  0  0  0  0  0  0  0  0  0
   -6.5274    7.8075  -36.3139 H   0  0  0  0  0  0  0  0  0  0  0  0
   -5.0015    5.1589  -36.2137 H   0  0  0  0  0  0  0  0  0  0  0  0
   -7.4562    4.4965  -37.3664 H   0  0  0  0  0  0  0  0  0  0  0  0
   -4.6452    6.5829  -38.1474 H   0  0  0  0  0  0  0  0  0  0  0  0
   -6.4009    6.6598  -38.4474 H   0  0  0  0  0  0  0  0  0  0  0  0
   -6.4051    7.7131  -33.9057 H   0  0  0  0  0  0  0  0  0  0  0  0
   -6.6223    4.1929  -34.6727 H   0  0  0  0  0  0  0  0  0  0  0  0
   -5.3556    5.0416  -39.6831 H   0  0  0  0  0  0  0  0  0  0  0  0
  1  2  1  0  0  0  0
  1  5  1  0  0  0  0
  2  7  1  0  0  0  0
  3  4  1  0  0  0  0
  3  7  1  0  0  0  0
  4  5  1  0  0  0  0
  4  6  1  0  0  0  0
  5  8  1  0  0  0  0
  6  9  1  0  0  0  0
  1 10  1  0  0  0  0
  1 11  1  0  0  0  0
  2 12  1  0  0  0  0
  2 13  1  0  0  0  0
  3 14  1  0  0  0  0
  3 15  1  0  0  0  0
  4 16  1  0  0  0  0
  5 17  1  0  0  0  0
  6 18  1  0  0  0  0
  6 19  1  0  0  0  0
  7 20  1  0  0  0  0
  8 21  1  0  0  0  0
  9 22  1  0  0  0  0
M  END
> <id>
EN300-233678

> <smiles>
OCC1CNCCC1O

> <MDLNUMBER>
MFCD09910304

> <IUPAC Name>
3-(hydroxymethyl)piperidin-4-ol

> <CAS>
682331-21-1

> <URL>
https://www.enaminestore.com/catalog/EN300-233678

> <ROCS_ShapeQuery>
hit0

> <ROCS_TanimotoCombo>
1.100 

> <ROCS_ShapeTanimoto>
0.480 

> <ROCS_ColorTanimoto>
0.619 

> <ROCS_RefTversky>
1.270 

> <ROCS_RefColorTversky>
0.822 

> <ROCS_RefTverskyCombo>
2.092 

> <ROCS_FitTversky>
0.436 

> <ROCS_FitColorTversky>
0.715 

> <ROCS_FitTverskyCombo>
1.151 

> <ROCS_ColorScore>
-4.974

> <ROCS_Overlap>
154.085

> <ROCS_Rank>
60                  

$$$$
untitled-dbase-133583_83
  -OEChem-06232314393D

 22 22  0     1  0  0  0  0  0999 V2000
   -8.2746    5.7291  -35.7956 C   0  0  0  0  0  0  0  0  0  0  0  0
   -7.8544    6.3942  -34.4780 C   0  0  0  0  0  0  0  0  0  0  0  0
   -5.9212    7.0711  -35.7799 C   0  0  0  0  0  0  0  0  0  0  0  0
   -5.8561    5.7494  -36.5704 C   0  0  1  0  0  0  0  0  0  0  0  0
   -7.1412    4.9073  -36.4047 C   0  0  1  0  0  0  0  0  0  0  0  0
   -5.5908    6.0539  -38.0464 C   0  0  0  0  0  0  0  0  0  0  0  0
   -6.4616    6.8450  -34.4456 N   0  0  0  0  0  0  0  0  0  0  0  0
   -6.8770    3.8100  -35.5270 O   0  0  0  0  0  0  0  0  0  0  0  0
   -5.5244    4.8283  -38.7489 O   0  0  0  0  0  0  0  0  0  0  0  0
   -9.1513    5.0880  -35.6246 H   0  0  0  0  0  0  0  0  0  0  0  0
   -8.6059    6.4945  -36.5094 H   0  0  0  0  0  0  0  0  0  0  0  0
   -8.5306    7.2455  -34.2558 H   0  0  0  0  0  0  0  0  0  0  0  0
   -8.0115    5.6734  -33.6520 H   0  0  0  0  0  0  0  0  0  0  0  0
   -4.9146    7.4836  -35.6842 H   0  0  0  0  0  0  0  0  0  0  0  0
   -6.5274    7.8075  -36.3139 H   0  0  0  0  0  0  0  0  0  0  0  0
   -5.0015    5.1589  -36.2137 H   0  0  0  0  0  0  0  0  0  0  0  0
   -7.4562    4.4965  -37.3664 H   0  0  0  0  0  0  0  0  0  0  0  0
   -4.6452    6.5829  -38.1474 H   0  0  0  0  0  0  0  0  0  0  0  0
   -6.4009    6.6598  -38.4474 H   0  0  0  0  0  0  0  0  0  0  0  0
   -6.4051    7.7131  -33.9057 H   0  0  0  0  0  0  0  0  0  0  0  0
   -6.6223    4.1929  -34.6727 H   0  0  0  0  0  0  0  0  0  0  0  0
   -5.3556    5.0416  -39.6831 H   0  0  0  0  0  0  0  0  0  0  0  0
  1  2  1  0  0  0  0
  1  5  1  0  0  0  0
  2  7  1  0  0  0  0
  3  4  1  0  0  0  0
  3  7  1  0  0  0  0
  4  5  1  0  0  0  0
  4  6  1  0  0  0  0
  5  8  1  0  0  0  0
  6  9  1  0  0  0  0
  1 10  1  0  0  0  0
  1 11  1  0  0  0  0
  2 12  1  0  0  0  0
  2 13  1  0  0  0  0
  3 14  1  0  0  0  0
  3 15  1  0  0  0  0
  4 16  1  0  0  0  0
  5 17  1  0  0  0  0
  6 18  1  0  0  0  0
  6 19  1  0  0  0  0
  7 20  1  0  0  0  0
  8 21  1  0  0  0  0
  9 22  1  0  0  0  0
M  END
> <id>
EN300-255393

> <smiles>
Cl.OCC1CNCCC1O

> <MDLNUMBER>
MFCD27997451

> <IUPAC Name>
3-(hydroxymethyl)piperidin-4-ol hydrochloride

> <CAS>
955027-77-7

> <URL>
https://www.enaminestore.com/catalog/EN300-255393

> <Saltdate>
Cl

> <ROCS_ShapeQuery>
hit0

> <ROCS_TanimotoCombo>
1.100 

> <ROCS_ShapeTanimoto>
0.480 

> <ROCS_ColorTanimoto>
0.619 

> <ROCS_RefTversky>
1.270 

> <ROCS_RefColorTversky>
0.822 

> <ROCS_RefTverskyCombo>
2.092 

> <ROCS_FitTversky>
0.436 

> <ROCS_FitColorTversky>
0.715 

> <ROCS_FitTverskyCombo>
1.151 

> <ROCS_ColorScore>
-4.974

> <ROCS_Overlap>
154.085

> <ROCS_Rank>
61                  

$$$$
untitled-dbase-50841_10
  -OEChem-06232314393D

 13 13  0     0  0  0  0  0  0999 V2000
   -6.0534    4.3970  -36.7239 C   0  0  0  0  0  0  0  0  0  0  0  0
   -6.4945    5.8956  -34.9557 C   0  0  0  0  0  0  0  0  0  0  0  0
   -5.6065    3.7306  -37.9635 C   0  0  0  0  0  0  0  0  0  0  0  0
   -6.7772    3.8364  -35.7785 N   0  0  0  0  0  0  0  0  0  0  0  0
   -7.0368    4.7158  -34.7418 N   0  0  0  0  0  0  0  0  0  0  0  0
   -6.5798    6.9574  -34.1139 N   0  0  0  0  0  0  0  0  0  0  0  0
   -5.4875    4.6878  -39.0155 O   0  0  0  0  0  0  0  0  0  0  0  0
   -5.6285    6.0325  -36.4297 S   0  0  0  0  0  0  0  0  0  0  0  0
   -4.6266    3.2369  -37.8399 H   0  0  0  0  0  0  0  0  0  0  0  0
   -6.3154    2.9496  -38.2894 H   0  0  0  0  0  0  0  0  0  0  0  0
   -6.0967    7.8421  -34.3090 H   0  0  0  0  0  0  0  0  0  0  0  0
   -7.0512    6.8894  -33.2044 H   0  0  0  0  0  0  0  0  0  0  0  0
   -4.8332    5.3392  -38.7208 H   0  0  0  0  0  0  0  0  0  0  0  0
  1  3  1  0  0  0  0
  1  4  2  0  0  0  0
  1  8  1  0  0  0  0
  2  5  2  0  0  0  0
  2  6  1  0  0  0  0
  2  8  1  0  0  0  0
  3  7  1  0  0  0  0
  4  5  1  0  0  0  0
  3  9  1  0  0  0  0
  3 10  1  0  0  0  0
  6 11  1  0  0  0  0
  6 12  1  0  0  0  0
  7 13  1  0  0  0  0
M  END
> <id>
EN300-114425

> <smiles>
NC1=NN=C(CO)S1

> <MDLNUMBER>
MFCD12766834

> <IUPAC Name>
(5-amino-1,3,4-thiadiazol-2-yl)methanol

> <CAS>
56951-58-7

> <Purity>
95

> <URL>
https://www.enaminestore.com/catalog/EN300-114425

> <MP>
185-186

> <ROCS_ShapeQuery>
hit0

> <ROCS_TanimotoCombo>
1.099 

> <ROCS_ShapeTanimoto>
0.510 

> <ROCS_ColorTanimoto>
0.590 

> <ROCS_RefTversky>
1.232 

> <ROCS_RefColorTversky>
0.814 

> <ROCS_RefTverskyCombo>
2.045 

> <ROCS_FitTversky>
0.465 

> <ROCS_FitColorTversky>
0.682 

> <ROCS_FitTverskyCombo>
1.147 

> <ROCS_ColorScore>
-4.934

> <ROCS_Overlap>
147.024

> <ROCS_Rank>
62                  

$$$$
untitled-dbase-104627_124
  -OEChem-06232314393D

 19 19  0     0  0  0  0  0  0999 V2000
   -4.9137    6.1213  -36.4550 C   0  0  0  0  0  0  0  0  0  0  0  0
   -7.0242    6.1405  -36.9519 C   0  0  0  0  0  0  0  0  0  0  0  0
   -6.1392    6.9140  -35.9501 C   0  0  0  0  0  0  0  0  0  0  0  0
   -5.8736    5.1266  -37.1471 C   0  0  0  0  0  0  0  0  0  0  0  0
   -6.0346    3.7519  -36.5361 C   0  0  0  0  0  0  0  0  0  0  0  0
   -5.5416    5.0697  -38.5728 N   0  0  0  0  0  0  0  0  0  0  0  0
   -6.4690    6.7660  -34.5554 O   0  0  0  0  0  0  0  0  0  0  0  0
   -6.9232    3.8346  -35.4306 O   0  0  0  0  0  0  0  0  0  0  0  0
   -4.2261    6.6783  -37.1006 H   0  0  0  0  0  0  0  0  0  0  0  0
   -4.3231    5.6772  -35.6434 H   0  0  0  0  0  0  0  0  0  0  0  0
   -7.9220    5.7095  -36.4907 H   0  0  0  0  0  0  0  0  0  0  0  0
   -7.3409    6.7072  -37.8339 H   0  0  0  0  0  0  0  0  0  0  0  0
   -6.0690    7.9928  -36.1984 H   0  0  0  0  0  0  0  0  0  0  0  0
   -5.0708    3.3700  -36.1828 H   0  0  0  0  0  0  0  0  0  0  0  0
   -6.4492    3.0493  -37.2669 H   0  0  0  0  0  0  0  0  0  0  0  0
   -5.6522    5.9801  -38.9454 H   0  0  0  0  0  0  0  0  0  0  0  0
   -4.6037    4.7632  -38.6521 H   0  0  0  0  0  0  0  0  0  0  0  0
   -5.6933    7.0722  -34.0674 H   0  0  0  0  0  0  0  0  0  0  0  0
   -7.7698    4.1627  -35.7750 H   0  0  0  0  0  0  0  0  0  0  0  0
  1  3  1  0  0  0  0
  1  4  1  0  0  0  0
  2  3  1  0  0  0  0
  2  4  1  0  0  0  0
  3  7  1  0  0  0  0
  4  5  1  0  0  0  0
  4  6  1  0  0  0  0
  5  8  1  0  0  0  0
  1  9  1  0  0  0  0
  1 10  1  0  0  0  0
  2 11  1  0  0  0  0
  2 12  1  0  0  0  0
  3 13  1  0  0  0  0
  5 14  1  0  0  0  0
  5 15  1  0  0  0  0
  6 16  1  0  0  0  0
  6 17  1  0  0  0  0
  7 18  1  0  0  0  0
  8 19  1  0  0  0  0
M  END
> <id>
EN300-6247253

> <smiles>
NC1(CO)CC(O)C1

> <MDLNUMBER>
MFCD28650670

> <IUPAC Name>
3-amino-3-(hydroxymethyl)cyclobutan-1-ol

> <CAS>
1784429-21-5

> <URL>
https://www.enaminestore.com/catalog/EN300-6247253

> <ROCS_ShapeQuery>
hit0

> <ROCS_TanimotoCombo>
1.097 

> <ROCS_ShapeTanimoto>
0.527 

> <ROCS_ColorTanimoto>
0.570 

> <ROCS_RefTversky>
1.251 

> <ROCS_RefColorTversky>
0.780 

> <ROCS_RefTverskyCombo>
2.031 

> <ROCS_FitTversky>
0.477 

> <ROCS_FitColorTversky>
0.679 

> <ROCS_FitTverskyCombo>
1.156 

> <ROCS_ColorScore>
-4.720

> <ROCS_Overlap>
149.151

> <ROCS_Rank>
63                  

$$$$
untitled-dbase-104343_124
  -OEChem-06232314393D

 19 19  0     0  0  0  0  0  0999 V2000
   -4.9137    6.1213  -36.4550 C   0  0  0  0  0  0  0  0  0  0  0  0
   -7.0242    6.1405  -36.9519 C   0  0  0  0  0  0  0  0  0  0  0  0
   -6.1392    6.9140  -35.9501 C   0  0  0  0  0  0  0  0  0  0  0  0
   -5.8736    5.1266  -37.1471 C   0  0  0  0  0  0  0  0  0  0  0  0
   -6.0346    3.7519  -36.5361 C   0  0  0  0  0  0  0  0  0  0  0  0
   -5.5416    5.0697  -38.5728 N   0  0  0  0  0  0  0  0  0  0  0  0
   -6.4690    6.7660  -34.5554 O   0  0  0  0  0  0  0  0  0  0  0  0
   -6.9232    3.8346  -35.4306 O   0  0  0  0  0  0  0  0  0  0  0  0
   -4.2261    6.6783  -37.1006 H   0  0  0  0  0  0  0  0  0  0  0  0
   -4.3231    5.6772  -35.6434 H   0  0  0  0  0  0  0  0  0  0  0  0
   -7.9220    5.7095  -36.4907 H   0  0  0  0  0  0  0  0  0  0  0  0
   -7.3409    6.7072  -37.8339 H   0  0  0  0  0  0  0  0  0  0  0  0
   -6.0690    7.9928  -36.1984 H   0  0  0  0  0  0  0  0  0  0  0  0
   -5.0708    3.3700  -36.1828 H   0  0  0  0  0  0  0  0  0  0  0  0
   -6.4492    3.0493  -37.2669 H   0  0  0  0  0  0  0  0  0  0  0  0
   -5.6522    5.9801  -38.9454 H   0  0  0  0  0  0  0  0  0  0  0  0
   -4.6037    4.7632  -38.6521 H   0  0  0  0  0  0  0  0  0  0  0  0
   -5.6933    7.0722  -34.0674 H   0  0  0  0  0  0  0  0  0  0  0  0
   -7.7698    4.1627  -35.7750 H   0  0  0  0  0  0  0  0  0  0  0  0
  1  3  1  0  0  0  0
  1  4  1  0  0  0  0
  2  3  1  0  0  0  0
  2  4  1  0  0  0  0
  3  7  1  0  0  0  0
  4  5  1  0  0  0  0
  4  6  1  0  0  0  0
  5  8  1  0  0  0  0
  1  9  1  0  0  0  0
  1 10  1  0  0  0  0
  2 11  1  0  0  0  0
  2 12  1  0  0  0  0
  3 13  1  0  0  0  0
  5 14  1  0  0  0  0
  5 15  1  0  0  0  0
  6 16  1  0  0  0  0
  6 17  1  0  0  0  0
  7 18  1  0  0  0  0
  8 19  1  0  0  0  0
M  END
> <id>
EN300-26572999

> <smiles>
Cl.NC1(CO)CC(O)C1

> <MDLNUMBER>
MFCD32663000

> <IUPAC Name>
3-amino-3-(hydroxymethyl)cyclobutan-1-ol hydrochloride

> <CAS>
2413897-53-5

> <Purity>
95

> <URL>
https://www.enaminestore.com/catalog/EN300-26572999

> <Saltdate>
Cl

> <ROCS_ShapeQuery>
hit0

> <ROCS_TanimotoCombo>
1.097 

> <ROCS_ShapeTanimoto>
0.527 

> <ROCS_ColorTanimoto>
0.570 

> <ROCS_RefTversky>
1.251 

> <ROCS_RefColorTversky>
0.780 

> <ROCS_RefTverskyCombo>
2.031 

> <ROCS_FitTversky>
0.477 

> <ROCS_FitColorTversky>
0.679 

> <ROCS_FitTverskyCombo>
1.156 

> <ROCS_ColorScore>
-4.720

> <ROCS_Overlap>
149.151

> <ROCS_Rank>
64                  

$$$$
untitled-dbase-31523_19
  -OEChem-06232314393D

 18 18  0     1  0  0  0  0  0999 V2000
   -6.1137    3.8466  -37.8322 C   0  0  0  0  0  0  0  0  0  0  0  0
   -5.4961    6.0803  -38.0609 C   0  0  0  0  0  0  0  0  0  0  0  0
   -6.8153    4.6330  -36.7444 C   0  0  2  0  0  0  0  0  0  0  0  0
   -5.9253    5.8499  -36.6243 C   0  0  2  0  0  0  0  0  0  0  0  0
   -6.4908    6.8098  -34.3641 N   0  0  0  0  0  0  0  0  0  0  0  0
   -8.1966    7.2219  -36.3540 O   0  0  0  0  0  0  0  0  0  0  0  0
   -5.5251    4.8041  -38.7187 O   0  0  0  0  0  0  0  0  0  0  0  0
   -6.8711    3.8775  -35.5505 O   0  0  0  0  0  0  0  0  0  0  0  0
   -6.7653    7.2962  -35.9298 S   0  0  2  0  0  0  0  0  0  0  0  0
   -5.3293    3.1865  -37.4532 H   0  0  0  0  0  0  0  0  0  0  0  0
   -6.8259    3.2587  -38.4189 H   0  0  0  0  0  0  0  0  0  0  0  0
   -6.1181    6.7877  -38.6156 H   0  0  0  0  0  0  0  0  0  0  0  0
   -4.4603    6.4330  -38.1000 H   0  0  0  0  0  0  0  0  0  0  0  0
   -7.8645    4.8637  -37.0424 H   0  0  0  0  0  0  0  0  0  0  0  0
   -5.0245    5.6617  -35.9890 H   0  0  0  0  0  0  0  0  0  0  0  0
   -7.3107    6.5754  -33.8072 H   0  0  0  0  0  0  0  0  0  0  0  0
   -5.9001    7.4003  -33.7807 H   0  0  0  0  0  0  0  0  0  0  0  0
   -7.3650    3.0696  -35.7587 H   0  0  0  0  0  0  0  0  0  0  0  0
  1  3  1  0  0  0  0
  1  7  1  0  0  0  0
  2  4  1  0  0  0  0
  2  7  1  0  0  0  0
  3  4  1  0  0  0  0
  3  8  1  1  0  0  0
  4  9  1  6  0  0  0
  5  9  1  0  0  0  0
  6  9  2  0  0  0  0
  1 10  1  0  0  0  0
  1 11  1  0  0  0  0
  2 12  1  0  0  0  0
  2 13  1  0  0  0  0
  3 14  1  0  0  0  0
  4 15  1  0  0  0  0
  5 16  1  0  0  0  0
  5 17  1  0  0  0  0
  8 18  1  0  0  0  0
M  END
> <id>
EN300-732864

> <smiles>
NS(=O)[C@@H]1COC[C@H]1O |&1:3,7,r|

> <IUPAC Name>
rac-(3R,4R)-4-hydroxyoxolane-3-sulfinamide

> <CAS>
2137432-77-8

> <URL>
https://www.enaminestore.com/catalog/EN300-732864

> <ROCS_ShapeQuery>
hit0

> <ROCS_TanimotoCombo>
1.096 

> <ROCS_ShapeTanimoto>
0.531 

> <ROCS_ColorTanimoto>
0.565 

> <ROCS_RefTversky>
1.335 

> <ROCS_RefColorTversky>
0.667 

> <ROCS_RefTverskyCombo>
2.003 

> <ROCS_FitTversky>
0.469 

> <ROCS_FitColorTversky>
0.786 

> <ROCS_FitTverskyCombo>
1.255 

> <ROCS_ColorScore>
-3.970

> <ROCS_Overlap>
161.396

> <ROCS_Rank>
65                  

$$$$
untitled-dbase-90095_1
  -OEChem-06232314393D

 10  9  0     0  0  0  0  0  0999 V2000
   -6.5689    6.4240  -35.8477 C   0  0  0  0  0  0  0  0  0  0  0  0
   -6.0443    5.0306  -36.1362 C   0  0  0  0  0  0  0  0  0  0  0  0
   -6.5296    6.6535  -34.4445 O   0  0  0  0  0  0  0  0  0  0  0  0
   -6.8502    4.0800  -35.4504 O   0  0  0  0  0  0  0  0  0  0  0  0
   -7.6053    6.5323  -36.1818 H   0  0  0  0  0  0  0  0  0  0  0  0
   -5.9435    7.1772  -36.3357 H   0  0  0  0  0  0  0  0  0  0  0  0
   -5.0128    4.9174  -35.7880 H   0  0  0  0  0  0  0  0  0  0  0  0
   -6.0974    4.8157  -37.2075 H   0  0  0  0  0  0  0  0  0  0  0  0
   -6.8709    7.5502  -34.2987 H   0  0  0  0  0  0  0  0  0  0  0  0
   -6.7838    4.2884  -34.5049 H   0  0  0  0  0  0  0  0  0  0  0  0
  1  2  1  0  0  0  0
  1  3  1  0  0  0  0
  2  4  1  0  0  0  0
  1  5  1  0  0  0  0
  1  6  1  0  0  0  0
  2  7  1  0  0  0  0
  2  8  1  0  0  0  0
  3  9  1  0  0  0  0
  4 10  1  0  0  0  0
M  END
> <id>
EN300-19312

> <smiles>
OCCO

> <MDLNUMBER>
MFCD00002885

> <IUPAC Name>
ethane-1,2-diol

> <CAS>
107-21-1

> <Purity>
95

> <URL>
https://www.enaminestore.com/catalog/EN300-19312

> <ROCS_ShapeQuery>
hit0

> <ROCS_TanimotoCombo>
1.096 

> <ROCS_ShapeTanimoto>
0.513 

> <ROCS_ColorTanimoto>
0.583 

> <ROCS_RefTversky>
0.760 

> <ROCS_RefColorTversky>
0.624 

> <ROCS_RefTverskyCombo>
1.384 

> <ROCS_FitTversky>
0.612 

> <ROCS_FitColorTversky>
0.898 

> <ROCS_FitTverskyCombo>
1.510 

> <ROCS_ColorScore>
-3.683

> <ROCS_Overlap>
83.544

> <ROCS_Rank>
66                  

$$$$
untitled-dbase-19460_8
  -OEChem-06232314393D

 20 20  0     1  0  0  0  0  0999 V2000
   -6.9927    4.5861  -35.9485 C   0  0  0  0  0  0  0  0  0  0  0  0
   -5.9507    3.7638  -36.7150 C   0  0  0  0  0  0  0  0  0  0  0  0
   -5.3709    6.1145  -36.8216 C   0  0  0  0  0  0  0  0  0  0  0  0
   -6.8537    6.0173  -36.4660 C   0  0  2  0  0  0  0  0  0  0  0  0
   -5.0910    4.7695  -37.4810 C   0  0  2  0  0  0  0  0  0  0  0  0
   -7.2966    7.0643  -35.4581 C   0  0  0  0  0  0  0  0  0  0  0  0
   -5.5170    4.7979  -38.8400 O   0  0  0  0  0  0  0  0  0  0  0  0
   -6.5066    6.9353  -34.2877 O   0  0  0  0  0  0  0  0  0  0  0  0
   -8.0051    4.1983  -36.1016 H   0  0  0  0  0  0  0  0  0  0  0  0
   -6.7811    4.5319  -34.8734 H   0  0  0  0  0  0  0  0  0  0  0  0
   -5.3401    3.2038  -35.9977 H   0  0  0  0  0  0  0  0  0  0  0  0
   -6.4352    3.0426  -37.3819 H   0  0  0  0  0  0  0  0  0  0  0  0
   -5.1759    6.9627  -37.4854 H   0  0  0  0  0  0  0  0  0  0  0  0
   -4.7625    6.2251  -35.9161 H   0  0  0  0  0  0  0  0  0  0  0  0
   -7.4539    6.1283  -37.3786 H   0  0  0  0  0  0  0  0  0  0  0  0
   -4.0302    4.5029  -37.4633 H   0  0  0  0  0  0  0  0  0  0  0  0
   -8.3469    6.9175  -35.1966 H   0  0  0  0  0  0  0  0  0  0  0  0
   -7.1621    8.0670  -35.8697 H   0  0  0  0  0  0  0  0  0  0  0  0
   -4.9527    5.4432  -39.2938 H   0  0  0  0  0  0  0  0  0  0  0  0
   -6.8115    7.6151  -33.6636 H   0  0  0  0  0  0  0  0  0  0  0  0
  1  2  1  0  0  0  0
  1  4  1  0  0  0  0
  2  5  1  0  0  0  0
  3  4  1  0  0  0  0
  3  5  1  0  0  0  0
  4  6  1  0  0  0  0
  5  7  1  0  0  0  0
  6  8  1  0  0  0  0
  1  9  1  0  0  0  0
  1 10  1  0  0  0  0
  2 11  1  0  0  0  0
  2 12  1  0  0  0  0
  3 13  1  0  0  0  0
  3 14  1  0  0  0  0
  4 15  1  0  0  0  0
  5 16  1  0  0  0  0
  6 17  1  0  0  0  0
  6 18  1  0  0  0  0
  7 19  1  0  0  0  0
  8 20  1  0  0  0  0
M  END
> <id>
EN300-261609

> <smiles>
OCC1CCC(O)C1

> <MDLNUMBER>
MFCD19441021

> <IUPAC Name>
3-(hydroxymethyl)cyclopentan-1-ol

> <CAS>
159766-11-7

> <Purity>
95

> <URL>
https://www.enaminestore.com/catalog/EN300-261609

> <ROCS_ShapeQuery>
hit0

> <ROCS_TanimotoCombo>
1.095 

> <ROCS_ShapeTanimoto>
0.525 

> <ROCS_ColorTanimoto>
0.570 

> <ROCS_RefTversky>
1.244 

> <ROCS_RefColorTversky>
0.671 

> <ROCS_RefTverskyCombo>
1.915 

> <ROCS_FitTversky>
0.476 

> <ROCS_FitColorTversky>
0.790 

> <ROCS_FitTverskyCombo>
1.267 

> <ROCS_ColorScore>
-3.991

> <ROCS_Overlap>
148.248

> <ROCS_Rank>
67                  

$$$$
untitled-dbase-117492_69
  -OEChem-06232314393D

 22 22  0     1  0  0  0  0  0999 V2000
   -7.5830    5.7280  -36.5952 C   0  0  0  0  0  0  0  0  0  0  0  0
   -5.1540    5.8980  -36.6053 C   0  0  0  0  0  0  0  0  0  0  0  0
   -6.4292    6.7405  -36.6819 C   0  0  0  0  0  0  0  0  0  0  0  0
   -6.9612    4.3464  -36.8395 C   0  0  1  0  0  0  0  0  0  0  0  0
   -5.5401    4.6119  -37.3258 C   0  0  1  0  0  0  0  0  0  0  0  0
   -6.4931    7.8142  -35.6074 C   0  0  0  0  0  0  0  0  0  0  0  0
   -6.4409    7.2162  -34.3129 N   0  0  0  0  0  0  0  0  0  0  0  0
   -6.8976    3.6326  -35.6086 O   0  0  0  0  0  0  0  0  0  0  0  0
   -5.5343    4.8421  -38.7292 O   0  0  0  0  0  0  0  0  0  0  0  0
   -8.0794    5.7615  -35.6028 H   0  0  0  0  0  0  0  0  0  0  0  0
   -8.3805    5.9451  -37.3331 H   0  0  0  0  0  0  0  0  0  0  0  0
   -4.3071    6.4116  -37.0544 H   0  0  0  0  0  0  0  0  0  0  0  0
   -4.9190    5.6712  -35.5650 H   0  0  0  0  0  0  0  0  0  0  0  0
   -6.4679    7.2388  -37.6693 H   0  0  0  0  0  0  0  0  0  0  0  0
   -7.5424    3.7676  -37.5432 H   0  0  0  0  0  0  0  0  0  0  0  0
   -4.8511    3.8120  -37.0992 H   0  0  0  0  0  0  0  0  0  0  0  0
   -5.6395    8.4783  -35.7520 H   0  0  0  0  0  0  0  0  0  0  0  0
   -7.4315    8.3559  -35.7363 H   0  0  0  0  0  0  0  0  0  0  0  0
   -5.5965    6.6833  -34.2138 H   0  0  0  0  0  0  0  0  0  0  0  0
   -6.4617    7.9272  -33.6050 H   0  0  0  0  0  0  0  0  0  0  0  0
   -7.8093    3.5467  -35.2820 H   0  0  0  0  0  0  0  0  0  0  0  0
   -5.7839    4.0042  -39.1511 H   0  0  0  0  0  0  0  0  0  0  0  0
  1  3  1  0  0  0  0
  1  4  1  0  0  0  0
  2  3  1  0  0  0  0
  2  5  1  0  0  0  0
  3  6  1  0  0  0  0
  4  5  1  0  0  0  0
  4  8  1  0  0  0  0
  5  9  1  0  0  0  0
  6  7  1  0  0  0  0
  1 10  1  0  0  0  0
  1 11  1  0  0  0  0
  2 12  1  0  0  0  0
  2 13  1  0  0  0  0
  3 14  1  0  0  0  0
  4 15  1  0  0  0  0
  5 16  1  0  0  0  0
  6 17  1  0  0  0  0
  6 18  1  0  0  0  0
  7 19  1  0  0  0  0
  7 20  1  0  0  0  0
  8 21  1  0  0  0  0
  9 22  1  0  0  0  0
M  END
> <id>
EN300-37475728

> <smiles>
Cl.NCC1CC(O)C(O)C1

> <IUPAC Name>
4-(aminomethyl)cyclopentane-1,2-diol hydrochloride

> <CAS>
2825005-03-4

> <Purity>
95

> <URL>
https://www.enaminestore.com/catalog/EN300-37475728

> <ROCS_ShapeQuery>
hit0

> <ROCS_TanimotoCombo>
1.094 

> <ROCS_ShapeTanimoto>
0.503 

> <ROCS_ColorTanimoto>
0.591 

> <ROCS_RefTversky>
1.308 

> <ROCS_RefColorTversky>
0.798 

> <ROCS_RefTverskyCombo>
2.106 

> <ROCS_FitTversky>
0.450 

> <ROCS_FitColorTversky>
0.695 

> <ROCS_FitTverskyCombo>
1.144 

> <ROCS_ColorScore>
-4.828

> <ROCS_Overlap>
158.683

> <ROCS_Rank>
68                  

$$$$
untitled-dbase-120795_69
  -OEChem-06232314393D

 22 22  0     1  0  0  0  0  0999 V2000
   -7.5830    5.7280  -36.5952 C   0  0  0  0  0  0  0  0  0  0  0  0
   -5.1540    5.8980  -36.6053 C   0  0  0  0  0  0  0  0  0  0  0  0
   -6.4292    6.7405  -36.6819 C   0  0  0  0  0  0  0  0  0  0  0  0
   -6.9612    4.3464  -36.8395 C   0  0  1  0  0  0  0  0  0  0  0  0
   -5.5401    4.6119  -37.3258 C   0  0  1  0  0  0  0  0  0  0  0  0
   -6.4931    7.8142  -35.6074 C   0  0  0  0  0  0  0  0  0  0  0  0
   -6.4409    7.2162  -34.3129 N   0  0  0  0  0  0  0  0  0  0  0  0
   -6.8976    3.6326  -35.6086 O   0  0  0  0  0  0  0  0  0  0  0  0
   -5.5343    4.8421  -38.7292 O   0  0  0  0  0  0  0  0  0  0  0  0
   -8.0794    5.7615  -35.6028 H   0  0  0  0  0  0  0  0  0  0  0  0
   -8.3805    5.9451  -37.3331 H   0  0  0  0  0  0  0  0  0  0  0  0
   -4.3071    6.4116  -37.0544 H   0  0  0  0  0  0  0  0  0  0  0  0
   -4.9190    5.6712  -35.5650 H   0  0  0  0  0  0  0  0  0  0  0  0
   -6.4679    7.2388  -37.6693 H   0  0  0  0  0  0  0  0  0  0  0  0
   -7.5424    3.7676  -37.5432 H   0  0  0  0  0  0  0  0  0  0  0  0
   -4.8511    3.8120  -37.0992 H   0  0  0  0  0  0  0  0  0  0  0  0
   -5.6395    8.4783  -35.7520 H   0  0  0  0  0  0  0  0  0  0  0  0
   -7.4315    8.3559  -35.7363 H   0  0  0  0  0  0  0  0  0  0  0  0
   -5.5965    6.6833  -34.2138 H   0  0  0  0  0  0  0  0  0  0  0  0
   -6.4617    7.9272  -33.6050 H   0  0  0  0  0  0  0  0  0  0  0  0
   -7.8093    3.5467  -35.2820 H   0  0  0  0  0  0  0  0  0  0  0  0
   -5.7839    4.0042  -39.1511 H   0  0  0  0  0  0  0  0  0  0  0  0
  1  3  1  0  0  0  0
  1  4  1  0  0  0  0
  2  3  1  0  0  0  0
  2  5  1  0  0  0  0
  3  6  1  0  0  0  0
  4  5  1  0  0  0  0
  4  8  1  0  0  0  0
  5  9  1  0  0  0  0
  6  7  1  0  0  0  0
  1 10  1  0  0  0  0
  1 11  1  0  0  0  0
  2 12  1  0  0  0  0
  2 13  1  0  0  0  0
  3 14  1  0  0  0  0
  4 15  1  0  0  0  0
  5 16  1  0  0  0  0
  6 17  1  0  0  0  0
  6 18  1  0  0  0  0
  7 19  1  0  0  0  0
  7 20  1  0  0  0  0
  8 21  1  0  0  0  0
  9 22  1  0  0  0  0
M  END
> <id>
EN300-7633350

> <smiles>
NCC1CC(O)C(O)C1

> <IUPAC Name>
4-(aminomethyl)cyclopentane-1,2-diol

> <CAS>
1823717-45-8

> <URL>
https://www.enaminestore.com/catalog/EN300-7633350

> <ROCS_ShapeQuery>
hit0

> <ROCS_TanimotoCombo>
1.094 

> <ROCS_ShapeTanimoto>
0.503 

> <ROCS_ColorTanimoto>
0.591 

> <ROCS_RefTversky>
1.308 

> <ROCS_RefColorTversky>
0.798 

> <ROCS_RefTverskyCombo>
2.106 

> <ROCS_FitTversky>
0.450 

> <ROCS_FitColorTversky>
0.695 

> <ROCS_FitTverskyCombo>
1.144 

> <ROCS_ColorScore>
-4.828

> <ROCS_Overlap>
158.683

> <ROCS_Rank>
69                  

$$$$
untitled-dbase-57061_55
  -OEChem-06232314393D

 22 22  0     0  0  0  0  0  0999 V2000
   -5.1672    5.6140  -36.1005 C   0  0  0  0  0  0  0  0  0  0  0  0
   -7.2089    6.0747  -36.6634 C   0  0  0  0  0  0  0  0  0  0  0  0
   -6.1113    6.8162  -35.8648 C   0  0  0  0  0  0  0  0  0  0  0  0
   -6.3930    4.7578  -36.5280 C   0  0  0  0  0  0  0  0  0  0  0  0
   -5.6712    8.1774  -36.3492 C   0  0  0  0  0  0  0  0  0  0  0  0
   -6.2037    4.0015  -37.8340 C   0  0  0  0  0  0  0  0  0  0  0  0
   -6.5008    6.8172  -34.4501 N   0  0  0  0  0  0  0  0  0  0  0  0
   -6.8773    3.8318  -35.5294 O   0  0  0  0  0  0  0  0  0  0  0  0
   -5.5278    4.8428  -38.7525 O   0  0  0  0  0  0  0  0  0  0  0  0
   -4.4379    5.7748  -36.9047 H   0  0  0  0  0  0  0  0  0  0  0  0
   -4.6156    5.2452  -35.2285 H   0  0  0  0  0  0  0  0  0  0  0  0
   -8.2105    6.0574  -36.2194 H   0  0  0  0  0  0  0  0  0  0  0  0
   -7.3154    6.4233  -37.6985 H   0  0  0  0  0  0  0  0  0  0  0  0
   -6.4294    8.9325  -36.1189 H   0  0  0  0  0  0  0  0  0  0  0  0
   -5.5131    8.1690  -37.4322 H   0  0  0  0  0  0  0  0  0  0  0  0
   -4.7340    8.4738  -35.8676 H   0  0  0  0  0  0  0  0  0  0  0  0
   -7.1730    3.7227  -38.2507 H   0  0  0  0  0  0  0  0  0  0  0  0
   -5.6071    3.1034  -37.6654 H   0  0  0  0  0  0  0  0  0  0  0  0
   -6.9621    5.9615  -34.2629 H   0  0  0  0  0  0  0  0  0  0  0  0
   -5.6757    6.9033  -33.9100 H   0  0  0  0  0  0  0  0  0  0  0  0
   -6.1361    3.2434  -35.3450 H   0  0  0  0  0  0  0  0  0  0  0  0
   -5.4202    4.3367  -39.5755 H   0  0  0  0  0  0  0  0  0  0  0  0
  1  3  1  0  0  0  0
  1  4  1  0  0  0  0
  2  3  1  0  0  0  0
  2  4  1  0  0  0  0
  3  5  1  0  0  0  0
  3  7  1  0  0  0  0
  4  6  1  0  0  0  0
  4  8  1  0  0  0  0
  6  9  1  0  0  0  0
  1 10  1  0  0  0  0
  1 11  1  0  0  0  0
  2 12  1  0  0  0  0
  2 13  1  0  0  0  0
  5 14  1  0  0  0  0
  5 15  1  0  0  0  0
  5 16  1  0  0  0  0
  6 17  1  0  0  0  0
  6 18  1  0  0  0  0
  7 19  1  0  0  0  0
  7 20  1  0  0  0  0
  8 21  1  0  0  0  0
  9 22  1  0  0  0  0
M  END
> <id>
EN300-30840616

> <smiles>
CC1(N)CC(O)(CO)C1

> <IUPAC Name>
3-amino-1-(hydroxymethyl)-3-methylcyclobutan-1-ol

> <CAS>
2751704-49-9

> <Purity>
95

> <URL>
https://www.enaminestore.com/catalog/EN300-30840616

> <ROCS_ShapeQuery>
hit0

> <ROCS_TanimotoCombo>
1.094 

> <ROCS_ShapeTanimoto>
0.475 

> <ROCS_ColorTanimoto>
0.618 

> <ROCS_RefTversky>
1.266 

> <ROCS_RefColorTversky>
0.821 

> <ROCS_RefTverskyCombo>
2.087 

> <ROCS_FitTversky>
0.432 

> <ROCS_FitColorTversky>
0.715 

> <ROCS_FitTverskyCombo>
1.147 

> <ROCS_ColorScore>
-4.969

> <ROCS_Overlap>
153.827

> <ROCS_Rank>
70                  

$$$$
untitled-dbase-20344_94
  -OEChem-06232314393D

 18 17  0     0  0  0  0  0  0999 V2000
   -5.9084    5.1704  -37.4340 C   0  0  0  0  0  0  0  0  0  0  0  0
   -7.2842    8.6744  -35.9317 C   0  0  0  0  0  0  0  0  0  0  0  0
   -4.6596    7.8097  -35.8431 C   0  0  0  0  0  0  0  0  0  0  0  0
   -5.6386    4.2739  -36.2381 C   0  0  0  0  0  0  0  0  0  0  0  0
   -6.5176    6.4125  -37.1453 N   0  0  0  0  0  0  0  0  0  0  0  0
   -5.6060    4.8115  -38.5709 O   0  0  0  0  0  0  0  0  0  0  0  0
   -6.5442    6.6414  -34.4887 O   0  0  0  0  0  0  0  0  0  0  0  0
   -6.8412    3.9418  -35.5761 O   0  0  0  0  0  0  0  0  0  0  0  0
   -6.3232    7.1823  -35.8182 S   0  0  0  0  0  0  0  0  0  0  0  0
   -8.3414    8.4044  -35.9247 H   0  0  0  0  0  0  0  0  0  0  0  0
   -7.0447    9.3043  -35.0737 H   0  0  0  0  0  0  0  0  0  0  0  0
   -7.0249    9.1809  -36.8625 H   0  0  0  0  0  0  0  0  0  0  0  0
   -3.9720    6.9651  -35.7773 H   0  0  0  0  0  0  0  0  0  0  0  0
   -4.5103    8.3525  -36.7777 H   0  0  0  0  0  0  0  0  0  0  0  0
   -4.5301    8.4759  -34.9888 H   0  0  0  0  0  0  0  0  0  0  0  0
   -5.1689    3.3474  -36.5799 H   0  0  0  0  0  0  0  0  0  0  0  0
   -4.9732    4.7825  -35.5343 H   0  0  0  0  0  0  0  0  0  0  0  0
   -7.4056    3.4763  -36.2184 H   0  0  0  0  0  0  0  0  0  0  0  0
  1  4  1  0  0  0  0
  1  5  1  0  0  0  0
  1  6  2  0  0  0  0
  2  9  1  0  0  0  0
  3  9  1  0  0  0  0
  4  8  1  0  0  0  0
  5  9  2  0  0  0  0
  7  9  2  0  0  0  0
  2 10  1  0  0  0  0
  2 11  1  0  0  0  0
  2 12  1  0  0  0  0
  3 13  1  0  0  0  0
  3 14  1  0  0  0  0
  3 15  1  0  0  0  0
  4 16  1  0  0  0  0
  4 17  1  0  0  0  0
  8 18  1  0  0  0  0
M  END
> <id>
EN300-266509

> <smiles>
CS(=O)(=NC(=O)CO)C

> <MDLNUMBER>
MFCD29907185

> <IUPAC Name>
N-[dimethyl(oxo)-lambda6-sulfanylidene]-2-hydroxyacetamide

> <CAS>
1955557-24-0

> <Purity>
95

> <URL>
https://www.enaminestore.com/catalog/EN300-266509

> <ROCS_ShapeQuery>
hit0

> <ROCS_TanimotoCombo>
1.093 

> <ROCS_ShapeTanimoto>
0.565 

> <ROCS_ColorTanimoto>
0.529 

> <ROCS_RefTversky>
1.342 

> <ROCS_RefColorTversky>
0.639 

> <ROCS_RefTverskyCombo>
1.981 

> <ROCS_FitTversky>
0.494 

> <ROCS_FitColorTversky>
0.753 

> <ROCS_FitTverskyCombo>
1.247 

> <ROCS_ColorScore>
-3.805

> <ROCS_Overlap>
160.898

> <ROCS_Rank>
71                  

$$$$
untitled-dbase-13554_17
  -OEChem-06232314393D

 23 23  0     1  0  0  0  0  0999 V2000
   -6.6469    7.9416  -35.9704 C   0  0  0  0  0  0  0  0  0  0  0  0
   -6.8365    7.4196  -34.5502 C   0  0  0  0  0  0  0  0  0  0  0  0
   -5.7107    7.0464  -36.7784 C   0  0  0  0  0  0  0  0  0  0  0  0
   -7.3130    5.9725  -34.5488 C   0  0  0  0  0  0  0  0  0  0  0  0
   -6.1835    5.5861  -36.7873 C   0  0  2  0  0  0  0  0  0  0  0  0
   -6.3811    5.0649  -35.3535 C   0  0  2  0  0  0  0  0  0  0  0  0
   -5.1970    4.7132  -37.5674 C   0  0  0  0  0  0  0  0  0  0  0  0
   -6.9414    3.7550  -35.3999 O   0  0  0  0  0  0  0  0  0  0  0  0
   -5.4638    4.8648  -38.9478 O   0  0  0  0  0  0  0  0  0  0  0  0
   -7.6206    7.9985  -36.4723 H   0  0  0  0  0  0  0  0  0  0  0  0
   -6.2446    8.9604  -35.9375 H   0  0  0  0  0  0  0  0  0  0  0  0
   -5.8886    7.4934  -34.0032 H   0  0  0  0  0  0  0  0  0  0  0  0
   -7.5611    8.0476  -34.0200 H   0  0  0  0  0  0  0  0  0  0  0  0
   -5.6488    7.4259  -37.8054 H   0  0  0  0  0  0  0  0  0  0  0  0
   -4.6999    7.1077  -36.3549 H   0  0  0  0  0  0  0  0  0  0  0  0
   -7.3898    5.6037  -33.5187 H   0  0  0  0  0  0  0  0  0  0  0  0
   -8.3297    5.9152  -34.9596 H   0  0  0  0  0  0  0  0  0  0  0  0
   -7.1455    5.5281  -37.3129 H   0  0  0  0  0  0  0  0  0  0  0  0
   -5.4115    4.9963  -34.8434 H   0  0  0  0  0  0  0  0  0  0  0  0
   -5.3267    3.6707  -37.2838 H   0  0  0  0  0  0  0  0  0  0  0  0
   -4.1785    5.0326  -37.3562 H   0  0  0  0  0  0  0  0  0  0  0  0
   -7.8063    3.8397  -35.8303 H   0  0  0  0  0  0  0  0  0  0  0  0
   -5.3443    5.8064  -39.1618 H   0  0  0  0  0  0  0  0  0  0  0  0
  1  2  1  0  0  0  0
  1  3  1  0  0  0  0
  2  4  1  0  0  0  0
  3  5  1  0  0  0  0
  4  6  1  0  0  0  0
  5  6  1  0  0  0  0
  5  7  1  0  0  0  0
  6  8  1  0  0  0  0
  7  9  1  0  0  0  0
  1 10  1  0  0  0  0
  1 11  1  0  0  0  0
  2 12  1  0  0  0  0
  2 13  1  0  0  0  0
  3 14  1  0  0  0  0
  3 15  1  0  0  0  0
  4 16  1  0  0  0  0
  4 17  1  0  0  0  0
  5 18  1  0  0  0  0
  6 19  1  0  0  0  0
  7 20  1  0  0  0  0
  7 21  1  0  0  0  0
  8 22  1  0  0  0  0
  9 23  1  0  0  0  0
M  END
> <id>
EN300-217936

> <smiles>
OCC1CCCCC1O

> <MDLNUMBER>
MFCD04038654

> <IUPAC Name>
2-(hydroxymethyl)cyclohexan-1-ol

> <CAS>
27583-43-3

> <Purity>
95

> <URL>
https://www.enaminestore.com/catalog/EN300-217936

> <ROCS_ShapeQuery>
hit0

> <ROCS_TanimotoCombo>
1.093 

> <ROCS_ShapeTanimoto>
0.544 

> <ROCS_ColorTanimoto>
0.549 

> <ROCS_RefTversky>
1.363 

> <ROCS_RefColorTversky>
0.655 

> <ROCS_RefTverskyCombo>
2.018 

> <ROCS_FitTversky>
0.475 

> <ROCS_FitColorTversky>
0.772 

> <ROCS_FitTverskyCombo>
1.247 

> <ROCS_ColorScore>
-3.897

> <ROCS_Overlap>
164.896

> <ROCS_Rank>
72                  

$$$$
untitled-dbase-173650_17
  -OEChem-06232314393D

 23 23  0     1  0  0  0  0  0999 V2000
   -6.6468    7.9416  -35.9709 C   0  0  0  0  0  0  0  0  0  0  0  0
   -6.8370    7.4197  -34.5507 C   0  0  0  0  0  0  0  0  0  0  0  0
   -5.7104    7.0462  -36.7783 C   0  0  0  0  0  0  0  0  0  0  0  0
   -7.3130    5.9725  -34.5488 C   0  0  0  0  0  0  0  0  0  0  0  0
   -6.1834    5.5860  -36.7871 C   0  0  2  0  0  0  0  0  0  0  0  0
   -6.3811    5.0649  -35.3534 C   0  0  2  0  0  0  0  0  0  0  0  0
   -5.1969    4.7131  -37.5673 C   0  0  0  0  0  0  0  0  0  0  0  0
   -6.9414    3.7551  -35.4000 O   0  0  0  0  0  0  0  0  0  0  0  0
   -5.4638    4.8648  -38.9477 O   0  0  0  0  0  0  0  0  0  0  0  0
   -7.6205    7.9984  -36.4731 H   0  0  0  0  0  0  0  0  0  0  0  0
   -6.2446    8.9605  -35.9381 H   0  0  0  0  0  0  0  0  0  0  0  0
   -5.8893    7.4939  -34.0036 H   0  0  0  0  0  0  0  0  0  0  0  0
   -7.5618    8.0478  -34.0207 H   0  0  0  0  0  0  0  0  0  0  0  0
   -5.6480    7.4255  -37.8052 H   0  0  0  0  0  0  0  0  0  0  0  0
   -4.6998    7.1075  -36.3545 H   0  0  0  0  0  0  0  0  0  0  0  0
   -7.3897    5.6039  -33.5187 H   0  0  0  0  0  0  0  0  0  0  0  0
   -8.3297    5.9148  -34.9595 H   0  0  0  0  0  0  0  0  0  0  0  0
   -7.1454    5.5281  -37.3127 H   0  0  0  0  0  0  0  0  0  0  0  0
   -5.4115    4.9962  -34.8435 H   0  0  0  0  0  0  0  0  0  0  0  0
   -5.3267    3.6706  -37.2838 H   0  0  0  0  0  0  0  0  0  0  0  0
   -4.1785    5.0325  -37.3561 H   0  0  0  0  0  0  0  0  0  0  0  0
   -7.8062    3.8397  -35.8305 H   0  0  0  0  0  0  0  0  0  0  0  0
   -5.3443    5.8064  -39.1616 H   0  0  0  0  0  0  0  0  0  0  0  0
  1  2  1  0  0  0  0
  1  3  1  0  0  0  0
  2  4  1  0  0  0  0
  3  5  1  0  0  0  0
  4  6  1  0  0  0  0
  5  6  1  0  0  0  0
  5  7  1  6  0  0  0
  6  8  1  1  0  0  0
  7  9  1  0  0  0  0
  1 10  1  0  0  0  0
  1 11  1  0  0  0  0
  2 12  1  0  0  0  0
  2 13  1  0  0  0  0
  3 14  1  0  0  0  0
  3 15  1  0  0  0  0
  4 16  1  0  0  0  0
  4 17  1  0  0  0  0
  5 18  1  0  0  0  0
  6 19  1  0  0  0  0
  7 20  1  0  0  0  0
  7 21  1  0  0  0  0
  8 22  1  0  0  0  0
  9 23  1  0  0  0  0
M  END
> <id>
EN300-27694872

> <smiles>
OC[C@@H]1CCCC[C@H]1O |&1:2,7,r|

> <IUPAC Name>
rac-(1R,2S)-2-(hydroxymethyl)cyclohexan-1-ol

> <CAS>
4187-59-1

> <URL>
https://www.enaminestore.com/catalog/EN300-27694872

> <ROCS_ShapeQuery>
hit0

> <ROCS_TanimotoCombo>
1.093 

> <ROCS_ShapeTanimoto>
0.544 

> <ROCS_ColorTanimoto>
0.549 

> <ROCS_RefTversky>
1.363 

> <ROCS_RefColorTversky>
0.655 

> <ROCS_RefTverskyCombo>
2.018 

> <ROCS_FitTversky>
0.475 

> <ROCS_FitColorTversky>
0.772 

> <ROCS_FitTverskyCombo>
1.247 

> <ROCS_ColorScore>
-3.897

> <ROCS_Overlap>
164.895

> <ROCS_Rank>
73                  

$$$$
untitled-dbase-109742_0
  -OEChem-06232314393D

 10  9  0     0  0  0  0  0  0999 V2000
   -5.8153    5.0495  -37.5557 C   0  0  0  0  0  0  0  0  0  0  0  0
   -6.1679    5.2540  -36.1428 C   0  0  0  0  0  0  0  0  0  0  0  0
   -6.1686    6.7318  -35.7773 C   0  0  0  0  0  0  0  0  0  0  0  0
   -5.5374    4.8862  -38.6703 N   0  0  0  0  0  0  0  0  0  0  0  0
   -6.4978    6.8833  -34.4019 O   0  0  0  0  0  0  0  0  0  0  0  0
   -7.1563    4.8204  -35.9529 H   0  0  0  0  0  0  0  0  0  0  0  0
   -5.4434    4.7258  -35.5135 H   0  0  0  0  0  0  0  0  0  0  0  0
   -6.8891    7.2978  -36.3773 H   0  0  0  0  0  0  0  0  0  0  0  0
   -5.1706    7.1542  -35.9322 H   0  0  0  0  0  0  0  0  0  0  0  0
   -6.4862    7.8358  -34.2155 H   0  0  0  0  0  0  0  0  0  0  0  0
  1  2  1  0  0  0  0
  1  4  3  0  0  0  0
  2  3  1  0  0  0  0
  3  5  1  0  0  0  0
  2  6  1  0  0  0  0
  2  7  1  0  0  0  0
  3  8  1  0  0  0  0
  3  9  1  0  0  0  0
  5 10  1  0  0  0  0
M  END
> <id>
EN300-21056

> <smiles>
OCCC#N

> <MDLNUMBER>
MFCD00002826

> <IUPAC Name>
3-hydroxypropanenitrile

> <CAS>
109-78-4

> <Purity>
95

> <URL>
https://www.enaminestore.com/catalog/EN300-21056

> <ROCS_ShapeQuery>
hit0

> <ROCS_TanimotoCombo>
1.092 

> <ROCS_ShapeTanimoto>
0.600 

> <ROCS_ColorTanimoto>
0.492 

> <ROCS_RefTversky>
0.965 

> <ROCS_RefColorTversky>
0.507 

> <ROCS_RefTverskyCombo>
1.472 

> <ROCS_FitTversky>
0.614 

> <ROCS_FitColorTversky>
0.942 

> <ROCS_FitTverskyCombo>
1.555 

> <ROCS_ColorScore>
-2.966

> <ROCS_Overlap>
108.156

> <ROCS_Rank>
74                  

$$$$
untitled-dbase-34566_8
  -OEChem-06232314393D

 15 15  0     0  0  0  0  0  0999 V2000
   -5.9114    5.6044  -36.6015 C   0  0  0  0  0  0  0  0  0  0  0  0
   -6.4528    5.0795  -35.4535 C   0  0  0  0  0  0  0  0  0  0  0  0
   -5.9916    4.5573  -37.5391 C   0  0  0  0  0  0  0  0  0  0  0  0
   -6.6654    5.6526  -34.1148 C   0  0  0  0  0  0  0  0  0  0  0  0
   -6.5405    3.4509  -37.0307 N   0  0  0  0  0  0  0  0  0  0  0  0
   -6.8101    3.7997  -35.7612 N   0  0  0  0  0  0  0  0  0  0  0  0
   -5.5400    4.7118  -38.8105 N   0  0  0  0  0  0  0  0  0  0  0  0
   -6.5296    7.0744  -34.1609 O   0  0  0  0  0  0  0  0  0  0  0  0
   -5.5173    6.6023  -36.7343 H   0  0  0  0  0  0  0  0  0  0  0  0
   -7.6701    5.4229  -33.7136 H   0  0  0  0  0  0  0  0  0  0  0  0
   -5.9386    5.2664  -33.3762 H   0  0  0  0  0  0  0  0  0  0  0  0
   -7.2407    3.1107  -35.1570 H   0  0  0  0  0  0  0  0  0  0  0  0
   -5.1688    5.6078  -39.1468 H   0  0  0  0  0  0  0  0  0  0  0  0
   -5.6380    3.9691  -39.5123 H   0  0  0  0  0  0  0  0  0  0  0  0
   -6.6791    7.3917  -33.2579 H   0  0  0  0  0  0  0  0  0  0  0  0
  1  2  2  0  0  0  0
  1  3  1  0  0  0  0
  2  4  1  0  0  0  0
  2  6  1  0  0  0  0
  3  5  2  0  0  0  0
  3  7  1  0  0  0  0
  4  8  1  0  0  0  0
  5  6  1  0  0  0  0
  1  9  1  0  0  0  0
  4 10  1  0  0  0  0
  4 11  1  0  0  0  0
  6 12  1  0  0  0  0
  7 13  1  0  0  0  0
  7 14  1  0  0  0  0
  8 15  1  0  0  0  0
M  END
> <id>
EN300-762847

> <smiles>
Cl.NC=1C=C(CO)NN1

> <MDLNUMBER>
MFCD25371383

> <IUPAC Name>
(3-amino-1H-pyrazol-5-yl)methanol hydrochloride

> <Purity>
95

> <URL>
https://www.enaminestore.com/catalog/EN300-762847

> <Saltdate>
Cl

> <ROCS_ShapeQuery>
hit0

> <ROCS_TanimotoCombo>
1.092 

> <ROCS_ShapeTanimoto>
0.487 

> <ROCS_ColorTanimoto>
0.605 

> <ROCS_RefTversky>
1.242 

> <ROCS_RefColorTversky>
0.810 

> <ROCS_RefTverskyCombo>
2.052 

> <ROCS_FitTversky>
0.445 

> <ROCS_FitColorTversky>
0.705 

> <ROCS_FitTverskyCombo>
1.150 

> <ROCS_ColorScore>
-4.903

> <ROCS_Overlap>
149.564

> <ROCS_Rank>
75                  

$$$$
untitled-dbase-96565_8
  -OEChem-06232314393D

 15 15  0     0  0  0  0  0  0999 V2000
   -5.9114    5.6044  -36.6015 C   0  0  0  0  0  0  0  0  0  0  0  0
   -6.4528    5.0795  -35.4535 C   0  0  0  0  0  0  0  0  0  0  0  0
   -5.9916    4.5573  -37.5391 C   0  0  0  0  0  0  0  0  0  0  0  0
   -6.6654    5.6526  -34.1148 C   0  0  0  0  0  0  0  0  0  0  0  0
   -6.5405    3.4509  -37.0307 N   0  0  0  0  0  0  0  0  0  0  0  0
   -6.8101    3.7997  -35.7612 N   0  0  0  0  0  0  0  0  0  0  0  0
   -5.5400    4.7118  -38.8105 N   0  0  0  0  0  0  0  0  0  0  0  0
   -6.5296    7.0744  -34.1609 O   0  0  0  0  0  0  0  0  0  0  0  0
   -5.5173    6.6023  -36.7343 H   0  0  0  0  0  0  0  0  0  0  0  0
   -7.6701    5.4229  -33.7136 H   0  0  0  0  0  0  0  0  0  0  0  0
   -5.9386    5.2664  -33.3762 H   0  0  0  0  0  0  0  0  0  0  0  0
   -7.2407    3.1107  -35.1570 H   0  0  0  0  0  0  0  0  0  0  0  0
   -5.1688    5.6078  -39.1468 H   0  0  0  0  0  0  0  0  0  0  0  0
   -5.6380    3.9691  -39.5123 H   0  0  0  0  0  0  0  0  0  0  0  0
   -6.6791    7.3917  -33.2579 H   0  0  0  0  0  0  0  0  0  0  0  0
  1  2  2  0  0  0  0
  1  3  1  0  0  0  0
  2  4  1  0  0  0  0
  2  6  1  0  0  0  0
  3  5  2  0  0  0  0
  3  7  1  0  0  0  0
  4  8  1  0  0  0  0
  5  6  1  0  0  0  0
  1  9  1  0  0  0  0
  4 10  1  0  0  0  0
  4 11  1  0  0  0  0
  6 12  1  0  0  0  0
  7 13  1  0  0  0  0
  7 14  1  0  0  0  0
  8 15  1  0  0  0  0
M  END
> <id>
EN300-232688

> <smiles>
NC=1C=C(CO)NN1

> <MDLNUMBER>
MFCD10000831

> <IUPAC Name>
(3-amino-1H-pyrazol-5-yl)methanol

> <CAS>
1000895-26-0

> <Purity>
90

> <URL>
https://www.enaminestore.com/catalog/EN300-232688

> <ROCS_ShapeQuery>
hit0

> <ROCS_TanimotoCombo>
1.092 

> <ROCS_ShapeTanimoto>
0.487 

> <ROCS_ColorTanimoto>
0.605 

> <ROCS_RefTversky>
1.242 

> <ROCS_RefColorTversky>
0.810 

> <ROCS_RefTverskyCombo>
2.052 

> <ROCS_FitTversky>
0.445 

> <ROCS_FitColorTversky>
0.705 

> <ROCS_FitTverskyCombo>
1.150 

> <ROCS_ColorScore>
-4.903

> <ROCS_Overlap>
149.564

> <ROCS_Rank>
76                  

$$$$
untitled-dbase-56051_58
  -OEChem-06232314393D

 22 21  0     1  0  0  0  0  0999 V2000
   -7.4003    7.1851  -36.4207 C   0  0  0  0  0  0  0  0  0  0  0  0
   -4.9410    6.7022  -36.4415 C   0  0  0  0  0  0  0  0  0  0  0  0
   -6.3283    6.0585  -34.4688 C   0  0  0  0  0  0  0  0  0  0  0  0
   -5.4929    4.1888  -37.4894 C   0  0  0  0  0  0  0  0  0  0  0  0
   -6.6144    4.7692  -36.6254 C   0  0  2  0  0  0  0  0  0  0  0  0
   -6.3194    6.1687  -36.0091 C   0  0  0  0  0  0  0  0  0  0  0  0
   -5.5345    4.8166  -38.7692 O   0  0  0  0  0  0  0  0  0  0  0  0
   -6.8747    3.8366  -35.5690 O   0  0  0  0  0  0  0  0  0  0  0  0
   -8.4033    6.8529  -36.1354 H   0  0  0  0  0  0  0  0  0  0  0  0
   -7.2213    8.1608  -35.9554 H   0  0  0  0  0  0  0  0  0  0  0  0
   -7.4096    7.3327  -37.5071 H   0  0  0  0  0  0  0  0  0  0  0  0
   -4.1375    6.0100  -36.1687 H   0  0  0  0  0  0  0  0  0  0  0  0
   -4.8962    6.8377  -37.5283 H   0  0  0  0  0  0  0  0  0  0  0  0
   -4.7220    7.6713  -35.9804 H   0  0  0  0  0  0  0  0  0  0  0  0
   -5.5774    5.3467  -34.1091 H   0  0  0  0  0  0  0  0  0  0  0  0
   -7.3072    5.7273  -34.1041 H   0  0  0  0  0  0  0  0  0  0  0  0
   -6.1107    7.0257  -34.0010 H   0  0  0  0  0  0  0  0  0  0  0  0
   -4.5053    4.3790  -37.0633 H   0  0  0  0  0  0  0  0  0  0  0  0
   -5.6263    3.1144  -37.6491 H   0  0  0  0  0  0  0  0  0  0  0  0
   -7.5353    4.8222  -37.2204 H   0  0  0  0  0  0  0  0  0  0  0  0
   -4.8147    4.4283  -39.2899 H   0  0  0  0  0  0  0  0  0  0  0  0
   -7.1395    3.0112  -35.9988 H   0  0  0  0  0  0  0  0  0  0  0  0
  1  6  1  0  0  0  0
  2  6  1  0  0  0  0
  3  6  1  0  0  0  0
  4  5  1  0  0  0  0
  4  7  1  0  0  0  0
  5  6  1  0  0  0  0
  5  8  1  0  0  0  0
  1  9  1  0  0  0  0
  1 10  1  0  0  0  0
  1 11  1  0  0  0  0
  2 12  1  0  0  0  0
  2 13  1  0  0  0  0
  2 14  1  0  0  0  0
  3 15  1  0  0  0  0
  3 16  1  0  0  0  0
  3 17  1  0  0  0  0
  4 18  1  0  0  0  0
  4 19  1  0  0  0  0
  5 20  1  0  0  0  0
  7 21  1  0  0  0  0
  8 22  1  0  0  0  0
M  END
> <id>
EN300-1240484

> <smiles>
CC(C)(C)C(O)CO

> <MDLNUMBER>
MFCD00010735

> <IUPAC Name>
3,3-dimethylbutane-1,2-diol

> <CAS>
59562-82-2

> <URL>
https://www.enaminestore.com/catalog/EN300-1240484

> <MP>
37-39

> <ROCS_ShapeQuery>
hit0

> <ROCS_TanimotoCombo>
1.091 

> <ROCS_ShapeTanimoto>
0.521 

> <ROCS_ColorTanimoto>
0.570 

> <ROCS_RefTversky>
1.195 

> <ROCS_RefColorTversky>
0.671 

> <ROCS_RefTverskyCombo>
1.866 

> <ROCS_FitTversky>
0.480 

> <ROCS_FitColorTversky>
0.790 

> <ROCS_FitTverskyCombo>
1.271 

> <ROCS_ColorScore>
-3.993

> <ROCS_Overlap>
141.325

> <ROCS_Rank>
77                  

$$$$
untitled-dbase-80042_58
  -OEChem-06232314393D

 22 21  0     1  0  0  0  0  0999 V2000
   -7.4003    7.1851  -36.4207 C   0  0  0  0  0  0  0  0  0  0  0  0
   -4.9410    6.7022  -36.4415 C   0  0  0  0  0  0  0  0  0  0  0  0
   -6.3283    6.0585  -34.4688 C   0  0  0  0  0  0  0  0  0  0  0  0
   -5.4929    4.1888  -37.4894 C   0  0  0  0  0  0  0  0  0  0  0  0
   -6.6144    4.7692  -36.6254 C   0  0  2  0  0  0  0  0  0  0  0  0
   -6.3194    6.1687  -36.0091 C   0  0  0  0  0  0  0  0  0  0  0  0
   -5.5345    4.8166  -38.7692 O   0  0  0  0  0  0  0  0  0  0  0  0
   -6.8747    3.8366  -35.5690 O   0  0  0  0  0  0  0  0  0  0  0  0
   -8.4033    6.8529  -36.1354 H   0  0  0  0  0  0  0  0  0  0  0  0
   -7.2213    8.1608  -35.9554 H   0  0  0  0  0  0  0  0  0  0  0  0
   -7.4096    7.3327  -37.5071 H   0  0  0  0  0  0  0  0  0  0  0  0
   -4.1375    6.0100  -36.1687 H   0  0  0  0  0  0  0  0  0  0  0  0
   -4.8962    6.8377  -37.5283 H   0  0  0  0  0  0  0  0  0  0  0  0
   -4.7220    7.6713  -35.9804 H   0  0  0  0  0  0  0  0  0  0  0  0
   -5.5774    5.3467  -34.1091 H   0  0  0  0  0  0  0  0  0  0  0  0
   -7.3072    5.7273  -34.1041 H   0  0  0  0  0  0  0  0  0  0  0  0
   -6.1107    7.0257  -34.0010 H   0  0  0  0  0  0  0  0  0  0  0  0
   -4.5053    4.3790  -37.0633 H   0  0  0  0  0  0  0  0  0  0  0  0
   -5.6263    3.1144  -37.6491 H   0  0  0  0  0  0  0  0  0  0  0  0
   -7.5353    4.8222  -37.2204 H   0  0  0  0  0  0  0  0  0  0  0  0
   -4.8147    4.4283  -39.2899 H   0  0  0  0  0  0  0  0  0  0  0  0
   -7.1395    3.0112  -35.9988 H   0  0  0  0  0  0  0  0  0  0  0  0
  1  6  1  0  0  0  0
  2  6  1  0  0  0  0
  3  6  1  0  0  0  0
  4  5  1  0  0  0  0
  4  7  1  0  0  0  0
  5  6  1  0  0  0  0
  5  8  1  6  0  0  0
  1  9  1  0  0  0  0
  1 10  1  0  0  0  0
  1 11  1  0  0  0  0
  2 12  1  0  0  0  0
  2 13  1  0  0  0  0
  2 14  1  0  0  0  0
  3 15  1  0  0  0  0
  3 16  1  0  0  0  0
  3 17  1  0  0  0  0
  4 18  1  0  0  0  0
  4 19  1  0  0  0  0
  5 20  1  0  0  0  0
  7 21  1  0  0  0  0
  8 22  1  0  0  0  0
M  END
> <id>
EN300-2009716

> <smiles>
CC(C)(C)[C@H](O)CO

> <MDLNUMBER>
MFCD00211255

> <IUPAC Name>
(2S)-3,3-dimethylbutane-1,2-diol

> <CAS>
92621-91-5

> <Purity>
95

> <URL>
https://www.enaminestore.com/catalog/EN300-2009716

> <MP>
41-42

> <ROCS_ShapeQuery>
hit0

> <ROCS_TanimotoCombo>
1.091 

> <ROCS_ShapeTanimoto>
0.521 

> <ROCS_ColorTanimoto>
0.570 

> <ROCS_RefTversky>
1.195 

> <ROCS_RefColorTversky>
0.671 

> <ROCS_RefTverskyCombo>
1.866 

> <ROCS_FitTversky>
0.480 

> <ROCS_FitColorTversky>
0.790 

> <ROCS_FitTverskyCombo>
1.271 

> <ROCS_ColorScore>
-3.993

> <ROCS_Overlap>
141.325

> <ROCS_Rank>
78                  

$$$$
untitled-dbase-3778_3
  -OEChem-06232314393D

 13 12  0     1  0  0  0  0  0999 V2000
   -5.4854    5.4834  -37.7126 C   0  0  0  0  0  0  0  0  0  0  0  0
   -6.7524    4.6306  -35.1479 C   0  0  0  0  0  0  0  0  0  0  0  0
   -5.3897    6.2785  -36.4779 C   0  0  0  0  0  0  0  0  0  0  0  0
   -6.6197    6.0826  -35.5874 C   0  0  2  0  0  0  0  0  0  0  0  0
   -5.5594    4.8570  -38.6866 N   0  0  0  0  0  0  0  0  0  0  0  0
   -6.4954    6.8744  -34.4069 O   0  0  0  0  0  0  0  0  0  0  0  0
   -5.8496    4.2938  -34.6261 H   0  0  0  0  0  0  0  0  0  0  0  0
   -6.9316    3.9704  -36.0018 H   0  0  0  0  0  0  0  0  0  0  0  0
   -7.5829    4.5200  -34.4421 H   0  0  0  0  0  0  0  0  0  0  0  0
   -5.2813    7.3367  -36.7436 H   0  0  0  0  0  0  0  0  0  0  0  0
   -4.4844    5.9755  -35.9388 H   0  0  0  0  0  0  0  0  0  0  0  0
   -7.5374    6.3863  -36.1045 H   0  0  0  0  0  0  0  0  0  0  0  0
   -6.4119    7.7942  -34.7008 H   0  0  0  0  0  0  0  0  0  0  0  0
  1  3  1  0  0  0  0
  1  5  3  0  0  0  0
  2  4  1  0  0  0  0
  3  4  1  0  0  0  0
  4  6  1  0  0  0  0
  2  7  1  0  0  0  0
  2  8  1  0  0  0  0
  2  9  1  0  0  0  0
  3 10  1  0  0  0  0
  3 11  1  0  0  0  0
  4 12  1  0  0  0  0
  6 13  1  0  0  0  0
M  END
> <id>
EN300-76665

> <smiles>
CC(O)CC#N

> <MDLNUMBER>
MFCD03427120

> <IUPAC Name>
3-hydroxybutanenitrile

> <CAS>
4368-06-3

> <Purity>
95

> <URL>
https://www.enaminestore.com/catalog/EN300-76665

> <ROCS_ShapeQuery>
hit0

> <ROCS_TanimotoCombo>
1.089 

> <ROCS_ShapeTanimoto>
0.597 

> <ROCS_ColorTanimoto>
0.492 

> <ROCS_RefTversky>
1.082 

> <ROCS_RefColorTversky>
0.508 

> <ROCS_RefTverskyCombo>
1.590 

> <ROCS_FitTversky>
0.571 

> <ROCS_FitColorTversky>
0.943 

> <ROCS_FitTverskyCombo>
1.513 

> <ROCS_ColorScore>
-2.969

> <ROCS_Overlap>
123.539

> <ROCS_Rank>
79                  

$$$$
untitled-dbase-92047_3
  -OEChem-06232314393D

 13 12  0     1  0  0  0  0  0999 V2000
   -5.4854    5.4834  -37.7126 C   0  0  0  0  0  0  0  0  0  0  0  0
   -6.7524    4.6306  -35.1479 C   0  0  0  0  0  0  0  0  0  0  0  0
   -5.3897    6.2785  -36.4779 C   0  0  0  0  0  0  0  0  0  0  0  0
   -6.6197    6.0826  -35.5874 C   0  0  2  0  0  0  0  0  0  0  0  0
   -5.5594    4.8570  -38.6866 N   0  0  0  0  0  0  0  0  0  0  0  0
   -6.4954    6.8744  -34.4069 O   0  0  0  0  0  0  0  0  0  0  0  0
   -5.8496    4.2938  -34.6261 H   0  0  0  0  0  0  0  0  0  0  0  0
   -6.9316    3.9704  -36.0018 H   0  0  0  0  0  0  0  0  0  0  0  0
   -7.5829    4.5200  -34.4421 H   0  0  0  0  0  0  0  0  0  0  0  0
   -5.2813    7.3367  -36.7436 H   0  0  0  0  0  0  0  0  0  0  0  0
   -4.4844    5.9755  -35.9388 H   0  0  0  0  0  0  0  0  0  0  0  0
   -7.5374    6.3863  -36.1045 H   0  0  0  0  0  0  0  0  0  0  0  0
   -6.4119    7.7942  -34.7008 H   0  0  0  0  0  0  0  0  0  0  0  0
  1  3  1  0  0  0  0
  1  5  3  0  0  0  0
  2  4  1  1  0  0  0
  3  4  1  0  0  0  0
  4  6  1  0  0  0  0
  2  7  1  0  0  0  0
  2  8  1  0  0  0  0
  2  9  1  0  0  0  0
  3 10  1  0  0  0  0
  3 11  1  0  0  0  0
  4 12  1  0  0  0  0
  6 13  1  0  0  0  0
M  END
> <id>
EN300-7056814

> <smiles>
C[C@@H](O)CC#N

> <MDLNUMBER>
MFCD07367001

> <IUPAC Name>
(3R)-3-hydroxybutanenitrile

> <CAS>
125103-95-9

> <Purity>
95

> <URL>
https://www.enaminestore.com/catalog/EN300-7056814

> <ROCS_ShapeQuery>
hit0

> <ROCS_TanimotoCombo>
1.089 

> <ROCS_ShapeTanimoto>
0.597 

> <ROCS_ColorTanimoto>
0.492 

> <ROCS_RefTversky>
1.082 

> <ROCS_RefColorTversky>
0.508 

> <ROCS_RefTverskyCombo>
1.590 

> <ROCS_FitTversky>
0.571 

> <ROCS_FitColorTversky>
0.943 

> <ROCS_FitTverskyCombo>
1.513 

> <ROCS_ColorScore>
-2.969

> <ROCS_Overlap>
123.539

> <ROCS_Rank>
80                  

$$$$
untitled-dbase-17877_0
  -OEChem-06232314393D

 20 20  0     0  0  0  0  0  0999 V2000
   -5.9226    3.1804  -37.3157 C   0  0  0  0  0  0  0  0  0  0  0  0
   -6.4414    2.9175  -36.0582 C   0  0  0  0  0  0  0  0  0  0  0  0
   -6.4844    5.4920  -36.9614 C   0  0  0  0  0  0  0  0  0  0  0  0
   -5.9482    4.4948  -37.7686 C   0  0  0  0  0  0  0  0  0  0  0  0
   -6.9783    5.1255  -35.7198 C   0  0  0  0  0  0  0  0  0  0  0  0
   -6.5270    6.9124  -37.4176 C   0  0  0  0  0  0  0  0  0  0  0  0
   -7.5667    6.1528  -34.8086 C   0  0  0  0  0  0  0  0  0  0  0  0
   -6.9705    3.8595  -35.2457 N   0  0  0  0  0  0  0  0  0  0  0  0
   -5.4273    4.7961  -39.0454 N   0  0  0  0  0  0  0  0  0  0  0  0
   -6.5208    6.9238  -34.2322 O   0  0  0  0  0  0  0  0  0  0  0  0
   -5.5116    2.3783  -37.9196 H   0  0  0  0  0  0  0  0  0  0  0  0
   -6.4450    1.9087  -35.6587 H   0  0  0  0  0  0  0  0  0  0  0  0
   -7.4643    7.1135  -37.9500 H   0  0  0  0  0  0  0  0  0  0  0  0
   -6.4523    7.6046  -36.5694 H   0  0  0  0  0  0  0  0  0  0  0  0
   -5.6889    7.1395  -38.0887 H   0  0  0  0  0  0  0  0  0  0  0  0
   -8.2431    6.8259  -35.3511 H   0  0  0  0  0  0  0  0  0  0  0  0
   -8.1447    5.6810  -34.0035 H   0  0  0  0  0  0  0  0  0  0  0  0
   -5.4896    5.7329  -39.3879 H   0  0  0  0  0  0  0  0  0  0  0  0
   -5.0916    4.0519  -39.6219 H   0  0  0  0  0  0  0  0  0  0  0  0
   -6.9423    7.5763  -33.6499 H   0  0  0  0  0  0  0  0  0  0  0  0
  1  2  2  0  0  0  0
  1  4  1  0  0  0  0
  2  8  1  0  0  0  0
  3  4  2  0  0  0  0
  3  5  1  0  0  0  0
  3  6  1  0  0  0  0
  4  9  1  0  0  0  0
  5  7  1  0  0  0  0
  5  8  2  0  0  0  0
  7 10  1  0  0  0  0
  1 11  1  0  0  0  0
  2 12  1  0  0  0  0
  6 13  1  0  0  0  0
  6 14  1  0  0  0  0
  6 15  1  0  0  0  0
  7 16  1  0  0  0  0
  7 17  1  0  0  0  0
  9 18  1  0  0  0  0
  9 19  1  0  0  0  0
 10 20  1  0  0  0  0
M  END
> <id>
EN300-245900

> <smiles>
CC=1C(N)=CC=NC1CO

> <MDLNUMBER>
MFCD11553122

> <IUPAC Name>
(4-amino-3-methylpyridin-2-yl)methanol

> <CAS>
1314911-22-2

> <Purity>
95

> <URL>
https://www.enaminestore.com/catalog/EN300-245900

> <ROCS_ShapeQuery>
hit0

> <ROCS_TanimotoCombo>
1.088 

> <ROCS_ShapeTanimoto>
0.431 

> <ROCS_ColorTanimoto>
0.656 

> <ROCS_RefTversky>
1.306 

> <ROCS_RefColorTversky>
0.793 

> <ROCS_RefTverskyCombo>
2.098 

> <ROCS_FitTversky>
0.392 

> <ROCS_FitColorTversky>
0.793 

> <ROCS_FitTverskyCombo>
1.185 

> <ROCS_ColorScore>
-4.756

> <ROCS_Overlap>
162.712

> <ROCS_Rank>
81                  

$$$$
untitled-dbase-82989_1
  -OEChem-06232314393D

 19 19  0     0  0  0  0  0  0999 V2000
   -5.5152    5.9264  -38.1381 C   0  0  0  0  0  0  0  0  0  0  0  0
   -5.9868    5.8781  -36.8149 C   0  0  0  0  0  0  0  0  0  0  0  0
   -6.3300    4.5638  -36.6392 C   0  0  0  0  0  0  0  0  0  0  0  0
   -7.1952    8.4684  -36.3271 C   0  0  0  0  0  0  0  0  0  0  0  0
   -4.5221    8.0457  -35.5642 C   0  0  0  0  0  0  0  0  0  0  0  0
   -5.5623    4.7333  -38.7373 N   0  0  0  0  0  0  0  0  0  0  0  0
   -6.8412    3.8875  -35.5917 N   0  0  0  0  0  0  0  0  0  0  0  0
   -6.5628    6.8324  -34.2673 O   0  0  0  0  0  0  0  0  0  0  0  0
   -6.0813    3.8703  -37.7795 O   0  0  0  0  0  0  0  0  0  0  0  0
   -6.1080    7.2022  -35.6565 P   0  0  0  0  0  0  0  0  0  0  0  0
   -5.1404    6.7748  -38.6920 H   0  0  0  0  0  0  0  0  0  0  0  0
   -7.2832    9.2990  -35.6224 H   0  0  0  0  0  0  0  0  0  0  0  0
   -6.7934    8.8465  -37.2704 H   0  0  0  0  0  0  0  0  0  0  0  0
   -8.1891    8.0517  -36.5082 H   0  0  0  0  0  0  0  0  0  0  0  0
   -4.5771    8.8711  -34.8500 H   0  0  0  0  0  0  0  0  0  0  0  0
   -3.7451    7.3490  -35.2397 H   0  0  0  0  0  0  0  0  0  0  0  0
   -4.2518    8.4445  -36.5451 H   0  0  0  0  0  0  0  0  0  0  0  0
   -7.0131    4.3354  -34.6780 H   0  0  0  0  0  0  0  0  0  0  0  0
   -6.9988    2.8679  -35.6188 H   0  0  0  0  0  0  0  0  0  0  0  0
  1  2  1  0  0  0  0
  1  6  2  0  0  0  0
  2  3  2  0  0  0  0
  2 10  1  0  0  0  0
  3  7  1  0  0  0  0
  3  9  1  0  0  0  0
  4 10  1  0  0  0  0
  5 10  1  0  0  0  0
  6  9  1  0  0  0  0
  8 10  2  0  0  0  0
  1 11  1  0  0  0  0
  4 12  1  0  0  0  0
  4 13  1  0  0  0  0
  4 14  1  0  0  0  0
  5 15  1  0  0  0  0
  5 16  1  0  0  0  0
  5 17  1  0  0  0  0
  7 18  1  0  0  0  0
  7 19  1  0  0  0  0
M  END
> <id>
EN300-26678556

> <smiles>
CP(=O)(C)C=1C=NOC1N

> <MDLNUMBER>
MFCD32702656

> <IUPAC Name>
4-(dimethylphosphoryl)-1,2-oxazol-5-amine

> <CAS>
2460748-63-2

> <Purity>
95

> <URL>
https://www.enaminestore.com/catalog/EN300-26678556

> <ROCS_ShapeQuery>
hit0

> <ROCS_TanimotoCombo>
1.085 

> <ROCS_ShapeTanimoto>
0.524 

> <ROCS_ColorTanimoto>
0.560 

> <ROCS_RefTversky>
1.432 

> <ROCS_RefColorTversky>
0.664 

> <ROCS_RefTverskyCombo>
2.096 

> <ROCS_FitTversky>
0.453 

> <ROCS_FitColorTversky>
0.782 

> <ROCS_FitTverskyCombo>
1.235 

> <ROCS_ColorScore>
-3.950

> <ROCS_Overlap>
176.482

> <ROCS_Rank>
82                  

$$$$
untitled-dbase-16195_18
  -OEChem-06232314393D

 15 14  0     1  0  0  0  0  0999 V2000
   -6.0388    5.0252  -37.6050 C   0  0  0  0  0  0  0  0  0  0  0  0
   -8.0531    5.8934  -36.4935 C   0  0  0  0  0  0  0  0  0  0  0  0
   -5.7600    6.2159  -35.4542 C   0  0  0  0  0  0  0  0  0  0  0  0
   -6.6588    5.2853  -36.2888 C   0  0  2  0  0  0  0  0  0  0  0  0
   -5.5517    4.8237  -38.6391 N   0  0  0  0  0  0  0  0  0  0  0  0
   -6.8131    4.0124  -35.5746 N   0  0  0  0  0  0  0  0  0  0  0  0
   -6.5025    6.8265  -34.4033 O   0  0  0  0  0  0  0  0  0  0  0  0
   -8.5440    6.0999  -35.5351 H   0  0  0  0  0  0  0  0  0  0  0  0
   -8.7049    5.2192  -37.0634 H   0  0  0  0  0  0  0  0  0  0  0  0
   -8.0054    6.8353  -37.0529 H   0  0  0  0  0  0  0  0  0  0  0  0
   -4.9386    5.6546  -34.9931 H   0  0  0  0  0  0  0  0  0  0  0  0
   -5.3263    7.0129  -36.0704 H   0  0  0  0  0  0  0  0  0  0  0  0
   -6.2969    4.0730  -34.7317 H   0  0  0  0  0  0  0  0  0  0  0  0
   -7.7778    3.8823  -35.3928 H   0  0  0  0  0  0  0  0  0  0  0  0
   -7.2131    7.3347  -34.8249 H   0  0  0  0  0  0  0  0  0  0  0  0
  1  4  1  0  0  0  0
  1  5  3  0  0  0  0
  2  4  1  0  0  0  0
  3  4  1  0  0  0  0
  3  7  1  0  0  0  0
  4  6  1  0  0  0  0
  2  8  1  0  0  0  0
  2  9  1  0  0  0  0
  2 10  1  0  0  0  0
  3 11  1  0  0  0  0
  3 12  1  0  0  0  0
  6 13  1  0  0  0  0
  6 14  1  0  0  0  0
  7 15  1  0  0  0  0
M  END
> <id>
EN300-210135

> <smiles>
Cl.CC(N)(CO)C#N

> <MDLNUMBER>
MFCD28397702

> <IUPAC Name>
2-amino-3-hydroxy-2-methylpropanenitrile hydrochloride

> <CAS>
1803594-52-6

> <Purity>
95

> <URL>
https://www.enaminestore.com/catalog/EN300-210135

> <Saltdate>
Cl

> <ROCS_ShapeQuery>
hit0

> <ROCS_TanimotoCombo>
1.084 

> <ROCS_ShapeTanimoto>
0.535 

> <ROCS_ColorTanimoto>
0.549 

> <ROCS_RefTversky>
1.133 

> <ROCS_RefColorTversky>
0.655 

> <ROCS_RefTverskyCombo>
1.788 

> <ROCS_FitTversky>
0.504 

> <ROCS_FitColorTversky>
0.772 

> <ROCS_FitTverskyCombo>
1.276 

> <ROCS_ColorScore>
-3.900

> <ROCS_Overlap>
132.016

> <ROCS_Rank>
83                  

$$$$
untitled-dbase-16535_18
  -OEChem-06232314393D

 15 14  0     1  0  0  0  0  0999 V2000
   -6.0388    5.0252  -37.6050 C   0  0  0  0  0  0  0  0  0  0  0  0
   -8.0531    5.8934  -36.4935 C   0  0  0  0  0  0  0  0  0  0  0  0
   -5.7600    6.2159  -35.4542 C   0  0  0  0  0  0  0  0  0  0  0  0
   -6.6588    5.2853  -36.2888 C   0  0  2  0  0  0  0  0  0  0  0  0
   -5.5517    4.8237  -38.6391 N   0  0  0  0  0  0  0  0  0  0  0  0
   -6.8131    4.0124  -35.5746 N   0  0  0  0  0  0  0  0  0  0  0  0
   -6.5025    6.8265  -34.4033 O   0  0  0  0  0  0  0  0  0  0  0  0
   -8.5440    6.0999  -35.5351 H   0  0  0  0  0  0  0  0  0  0  0  0
   -8.7049    5.2192  -37.0634 H   0  0  0  0  0  0  0  0  0  0  0  0
   -8.0054    6.8353  -37.0529 H   0  0  0  0  0  0  0  0  0  0  0  0
   -4.9386    5.6546  -34.9931 H   0  0  0  0  0  0  0  0  0  0  0  0
   -5.3263    7.0129  -36.0704 H   0  0  0  0  0  0  0  0  0  0  0  0
   -6.2969    4.0730  -34.7317 H   0  0  0  0  0  0  0  0  0  0  0  0
   -7.7778    3.8823  -35.3928 H   0  0  0  0  0  0  0  0  0  0  0  0
   -7.2131    7.3347  -34.8249 H   0  0  0  0  0  0  0  0  0  0  0  0
  1  4  1  0  0  0  0
  1  5  3  0  0  0  0
  2  4  1  0  0  0  0
  3  4  1  0  0  0  0
  3  7  1  0  0  0  0
  4  6  1  0  0  0  0
  2  8  1  0  0  0  0
  2  9  1  0  0  0  0
  2 10  1  0  0  0  0
  3 11  1  0  0  0  0
  3 12  1  0  0  0  0
  6 13  1  0  0  0  0
  6 14  1  0  0  0  0
  7 15  1  0  0  0  0
M  END
> <id>
EN300-210136

> <smiles>
CC(N)(CO)C#N

> <MDLNUMBER>
MFCD19203913

> <IUPAC Name>
2-amino-3-hydroxy-2-methylpropanenitrile

> <CAS>
122556-12-1

> <Purity>
95

> <URL>
https://www.enaminestore.com/catalog/EN300-210136

> <MP>
70-74

> <ROCS_ShapeQuery>
hit0

> <ROCS_TanimotoCombo>
1.084 

> <ROCS_ShapeTanimoto>
0.535 

> <ROCS_ColorTanimoto>
0.549 

> <ROCS_RefTversky>
1.133 

> <ROCS_RefColorTversky>
0.655 

> <ROCS_RefTverskyCombo>
1.788 

> <ROCS_FitTversky>
0.504 

> <ROCS_FitColorTversky>
0.772 

> <ROCS_FitTverskyCombo>
1.276 

> <ROCS_ColorScore>
-3.900

> <ROCS_Overlap>
132.016

> <ROCS_Rank>
84                  

$$$$
untitled-dbase-18447_15
  -OEChem-06232314393D

 10  9  0     0  0  0  0  0  0999 V2000
   -6.3977    5.3696  -36.2022 C   0  0  0  0  0  0  0  0  0  0  0  0
   -6.8951    6.7056  -35.7086 C   0  0  0  0  0  0  0  0  0  0  0  0
   -5.5113    5.4260  -37.2438 N   0  0  0  0  0  0  0  0  0  0  0  0
   -6.5022    6.8618  -34.3567 O   0  0  0  0  0  0  0  0  0  0  0  0
   -6.8742    3.9260  -35.5096 S   0  0  0  0  0  0  0  0  0  0  0  0
   -6.4467    7.5190  -36.2875 H   0  0  0  0  0  0  0  0  0  0  0  0
   -7.9842    6.7869  -35.7802 H   0  0  0  0  0  0  0  0  0  0  0  0
   -5.2096    6.3041  -37.6535 H   0  0  0  0  0  0  0  0  0  0  0  0
   -5.1200    4.5797  -37.6440 H   0  0  0  0  0  0  0  0  0  0  0  0
   -6.8331    7.7272  -34.0619 H   0  0  0  0  0  0  0  0  0  0  0  0
  1  2  1  0  0  0  0
  1  3  1  0  0  0  0
  1  5  2  0  0  0  0
  2  4  1  0  0  0  0
  2  6  1  0  0  0  0
  2  7  1  0  0  0  0
  3  8  1  0  0  0  0
  3  9  1  0  0  0  0
  4 10  1  0  0  0  0
M  END
> <id>
EN300-98991

> <smiles>
NC(=S)CO

> <MDLNUMBER>
MFCD11106303

> <IUPAC Name>
2-hydroxyethanethioamide

> <CAS>
174971-06-3

> <Purity>
95

> <URL>
https://www.enaminestore.com/catalog/EN300-98991

> <ROCS_ShapeQuery>
hit0

> <ROCS_TanimotoCombo>
1.084 

> <ROCS_ShapeTanimoto>
0.590 

> <ROCS_ColorTanimoto>
0.495 

> <ROCS_RefTversky>
0.944 

> <ROCS_RefColorTversky>
0.509 

> <ROCS_RefTverskyCombo>
1.453 

> <ROCS_FitTversky>
0.611 

> <ROCS_FitColorTversky>
0.945 

> <ROCS_FitTverskyCombo>
1.557 

> <ROCS_ColorScore>
-2.978

> <ROCS_Overlap>
105.629

> <ROCS_Rank>
85                  

$$$$
untitled-dbase-16522_40
  -OEChem-06232314393D

 17 17  0     0  0  0  0  0  0999 V2000
   -5.2403    5.7359  -36.5156 C   0  0  0  0  0  0  0  0  0  0  0  0
   -6.5764    4.0785  -36.6603 C   0  0  0  0  0  0  0  0  0  0  0  0
   -6.0355    4.9123  -35.4736 C   0  0  0  0  0  0  0  0  0  0  0  0
   -5.3219    4.5106  -37.4556 C   0  0  0  0  0  0  0  0  0  0  0  0
   -7.0604    5.6665  -34.6521 C   0  0  0  0  0  0  0  0  0  0  0  0
   -5.5241    4.8012  -38.8485 O   0  0  0  0  0  0  0  0  0  0  0  0
   -6.5244    6.9309  -34.2931 O   0  0  0  0  0  0  0  0  0  0  0  0
   -5.7614    6.6222  -36.8964 H   0  0  0  0  0  0  0  0  0  0  0  0
   -4.2316    6.0252  -36.2078 H   0  0  0  0  0  0  0  0  0  0  0  0
   -6.6656    3.0049  -36.4718 H   0  0  0  0  0  0  0  0  0  0  0  0
   -7.5187    4.4417  -37.0871 H   0  0  0  0  0  0  0  0  0  0  0  0
   -5.3728    4.3212  -34.8254 H   0  0  0  0  0  0  0  0  0  0  0  0
   -4.4771    3.8224  -37.3240 H   0  0  0  0  0  0  0  0  0  0  0  0
   -7.3020    5.1136  -33.7398 H   0  0  0  0  0  0  0  0  0  0  0  0
   -7.9756    5.8224  -35.2305 H   0  0  0  0  0  0  0  0  0  0  0  0
   -5.5523    3.9449  -39.2956 H   0  0  0  0  0  0  0  0  0  0  0  0
   -6.3290    7.3997  -35.1212 H   0  0  0  0  0  0  0  0  0  0  0  0
  1  3  1  0  0  0  0
  1  4  1  0  0  0  0
  2  3  1  0  0  0  0
  2  4  1  0  0  0  0
  3  5  1  0  0  0  0
  4  6  1  0  0  0  0
  5  7  1  0  0  0  0
  1  8  1  0  0  0  0
  1  9  1  0  0  0  0
  2 10  1  0  0  0  0
  2 11  1  0  0  0  0
  3 12  1  0  0  0  0
  4 13  1  0  0  0  0
  5 14  1  0  0  0  0
  5 15  1  0  0  0  0
  6 16  1  0  0  0  0
  7 17  1  0  0  0  0
M  END
> <id>
EN300-246068

> <smiles>
OCC1CC(O)C1

> <MDLNUMBER>
MFCD09743755

> <IUPAC Name>
3-(hydroxymethyl)cyclobutan-1-ol

> <CAS>
1245647-03-3

> <Purity>
95

> <URL>
https://www.enaminestore.com/catalog/EN300-246068

> <ROCS_ShapeQuery>
hit0

> <ROCS_TanimotoCombo>
1.082 

> <ROCS_ShapeTanimoto>
0.513 

> <ROCS_ColorTanimoto>
0.569 

> <ROCS_RefTversky>
1.114 

> <ROCS_RefColorTversky>
0.671 

> <ROCS_RefTverskyCombo>
1.785 

> <ROCS_FitTversky>
0.487 

> <ROCS_FitColorTversky>
0.790 

> <ROCS_FitTverskyCombo>
1.278 

> <ROCS_ColorScore>
-3.991

> <ROCS_Overlap>
130.124

> <ROCS_Rank>
86                  

$$$$
untitled-dbase-175805_166
  -OEChem-06232314393D

 22 22  0     1  0  0  0  0  0999 V2000
   -4.8232    6.3572  -36.8035 C   0  0  0  0  0  0  0  0  0  0  0  0
   -4.4847    5.8104  -34.4711 C   0  0  0  0  0  0  0  0  0  0  0  0
   -5.6312    5.0622  -36.8042 C   0  0  1  0  0  0  0  0  0  0  0  0
   -6.0028    5.6988  -34.3670 C   0  0  2  0  0  0  0  0  0  0  0  0
   -6.6166    5.0674  -35.6231 C   0  0  2  0  0  0  0  0  0  0  0  0
   -6.3597    4.8634  -38.1327 C   0  0  0  0  0  0  0  0  0  0  0  0
   -4.0514    6.5434  -35.6172 O   0  0  0  0  0  0  0  0  0  0  0  0
   -6.5459    7.0110  -34.2111 O   0  0  0  0  0  0  0  0  0  0  0  0
   -6.9740    3.7120  -35.3503 O   0  0  0  0  0  0  0  0  0  0  0  0
   -5.3974    4.8191  -39.1694 O   0  0  0  0  0  0  0  0  0  0  0  0
   -4.1148    6.3614  -37.6531 H   0  0  0  0  0  0  0  0  0  0  0  0
   -5.4746    7.2429  -36.9492 H   0  0  0  0  0  0  0  0  0  0  0  0
   -4.0519    6.2627  -33.5581 H   0  0  0  0  0  0  0  0  0  0  0  0
   -4.0401    4.8009  -34.5274 H   0  0  0  0  0  0  0  0  0  0  0  0
   -4.9470    4.2176  -36.6667 H   0  0  0  0  0  0  0  0  0  0  0  0
   -6.2834    5.1168  -33.4861 H   0  0  0  0  0  0  0  0  0  0  0  0
   -7.5427    5.5905  -35.9008 H   0  0  0  0  0  0  0  0  0  0  0  0
   -7.0423    5.6939  -38.3079 H   0  0  0  0  0  0  0  0  0  0  0  0
   -6.9146    3.9263  -38.1137 H   0  0  0  0  0  0  0  0  0  0  0  0
   -6.1631    7.3754  -33.3974 H   0  0  0  0  0  0  0  0  0  0  0  0
   -7.5937    3.7357  -34.6052 H   0  0  0  0  0  0  0  0  0  0  0  0
   -5.8810    4.6923  -40.0037 H   0  0  0  0  0  0  0  0  0  0  0  0
  1  3  1  0  0  0  0
  1  7  1  0  0  0  0
  2  4  1  0  0  0  0
  2  7  1  0  0  0  0
  3  5  1  0  0  0  0
  3  6  1  0  0  0  0
  4  5  1  0  0  0  0
  4  8  1  0  0  0  0
  5  9  1  0  0  0  0
  6 10  1  0  0  0  0
  1 11  1  0  0  0  0
  1 12  1  0  0  0  0
  2 13  1  0  0  0  0
  2 14  1  0  0  0  0
  3 15  1  0  0  0  0
  4 16  1  0  0  0  0
  5 17  1  0  0  0  0
  6 18  1  0  0  0  0
  6 19  1  0  0  0  0
  8 20  1  0  0  0  0
  9 21  1  0  0  0  0
 10 22  1  0  0  0  0
M  END
> <id>
EN300-45150855

> <smiles>
OCC1COCC(O)C1O

> <IUPAC Name>
5-(hydroxymethyl)oxane-3,4-diol

> <URL>
https://www.enaminestore.com/catalog/EN300-45150855

> <ROCS_ShapeQuery>
hit0

> <ROCS_TanimotoCombo>
1.081 

> <ROCS_ShapeTanimoto>
0.421 

> <ROCS_ColorTanimoto>
0.660 

> <ROCS_RefTversky>
1.252 

> <ROCS_RefColorTversky>
0.913 

> <ROCS_RefTverskyCombo>
2.165 

> <ROCS_FitTversky>
0.388 

> <ROCS_FitColorTversky>
0.705 

> <ROCS_FitTverskyCombo>
1.092 

> <ROCS_ColorScore>
-5.569

> <ROCS_Overlap>
155.003

> <ROCS_Rank>
87                  

$$$$
untitled-dbase-20893_48
  -OEChem-06232314393D

 21 21  0     0  0  0  0  0  0999 V2000
   -5.1864    5.1878  -36.0392 C   0  0  0  0  0  0  0  0  0  0  0  0
   -7.4929    5.4636  -36.9977 C   0  0  0  0  0  0  0  0  0  0  0  0
   -4.7824    4.5756  -37.3781 C   0  0  0  0  0  0  0  0  0  0  0  0
   -6.9565    4.8333  -38.2800 C   0  0  0  0  0  0  0  0  0  0  0  0
   -6.6868    5.0048  -35.7741 C   0  0  0  0  0  0  0  0  0  0  0  0
   -7.1143    5.7595  -34.5159 C   0  0  0  0  0  0  0  0  0  0  0  0
   -5.5673    5.1173  -38.4394 O   0  0  0  0  0  0  0  0  0  0  0  0
   -6.9281    3.6120  -35.5533 O   0  0  0  0  0  0  0  0  0  0  0  0
   -6.4345    7.0002  -34.4851 O   0  0  0  0  0  0  0  0  0  0  0  0
   -4.5921    4.7254  -35.2425 H   0  0  0  0  0  0  0  0  0  0  0  0
   -4.9514    6.2595  -36.0596 H   0  0  0  0  0  0  0  0  0  0  0  0
   -7.4220    6.5550  -37.0871 H   0  0  0  0  0  0  0  0  0  0  0  0
   -8.5517    5.2014  -36.8882 H   0  0  0  0  0  0  0  0  0  0  0  0
   -3.7333    4.8069  -37.5884 H   0  0  0  0  0  0  0  0  0  0  0  0
   -4.8822    3.4838  -37.3699 H   0  0  0  0  0  0  0  0  0  0  0  0
   -7.1122    3.7482  -38.2929 H   0  0  0  0  0  0  0  0  0  0  0  0
   -7.4825    5.2502  -39.1450 H   0  0  0  0  0  0  0  0  0  0  0  0
   -6.8521    5.1809  -33.6312 H   0  0  0  0  0  0  0  0  0  0  0  0
   -8.1888    5.9357  -34.5378 H   0  0  0  0  0  0  0  0  0  0  0  0
   -7.8783    3.5246  -35.3891 H   0  0  0  0  0  0  0  0  0  0  0  0
   -5.4818    6.8044  -34.4694 H   0  0  0  0  0  0  0  0  0  0  0  0
  1  3  1  0  0  0  0
  1  5  1  0  0  0  0
  2  4  1  0  0  0  0
  2  5  1  0  0  0  0
  3  7  1  0  0  0  0
  4  7  1  0  0  0  0
  5  6  1  0  0  0  0
  5  8  1  0  0  0  0
  6  9  1  0  0  0  0
  1 10  1  0  0  0  0
  1 11  1  0  0  0  0
  2 12  1  0  0  0  0
  2 13  1  0  0  0  0
  3 14  1  0  0  0  0
  3 15  1  0  0  0  0
  4 16  1  0  0  0  0
  4 17  1  0  0  0  0
  6 18  1  0  0  0  0
  6 19  1  0  0  0  0
  8 20  1  0  0  0  0
  9 21  1  0  0  0  0
M  END
> <id>
EN300-302283

> <smiles>
OCC1(O)CCOCC1

> <MDLNUMBER>
MFCD24287620

> <IUPAC Name>
4-(hydroxymethyl)oxan-4-ol

> <CAS>
87216-17-9

> <Purity>
95

> <URL>
https://www.enaminestore.com/catalog/EN300-302283

> <MP>
56-57

> <ROCS_ShapeQuery>
hit0

> <ROCS_TanimotoCombo>
1.079 

> <ROCS_ShapeTanimoto>
0.447 

> <ROCS_ColorTanimoto>
0.633 

> <ROCS_RefTversky>
1.222 

> <ROCS_RefColorTversky>
0.775 

> <ROCS_RefTverskyCombo>
1.997 

> <ROCS_FitTversky>
0.413 

> <ROCS_FitColorTversky>
0.775 

> <ROCS_FitTverskyCombo>
1.188 

> <ROCS_ColorScore>
-4.651

> <ROCS_Overlap>
148.635

> <ROCS_Rank>
88                  

$$$$
untitled-dbase-68597_5
  -OEChem-06232314393D

 14 14  0     0  0  0  0  0  0999 V2000
   -6.0973    4.4090  -36.6047 C   0  0  0  0  0  0  0  0  0  0  0  0
   -6.4342    5.8366  -35.1196 C   0  0  0  0  0  0  0  0  0  0  0  0
   -5.6124    3.8008  -37.8493 C   0  0  0  0  0  0  0  0  0  0  0  0
   -5.8332    5.7087  -36.2797 N   0  0  0  0  0  0  0  0  0  0  0  0
   -6.8239    3.7246  -35.7186 N   0  0  0  0  0  0  0  0  0  0  0  0
   -7.0261    4.6605  -34.7787 N   0  0  0  0  0  0  0  0  0  0  0  0
   -6.5334    6.8939  -34.2874 N   0  0  0  0  0  0  0  0  0  0  0  0
   -5.5056    4.7906  -38.8764 O   0  0  0  0  0  0  0  0  0  0  0  0
   -4.6160    3.3316  -37.7326 H   0  0  0  0  0  0  0  0  0  0  0  0
   -6.2872    3.0043  -38.2189 H   0  0  0  0  0  0  0  0  0  0  0  0
   -7.5654    4.4277  -33.9534 H   0  0  0  0  0  0  0  0  0  0  0  0
   -7.0862    6.8580  -33.4176 H   0  0  0  0  0  0  0  0  0  0  0  0
   -6.1410    7.8176  -34.5243 H   0  0  0  0  0  0  0  0  0  0  0  0
   -4.8772    5.4516  -38.5514 H   0  0  0  0  0  0  0  0  0  0  0  0
  1  3  1  0  0  0  0
  1  4  1  0  0  0  0
  1  5  2  0  0  0  0
  2  4  2  0  0  0  0
  2  6  1  0  0  0  0
  2  7  1  0  0  0  0
  3  8  1  0  0  0  0
  5  6  1  0  0  0  0
  3  9  1  0  0  0  0
  3 10  1  0  0  0  0
  6 11  1  0  0  0  0
  7 12  1  0  0  0  0
  7 13  1  0  0  0  0
  8 14  1  0  0  0  0
M  END
> <id>
EN300-96013

> <smiles>
NC1=NC(CO)=NN1

> <MDLNUMBER>
MFCD02933180

> <IUPAC Name>
(5-amino-1H-1,2,4-triazol-3-yl)methanol

> <CAS>
27277-03-8

> <Purity>
95

> <URL>
https://www.enaminestore.com/catalog/EN300-96013

> <MP>
188-190

> <ROCS_ShapeQuery>
hit0

> <ROCS_TanimotoCombo>
1.079 

> <ROCS_ShapeTanimoto>
0.487 

> <ROCS_ColorTanimoto>
0.592 

> <ROCS_RefTversky>
1.255 

> <ROCS_RefColorTversky>
0.855 

> <ROCS_RefTverskyCombo>
2.110 

> <ROCS_FitTversky>
0.443 

> <ROCS_FitColorTversky>
0.658 

> <ROCS_FitTverskyCombo>
1.101 

> <ROCS_ColorScore>
-5.217

> <ROCS_Overlap>
151.608

> <ROCS_Rank>
89                  

$$$$
untitled-dbase-82471_8
  -OEChem-06232314393D

 17 17  0     1  0  0  0  0  0999 V2000
   -6.5448    4.1657  -36.7075 C   0  0  0  0  0  0  0  0  0  0  0  0
   -5.2907    5.8918  -36.6832 C   0  0  0  0  0  0  0  0  0  0  0  0
   -6.0598    5.1162  -35.5861 C   0  0  1  0  0  0  0  0  0  0  0  0
   -5.3018    4.5932  -37.5228 C   0  0  2  0  0  0  0  0  0  0  0  0
   -7.1299    5.8832  -34.8377 C   0  0  0  0  0  0  0  0  0  0  0  0
   -5.4990    4.7621  -38.9363 O   0  0  0  0  0  0  0  0  0  0  0  0
   -6.5337    6.9995  -34.1949 O   0  0  0  0  0  0  0  0  0  0  0  0
   -6.5860    3.1075  -36.4345 H   0  0  0  0  0  0  0  0  0  0  0  0
   -7.4976    4.4485  -37.1706 H   0  0  0  0  0  0  0  0  0  0  0  0
   -5.8480    6.7191  -37.1383 H   0  0  0  0  0  0  0  0  0  0  0  0
   -4.3009    6.2527  -36.3899 H   0  0  0  0  0  0  0  0  0  0  0  0
   -5.3781    4.6112  -34.8870 H   0  0  0  0  0  0  0  0  0  0  0  0
   -4.4297    3.9558  -37.3288 H   0  0  0  0  0  0  0  0  0  0  0  0
   -7.5974    5.2479  -34.0799 H   0  0  0  0  0  0  0  0  0  0  0  0
   -7.8980    6.2425  -35.5286 H   0  0  0  0  0  0  0  0  0  0  0  0
   -4.6405    5.0258  -39.2931 H   0  0  0  0  0  0  0  0  0  0  0  0
   -5.8652    6.6490  -33.5835 H   0  0  0  0  0  0  0  0  0  0  0  0
  1  3  1  0  0  0  0
  1  4  1  0  0  0  0
  2  3  1  0  0  0  0
  2  4  1  0  0  0  0
  3  5  1  1  0  0  0
  4  6  1  1  0  0  0
  5  7  1  0  0  0  0
  1  8  1  0  0  0  0
  1  9  1  0  0  0  0
  2 10  1  0  0  0  0
  2 11  1  0  0  0  0
  3 12  1  0  0  0  0
  4 13  1  0  0  0  0
  5 14  1  0  0  0  0
  5 15  1  0  0  0  0
  6 16  1  0  0  0  0
  7 17  1  0  0  0  0
M  END
> <id>
EN300-7100747

> <smiles>
OC[C@H]1C[C@@H](O)C1

> <MDLNUMBER>
MFCD16660358

> <IUPAC Name>
(1s,3s)-3-(hydroxymethyl)cyclobutan-1-ol

> <CAS>
112623-19-5

> <Purity>
95

> <URL>
https://www.enaminestore.com/catalog/EN300-7100747

> <ROCS_ShapeQuery>
hit0

> <ROCS_TanimotoCombo>
1.079 

> <ROCS_ShapeTanimoto>
0.529 

> <ROCS_ColorTanimoto>
0.550 

> <ROCS_RefTversky>
1.137 

> <ROCS_RefColorTversky>
0.656 

> <ROCS_RefTverskyCombo>
1.793 

> <ROCS_FitTversky>
0.497 

> <ROCS_FitColorTversky>
0.773 

> <ROCS_FitTverskyCombo>
1.270 

> <ROCS_ColorScore>
-3.904

> <ROCS_Overlap>
132.748

> <ROCS_Rank>
90                  

$$$$
untitled-dbase-93922_10
  -OEChem-06232314393D

 13 12  0     1  0  0  0  0  0999 V2000
   -5.6826    5.6369  -37.8040 C   0  0  0  0  0  0  0  0  0  0  0  0
   -6.7321    4.7060  -35.3789 C   0  0  0  0  0  0  0  0  0  0  0  0
   -5.8527    6.6358  -36.7367 C   0  0  0  0  0  0  0  0  0  0  0  0
   -5.8963    5.9787  -35.3545 C   0  0  1  0  0  0  0  0  0  0  0  0
   -5.5485    4.8505  -38.6466 N   0  0  0  0  0  0  0  0  0  0  0  0
   -6.5000    6.8658  -34.4140 O   0  0  0  0  0  0  0  0  0  0  0  0
   -7.7487    4.9102  -35.7334 H   0  0  0  0  0  0  0  0  0  0  0  0
   -6.7913    4.2487  -34.3867 H   0  0  0  0  0  0  0  0  0  0  0  0
   -6.2980    3.9776  -36.0726 H   0  0  0  0  0  0  0  0  0  0  0  0
   -6.7780    7.1955  -36.9174 H   0  0  0  0  0  0  0  0  0  0  0  0
   -5.0183    7.3451  -36.7885 H   0  0  0  0  0  0  0  0  0  0  0  0
   -4.8882    5.7390  -34.9962 H   0  0  0  0  0  0  0  0  0  0  0  0
   -6.4886    6.4089  -33.5593 H   0  0  0  0  0  0  0  0  0  0  0  0
  1  3  1  0  0  0  0
  1  5  3  0  0  0  0
  2  4  1  6  0  0  0
  3  4  1  0  0  0  0
  4  6  1  0  0  0  0
  2  7  1  0  0  0  0
  2  8  1  0  0  0  0
  2  9  1  0  0  0  0
  3 10  1  0  0  0  0
  3 11  1  0  0  0  0
  4 12  1  0  0  0  0
  6 13  1  0  0  0  0
M  END
> <id>
EN300-2918012

> <smiles>
C[C@H](O)CC#N

> <MDLNUMBER>
MFCD07367002

> <IUPAC Name>
(3S)-3-hydroxybutanenitrile

> <CAS>
123689-95-2

> <Purity>
95

> <URL>
https://www.enaminestore.com/catalog/EN300-2918012

> <ROCS_ShapeQuery>
hit0

> <ROCS_TanimotoCombo>
1.079 

> <ROCS_ShapeTanimoto>
0.589 

> <ROCS_ColorTanimoto>
0.489 

> <ROCS_RefTversky>
1.074 

> <ROCS_RefColorTversky>
0.505 

> <ROCS_RefTverskyCombo>
1.580 

> <ROCS_FitTversky>
0.566 

> <ROCS_FitColorTversky>
0.939 

> <ROCS_FitTverskyCombo>
1.505 

> <ROCS_ColorScore>
-2.956

> <ROCS_Overlap>
122.603

> <ROCS_Rank>
91                  

$$$$
untitled-dbase-80043_34
  -OEChem-06232314393D

 22 21  0     1  0  0  0  0  0999 V2000
   -4.6603    6.6890  -36.3182 C   0  0  0  0  0  0  0  0  0  0  0  0
   -6.4628    6.2732  -34.6272 C   0  0  0  0  0  0  0  0  0  0  0  0
   -7.0593    6.7552  -37.0025 C   0  0  0  0  0  0  0  0  0  0  0  0
   -6.4212    4.1809  -37.8764 C   0  0  0  0  0  0  0  0  0  0  0  0
   -6.0026    4.5262  -36.4457 C   0  0  1  0  0  0  0  0  0  0  0  0
   -6.0385    6.0418  -36.0894 C   0  0  0  0  0  0  0  0  0  0  0  0
   -5.5180    4.8153  -38.7794 O   0  0  0  0  0  0  0  0  0  0  0  0
   -6.8761    3.8202  -35.5557 O   0  0  0  0  0  0  0  0  0  0  0  0
   -4.3107    6.5531  -37.3464 H   0  0  0  0  0  0  0  0  0  0  0  0
   -4.6904    7.7643  -36.1099 H   0  0  0  0  0  0  0  0  0  0  0  0
   -3.9024    6.2454  -35.6618 H   0  0  0  0  0  0  0  0  0  0  0  0
   -7.4412    5.8287  -34.4165 H   0  0  0  0  0  0  0  0  0  0  0  0
   -5.7452    5.8192  -33.9340 H   0  0  0  0  0  0  0  0  0  0  0  0
   -6.5193    7.3407  -34.3888 H   0  0  0  0  0  0  0  0  0  0  0  0
   -8.0662    6.3394  -36.8871 H   0  0  0  0  0  0  0  0  0  0  0  0
   -6.7760    6.6617  -38.0570 H   0  0  0  0  0  0  0  0  0  0  0  0
   -7.1199    7.8246  -36.7696 H   0  0  0  0  0  0  0  0  0  0  0  0
   -6.3771    3.1067  -38.0696 H   0  0  0  0  0  0  0  0  0  0  0  0
   -7.4242    4.5564  -38.1013 H   0  0  0  0  0  0  0  0  0  0  0  0
   -4.9946    4.1325  -36.2615 H   0  0  0  0  0  0  0  0  0  0  0  0
   -5.8096    4.5775  -39.6729 H   0  0  0  0  0  0  0  0  0  0  0  0
   -6.7556    2.8802  -35.7510 H   0  0  0  0  0  0  0  0  0  0  0  0
  1  6  1  0  0  0  0
  2  6  1  0  0  0  0
  3  6  1  0  0  0  0
  4  5  1  0  0  0  0
  4  7  1  0  0  0  0
  5  6  1  0  0  0  0
  5  8  1  1  0  0  0
  1  9  1  0  0  0  0
  1 10  1  0  0  0  0
  1 11  1  0  0  0  0
  2 12  1  0  0  0  0
  2 13  1  0  0  0  0
  2 14  1  0  0  0  0
  3 15  1  0  0  0  0
  3 16  1  0  0  0  0
  3 17  1  0  0  0  0
  4 18  1  0  0  0  0
  4 19  1  0  0  0  0
  5 20  1  0  0  0  0
  7 21  1  0  0  0  0
  8 22  1  0  0  0  0
M  END
> <id>
EN300-2009718

> <smiles>
CC(C)(C)[C@@H](O)CO

> <MDLNUMBER>
MFCD00211254

> <IUPAC Name>
(2R)-3,3-dimethylbutane-1,2-diol

> <CAS>
31612-63-2

> <Purity>
95

> <URL>
https://www.enaminestore.com/catalog/EN300-2009718

> <MP>
41-42

> <ROCS_ShapeQuery>
hit0

> <ROCS_TanimotoCombo>
1.077 

> <ROCS_ShapeTanimoto>
0.506 

> <ROCS_ColorTanimoto>
0.571 

> <ROCS_RefTversky>
1.173 

> <ROCS_RefColorTversky>
0.672 

> <ROCS_RefTverskyCombo>
1.845 

> <ROCS_FitTversky>
0.471 

> <ROCS_FitColorTversky>
0.791 

> <ROCS_FitTverskyCombo>
1.262 

> <ROCS_ColorScore>
-3.998

> <ROCS_Overlap>
138.730

> <ROCS_Rank>
92                  

$$$$
untitled-dbase-122990_155
  -OEChem-06232314393D

 22 22  0     0  0  0  0  0  0999 V2000
   -4.9978    5.2921  -35.9123 C   0  0  0  0  0  0  0  0  0  0  0  0
   -7.3247    5.9058  -36.6783 C   0  0  0  0  0  0  0  0  0  0  0  0
   -5.2142    6.0608  -34.5998 C   0  0  0  0  0  0  0  0  0  0  0  0
   -6.9814    7.1491  -35.8462 C   0  0  0  0  0  0  0  0  0  0  0  0
   -6.3182    4.7545  -36.4775 C   0  0  0  0  0  0  0  0  0  0  0  0
   -6.0983    3.9841  -37.7789 C   0  0  0  0  0  0  0  0  0  0  0  0
   -6.4814    6.7963  -34.5206 N   0  0  0  0  0  0  0  0  0  0  0  0
   -6.8824    3.8428  -35.5267 O   0  0  0  0  0  0  0  0  0  0  0  0
   -5.5257    4.8631  -38.7285 O   0  0  0  0  0  0  0  0  0  0  0  0
   -4.5183    5.9580  -36.6404 H   0  0  0  0  0  0  0  0  0  0  0  0
   -4.3046    4.4658  -35.7149 H   0  0  0  0  0  0  0  0  0  0  0  0
   -8.3370    5.5748  -36.4020 H   0  0  0  0  0  0  0  0  0  0  0  0
   -7.3605    6.1860  -37.7427 H   0  0  0  0  0  0  0  0  0  0  0  0
   -5.1285    5.3700  -33.7343 H   0  0  0  0  0  0  0  0  0  0  0  0
   -4.3835    6.7837  -34.4726 H   0  0  0  0  0  0  0  0  0  0  0  0
   -6.2107    7.7256  -36.3734 H   0  0  0  0  0  0  0  0  0  0  0  0
   -7.8587    7.8046  -35.7592 H   0  0  0  0  0  0  0  0  0  0  0  0
   -7.0515    3.6154  -38.1553 H   0  0  0  0  0  0  0  0  0  0  0  0
   -5.4215    3.1489  -37.6041 H   0  0  0  0  0  0  0  0  0  0  0  0
   -7.1723    6.2196  -34.0407 H   0  0  0  0  0  0  0  0  0  0  0  0
   -6.2318    3.1350  -35.4107 H   0  0  0  0  0  0  0  0  0  0  0  0
   -5.3944    4.3543  -39.5471 H   0  0  0  0  0  0  0  0  0  0  0  0
  1  3  1  0  0  0  0
  1  5  1  0  0  0  0
  2  4  1  0  0  0  0
  2  5  1  0  0  0  0
  3  7  1  0  0  0  0
  4  7  1  0  0  0  0
  5  6  1  0  0  0  0
  5  8  1  0  0  0  0
  6  9  1  0  0  0  0
  1 10  1  0  0  0  0
  1 11  1  0  0  0  0
  2 12  1  0  0  0  0
  2 13  1  0  0  0  0
  3 14  1  0  0  0  0
  3 15  1  0  0  0  0
  4 16  1  0  0  0  0
  4 17  1  0  0  0  0
  6 18  1  0  0  0  0
  6 19  1  0  0  0  0
  7 20  1  0  0  0  0
  8 21  1  0  0  0  0
  9 22  1  0  0  0  0
M  END
> <id>
EN300-301425

> <smiles>
Cl.OCC1(O)CCNCC1

> <MDLNUMBER>
MFCD11845427

> <IUPAC Name>
4-(hydroxymethyl)piperidin-4-ol hydrochloride

> <CAS>
240401-25-6

> <Purity>
95

> <URL>
https://www.enaminestore.com/catalog/EN300-301425

> <Saltdate>
Cl

> <ROCS_ShapeQuery>
hit0

> <ROCS_TanimotoCombo>
1.077 

> <ROCS_ShapeTanimoto>
0.465 

> <ROCS_ColorTanimoto>
0.611 

> <ROCS_RefTversky>
1.250 

> <ROCS_RefColorTversky>
0.815 

> <ROCS_RefTverskyCombo>
2.065 

> <ROCS_FitTversky>
0.426 

> <ROCS_FitColorTversky>
0.710 

> <ROCS_FitTverskyCombo>
1.135 

> <ROCS_ColorScore>
-4.933

> <ROCS_Overlap>
151.908

> <ROCS_Rank>
93                  

$$$$
untitled-dbase-122987_155
  -OEChem-06232314393D

 22 22  0     0  0  0  0  0  0999 V2000
   -4.9978    5.2921  -35.9123 C   0  0  0  0  0  0  0  0  0  0  0  0
   -7.3247    5.9058  -36.6783 C   0  0  0  0  0  0  0  0  0  0  0  0
   -5.2142    6.0608  -34.5998 C   0  0  0  0  0  0  0  0  0  0  0  0
   -6.9814    7.1491  -35.8462 C   0  0  0  0  0  0  0  0  0  0  0  0
   -6.3182    4.7545  -36.4775 C   0  0  0  0  0  0  0  0  0  0  0  0
   -6.0983    3.9841  -37.7789 C   0  0  0  0  0  0  0  0  0  0  0  0
   -6.4814    6.7963  -34.5206 N   0  0  0  0  0  0  0  0  0  0  0  0
   -6.8824    3.8428  -35.5267 O   0  0  0  0  0  0  0  0  0  0  0  0
   -5.5257    4.8631  -38.7285 O   0  0  0  0  0  0  0  0  0  0  0  0
   -4.5183    5.9580  -36.6404 H   0  0  0  0  0  0  0  0  0  0  0  0
   -4.3046    4.4658  -35.7149 H   0  0  0  0  0  0  0  0  0  0  0  0
   -8.3370    5.5748  -36.4020 H   0  0  0  0  0  0  0  0  0  0  0  0
   -7.3605    6.1860  -37.7427 H   0  0  0  0  0  0  0  0  0  0  0  0
   -5.1285    5.3700  -33.7343 H   0  0  0  0  0  0  0  0  0  0  0  0
   -4.3835    6.7837  -34.4726 H   0  0  0  0  0  0  0  0  0  0  0  0
   -6.2107    7.7256  -36.3734 H   0  0  0  0  0  0  0  0  0  0  0  0
   -7.8587    7.8046  -35.7592 H   0  0  0  0  0  0  0  0  0  0  0  0
   -7.0515    3.6154  -38.1553 H   0  0  0  0  0  0  0  0  0  0  0  0
   -5.4215    3.1489  -37.6041 H   0  0  0  0  0  0  0  0  0  0  0  0
   -7.1723    6.2196  -34.0407 H   0  0  0  0  0  0  0  0  0  0  0  0
   -6.2318    3.1350  -35.4107 H   0  0  0  0  0  0  0  0  0  0  0  0
   -5.3944    4.3543  -39.5471 H   0  0  0  0  0  0  0  0  0  0  0  0
  1  3  1  0  0  0  0
  1  5  1  0  0  0  0
  2  4  1  0  0  0  0
  2  5  1  0  0  0  0
  3  7  1  0  0  0  0
  4  7  1  0  0  0  0
  5  6  1  0  0  0  0
  5  8  1  0  0  0  0
  6  9  1  0  0  0  0
  1 10  1  0  0  0  0
  1 11  1  0  0  0  0
  2 12  1  0  0  0  0
  2 13  1  0  0  0  0
  3 14  1  0  0  0  0
  3 15  1  0  0  0  0
  4 16  1  0  0  0  0
  4 17  1  0  0  0  0
  6 18  1  0  0  0  0
  6 19  1  0  0  0  0
  7 20  1  0  0  0  0
  8 21  1  0  0  0  0
  9 22  1  0  0  0  0
M  END
> <id>
EN300-252520

> <smiles>
OCC1(O)CCNCC1

> <MDLNUMBER>
MFCD13176333

> <IUPAC Name>
4-(hydroxymethyl)piperidin-4-ol

> <CAS>
89584-31-6

> <URL>
https://www.enaminestore.com/catalog/EN300-252520

> <ROCS_ShapeQuery>
hit0

> <ROCS_TanimotoCombo>
1.077 

> <ROCS_ShapeTanimoto>
0.465 

> <ROCS_ColorTanimoto>
0.611 

> <ROCS_RefTversky>
1.250 

> <ROCS_RefColorTversky>
0.815 

> <ROCS_RefTverskyCombo>
2.065 

> <ROCS_FitTversky>
0.426 

> <ROCS_FitColorTversky>
0.710 

> <ROCS_FitTverskyCombo>
1.135 

> <ROCS_ColorScore>
-4.933

> <ROCS_Overlap>
151.908

> <ROCS_Rank>
94                  

$$$$
untitled-dbase-135699_9
  -OEChem-06232314393D

 21 21  0     1  0  0  0  0  0999 V2000
   -6.0021    7.4536  -36.4635 C   0  0  0  0  0  0  0  0  0  0  0  0
   -6.6210    5.1907  -36.2956 C   0  0  2  0  0  0  0  0  0  0  0  0
   -5.1521    5.3274  -36.6484 C   0  0  1  0  0  0  0  0  0  0  0  0
   -6.9401    6.5519  -35.6960 C   0  0  2  0  0  0  0  0  0  0  0  0
   -8.3989    6.9428  -35.8497 C   0  0  0  0  0  0  0  0  0  0  0  0
   -4.7287    4.4321  -37.8008 C   0  0  0  0  0  0  0  0  0  0  0  0
   -6.0850    8.6689  -36.5544 O   0  0  0  0  0  0  0  0  0  0  0  0
   -5.0064    6.7026  -37.0331 O   0  0  0  0  0  0  0  0  0  0  0  0
   -6.8512    4.1369  -35.3818 O   0  0  0  0  0  0  0  0  0  0  0  0
   -6.5742    6.6544  -34.3293 O   0  0  0  0  0  0  0  0  0  0  0  0
   -5.4958    4.7675  -38.9448 O   0  0  0  0  0  0  0  0  0  0  0  0
   -7.2507    4.9766  -37.2039 H   0  0  0  0  0  0  0  0  0  0  0  0
   -4.5158    5.1426  -35.7938 H   0  0  0  0  0  0  0  0  0  0  0  0
   -9.0276    6.2616  -35.2776 H   0  0  0  0  0  0  0  0  0  0  0  0
   -8.6868    6.8952  -36.8992 H   0  0  0  0  0  0  0  0  0  0  0  0
   -8.5511    7.9580  -35.4850 H   0  0  0  0  0  0  0  0  0  0  0  0
   -4.9037    3.3842  -37.5486 H   0  0  0  0  0  0  0  0  0  0  0  0
   -3.6703    4.5801  -38.0250 H   0  0  0  0  0  0  0  0  0  0  0  0
   -6.3403    4.3511  -34.5878 H   0  0  0  0  0  0  0  0  0  0  0  0
   -6.6771    7.5875  -34.0736 H   0  0  0  0  0  0  0  0  0  0  0  0
   -5.3147    5.7014  -39.1440 H   0  0  0  0  0  0  0  0  0  0  0  0
  1  4  1  0  0  0  0
  1  7  2  0  0  0  0
  1  8  1  0  0  0  0
  2  3  1  0  0  0  0
  2  4  1  0  0  0  0
  2  9  1  6  0  0  0
  3  6  1  1  0  0  0
  3  8  1  0  0  0  0
  4  5  1  1  0  0  0
  4 10  1  0  0  0  0
  6 11  1  0  0  0  0
  2 12  1  0  0  0  0
  3 13  1  0  0  0  0
  5 14  1  0  0  0  0
  5 15  1  0  0  0  0
  5 16  1  0  0  0  0
  6 17  1  0  0  0  0
  6 18  1  0  0  0  0
  9 19  1  0  0  0  0
 10 20  1  0  0  0  0
 11 21  1  0  0  0  0
M  END
> <id>
EN300-298462

> <smiles>
C[C@@]1(O)[C@H](O)[C@@H](CO)OC1=O

> <MDLNUMBER>
MFCD07369541

> <IUPAC Name>
(3R,4R,5R)-3,4-dihydroxy-5-(hydroxymethyl)-3-methyloxolan-2-one

> <CAS>
492-30-8

> <Purity>
95

> <URL>
https://www.enaminestore.com/catalog/EN300-298462

> <MP>
152-157

> <ROCS_ShapeQuery>
hit0

> <ROCS_TanimotoCombo>
1.073 

> <ROCS_ShapeTanimoto>
0.414 

> <ROCS_ColorTanimoto>
0.659 

> <ROCS_RefTversky>
1.352 

> <ROCS_RefColorTversky>
0.912 

> <ROCS_RefTverskyCombo>
2.263 

> <ROCS_FitTversky>
0.374 

> <ROCS_FitColorTversky>
0.704 

> <ROCS_FitTverskyCombo>
1.078 

> <ROCS_ColorScore>
-5.561

> <ROCS_Overlap>
171.524

> <ROCS_Rank>
95                  

$$$$
untitled-dbase-102211_20
  -OEChem-06232314393D

 19 19  0     1  0  0  0  0  0999 V2000
   -6.1568    6.9081  -35.6570 C   0  0  0  0  0  0  0  0  0  0  0  0
   -5.3207    6.0678  -37.8742 C   0  0  0  0  0  0  0  0  0  0  0  0
   -6.2230    3.9202  -37.8499 C   0  0  0  0  0  0  0  0  0  0  0  0
   -5.6939    5.7262  -36.4398 C   0  0  2  0  0  0  0  0  0  0  0  0
   -6.7590    4.6648  -36.6451 C   0  0  2  0  0  0  0  0  0  0  0  0
   -6.1816    8.2292  -36.3771 C   0  0  0  0  0  0  0  0  0  0  0  0
   -6.5034    6.8076  -34.4811 O   0  0  0  0  0  0  0  0  0  0  0  0
   -5.5561    4.8909  -38.6643 O   0  0  0  0  0  0  0  0  0  0  0  0
   -6.8780    3.8158  -35.5210 O   0  0  0  0  0  0  0  0  0  0  0  0
   -5.8960    6.8967  -38.2927 H   0  0  0  0  0  0  0  0  0  0  0  0
   -4.2559    6.3035  -37.9557 H   0  0  0  0  0  0  0  0  0  0  0  0
   -5.5142    3.1292  -37.5911 H   0  0  0  0  0  0  0  0  0  0  0  0
   -7.0341    3.4954  -38.4492 H   0  0  0  0  0  0  0  0  0  0  0  0
   -4.7931    5.3193  -35.9109 H   0  0  0  0  0  0  0  0  0  0  0  0
   -7.7641    5.0888  -36.8619 H   0  0  0  0  0  0  0  0  0  0  0  0
   -7.1559    8.3718  -36.8526 H   0  0  0  0  0  0  0  0  0  0  0  0
   -5.4070    8.2407  -37.1479 H   0  0  0  0  0  0  0  0  0  0  0  0
   -6.0151    9.0390  -35.6626 H   0  0  0  0  0  0  0  0  0  0  0  0
   -7.2242    4.3610  -34.7971 H   0  0  0  0  0  0  0  0  0  0  0  0
  1  4  1  6  0  0  0
  1  6  1  0  0  0  0
  1  7  2  0  0  0  0
  2  4  1  0  0  0  0
  2  8  1  0  0  0  0
  3  5  1  0  0  0  0
  3  8  1  0  0  0  0
  4  5  1  0  0  0  0
  5  9  1  1  0  0  0
  2 10  1  0  0  0  0
  2 11  1  0  0  0  0
  3 12  1  0  0  0  0
  3 13  1  0  0  0  0
  4 14  1  0  0  0  0
  5 15  1  0  0  0  0
  6 16  1  0  0  0  0
  6 17  1  0  0  0  0
  6 18  1  0  0  0  0
  9 19  1  0  0  0  0
M  END
> <id>
EN300-1635690

> <smiles>
CC(=O)[C@@H]1COC[C@H]1O |&1:3,7,r|

> <IUPAC Name>
rac-1-[(3R,4S)-4-hydroxyoxolan-3-yl]ethan-1-one

> <CAS>
2227765-08-2

> <URL>
https://www.enaminestore.com/catalog/EN300-1635690

> <ROCS_ShapeQuery>
hit0

> <ROCS_TanimotoCombo>
1.071 

> <ROCS_ShapeTanimoto>
0.513 

> <ROCS_ColorTanimoto>
0.558 

> <ROCS_RefTversky>
1.354 

> <ROCS_RefColorTversky>
0.662 

> <ROCS_RefTverskyCombo>
2.017 

> <ROCS_FitTversky>
0.452 

> <ROCS_FitColorTversky>
0.780 

> <ROCS_FitTverskyCombo>
1.233 

> <ROCS_ColorScore>
-3.940

> <ROCS_Overlap>
165.205

> <ROCS_Rank>
96                  

$$$$
untitled-dbase-10754_41
  -OEChem-06232314393D

 17 17  0     0  0  0  0  0  0999 V2000
   -6.0071    5.1179  -38.0817 C   0  0  0  0  0  0  0  0  0  0  0  0
   -6.7508    5.9545  -37.0240 C   0  0  0  0  0  0  0  0  0  0  0  0
   -4.9890    4.7408  -36.9891 C   0  0  0  0  0  0  0  0  0  0  0  0
   -6.0860    5.0643  -35.9371 C   0  0  0  0  0  0  0  0  0  0  0  0
   -5.5846    5.8110  -34.7116 C   0  0  0  0  0  0  0  0  0  0  0  0
   -6.8692    3.9253  -35.5152 O   0  0  0  0  0  0  0  0  0  0  0  0
   -6.5238    6.8180  -34.3794 O   0  0  0  0  0  0  0  0  0  0  0  0
   -6.5713    4.2864  -38.5091 H   0  0  0  0  0  0  0  0  0  0  0  0
   -5.5799    5.7140  -38.8946 H   0  0  0  0  0  0  0  0  0  0  0  0
   -6.4938    7.0150  -37.0075 H   0  0  0  0  0  0  0  0  0  0  0  0
   -7.8393    5.8546  -37.0727 H   0  0  0  0  0  0  0  0  0  0  0  0
   -4.6933    3.6875  -37.0101 H   0  0  0  0  0  0  0  0  0  0  0  0
   -4.0908    5.3598  -36.9588 H   0  0  0  0  0  0  0  0  0  0  0  0
   -4.6209    6.2752  -34.9248 H   0  0  0  0  0  0  0  0  0  0  0  0
   -5.4822    5.1240  -33.8707 H   0  0  0  0  0  0  0  0  0  0  0  0
   -7.0050    3.3968  -36.3107 H   0  0  0  0  0  0  0  0  0  0  0  0
   -7.3675    6.3712  -34.1953 H   0  0  0  0  0  0  0  0  0  0  0  0
  1  2  1  0  0  0  0
  1  3  1  0  0  0  0
  2  4  1  0  0  0  0
  3  4  1  0  0  0  0
  4  5  1  0  0  0  0
  4  6  1  0  0  0  0
  5  7  1  0  0  0  0
  1  8  1  0  0  0  0
  1  9  1  0  0  0  0
  2 10  1  0  0  0  0
  2 11  1  0  0  0  0
  3 12  1  0  0  0  0
  3 13  1  0  0  0  0
  5 14  1  0  0  0  0
  5 15  1  0  0  0  0
  6 16  1  0  0  0  0
  7 17  1  0  0  0  0
M  END
> <id>
EN300-183332

> <smiles>
OCC1(O)CCC1

> <MDLNUMBER>
MFCD00045403

> <IUPAC Name>
1-(hydroxymethyl)cyclobutan-1-ol

> <CAS>
6970-72-5

> <Purity>
95

> <URL>
https://www.enaminestore.com/catalog/EN300-183332

> <ROCS_ShapeQuery>
hit0

> <ROCS_TanimotoCombo>
1.069 

> <ROCS_ShapeTanimoto>
0.510 

> <ROCS_ColorTanimoto>
0.559 

> <ROCS_RefTversky>
1.124 

> <ROCS_RefColorTversky>
0.663 

> <ROCS_RefTverskyCombo>
1.787 

> <ROCS_FitTversky>
0.483 

> <ROCS_FitColorTversky>
0.781 

> <ROCS_FitTverskyCombo>
1.264 

> <ROCS_ColorScore>
-3.947

> <ROCS_Overlap>
131.631

> <ROCS_Rank>
97                  

$$$$
untitled-dbase-58424_4
  -OEChem-06232314393D

 17 17  0     0  0  0  0  0  0999 V2000
   -5.6196    6.0551  -36.0226 C   0  0  0  0  0  0  0  0  0  0  0  0
   -6.1797    3.7920  -36.4929 C   0  0  0  0  0  0  0  0  0  0  0  0
   -7.0721    4.7912  -34.6265 C   0  0  0  0  0  0  0  0  0  0  0  0
   -5.4899    4.9411  -36.8444 C   0  0  0  0  0  0  0  0  0  0  0  0
   -6.4239    5.9870  -34.8904 C   0  0  0  0  0  0  0  0  0  0  0  0
   -4.6365    4.9815  -38.0617 C   0  0  0  0  0  0  0  0  0  0  0  0
   -6.9703    3.6880  -35.4012 N   0  0  0  0  0  0  0  0  0  0  0  0
   -6.5744    7.0965  -34.0425 N   0  0  0  0  0  0  0  0  0  0  0  0
   -5.4322    4.7100  -39.2107 O   0  0  0  0  0  0  0  0  0  0  0  0
   -5.0938    6.9755  -36.2664 H   0  0  0  0  0  0  0  0  0  0  0  0
   -6.1172    2.8915  -37.0960 H   0  0  0  0  0  0  0  0  0  0  0  0
   -7.7141    4.6774  -33.7580 H   0  0  0  0  0  0  0  0  0  0  0  0
   -4.1624    5.9658  -38.1915 H   0  0  0  0  0  0  0  0  0  0  0  0
   -3.8294    4.2358  -38.0106 H   0  0  0  0  0  0  0  0  0  0  0  0
   -6.0579    7.9353  -34.2305 H   0  0  0  0  0  0  0  0  0  0  0  0
   -7.1220    7.0085  -33.2070 H   0  0  0  0  0  0  0  0  0  0  0  0
   -6.1148    5.3986  -39.2448 H   0  0  0  0  0  0  0  0  0  0  0  0
  1  4  2  0  0  0  0
  1  5  1  0  0  0  0
  2  4  1  0  0  0  0
  2  7  2  0  0  0  0
  3  5  2  0  0  0  0
  3  7  1  0  0  0  0
  4  6  1  0  0  0  0
  5  8  1  0  0  0  0
  6  9  1  0  0  0  0
  1 10  1  0  0  0  0
  2 11  1  0  0  0  0
  3 12  1  0  0  0  0
  6 13  1  0  0  0  0
  6 14  1  0  0  0  0
  8 15  1  0  0  0  0
  8 16  1  0  0  0  0
  9 17  1  0  0  0  0
M  END
> <id>
EN300-198786

> <smiles>
Cl.NC=1C=NC=C(CO)C1

> <MDLNUMBER>
MFCD18384205

> <IUPAC Name>
(5-aminopyridin-3-yl)methanol hydrochloride

> <CAS>
896161-27-6

> <URL>
https://www.enaminestore.com/catalog/EN300-198786

> <ROCS_ShapeQuery>
hit0

> <ROCS_TanimotoCombo>
1.069 

> <ROCS_ShapeTanimoto>
0.492 

> <ROCS_ColorTanimoto>
0.577 

> <ROCS_RefTversky>
1.332 

> <ROCS_RefColorTversky>
0.732 

> <ROCS_RefTverskyCombo>
2.064 

> <ROCS_FitTversky>
0.438 

> <ROCS_FitColorTversky>
0.732 

> <ROCS_FitTverskyCombo>
1.170 

> <ROCS_ColorScore>
-4.391

> <ROCS_Overlap>
162.886

> <ROCS_Rank>
98                  

$$$$
untitled-dbase-159726_4
  -OEChem-06232314393D

 17 17  0     0  0  0  0  0  0999 V2000
   -5.6196    6.0551  -36.0226 C   0  0  0  0  0  0  0  0  0  0  0  0
   -6.1797    3.7920  -36.4929 C   0  0  0  0  0  0  0  0  0  0  0  0
   -7.0721    4.7912  -34.6265 C   0  0  0  0  0  0  0  0  0  0  0  0
   -5.4899    4.9411  -36.8444 C   0  0  0  0  0  0  0  0  0  0  0  0
   -6.4239    5.9870  -34.8904 C   0  0  0  0  0  0  0  0  0  0  0  0
   -4.6365    4.9815  -38.0617 C   0  0  0  0  0  0  0  0  0  0  0  0
   -6.9703    3.6880  -35.4012 N   0  0  0  0  0  0  0  0  0  0  0  0
   -6.5744    7.0965  -34.0425 N   0  0  0  0  0  0  0  0  0  0  0  0
   -5.4322    4.7100  -39.2107 O   0  0  0  0  0  0  0  0  0  0  0  0
   -5.0938    6.9755  -36.2664 H   0  0  0  0  0  0  0  0  0  0  0  0
   -6.1172    2.8915  -37.0960 H   0  0  0  0  0  0  0  0  0  0  0  0
   -7.7141    4.6774  -33.7580 H   0  0  0  0  0  0  0  0  0  0  0  0
   -4.1624    5.9658  -38.1915 H   0  0  0  0  0  0  0  0  0  0  0  0
   -3.8294    4.2358  -38.0106 H   0  0  0  0  0  0  0  0  0  0  0  0
   -6.0579    7.9353  -34.2305 H   0  0  0  0  0  0  0  0  0  0  0  0
   -7.1220    7.0085  -33.2070 H   0  0  0  0  0  0  0  0  0  0  0  0
   -6.1148    5.3986  -39.2448 H   0  0  0  0  0  0  0  0  0  0  0  0
  1  4  2  0  0  0  0
  1  5  1  0  0  0  0
  2  4  1  0  0  0  0
  2  7  2  0  0  0  0
  3  5  2  0  0  0  0
  3  7  1  0  0  0  0
  4  6  1  0  0  0  0
  5  8  1  0  0  0  0
  6  9  1  0  0  0  0
  1 10  1  0  0  0  0
  2 11  1  0  0  0  0
  3 12  1  0  0  0  0
  6 13  1  0  0  0  0
  6 14  1  0  0  0  0
  8 15  1  0  0  0  0
  8 16  1  0  0  0  0
  9 17  1  0  0  0  0
M  END
> <id>
EN300-194278

> <smiles>
NC=1C=NC=C(CO)C1

> <MDLNUMBER>
MFCD07368062

> <IUPAC Name>
(5-aminopyridin-3-yl)methanol

> <CAS>
443649-18-1

> <Purity>
95

> <URL>
https://www.enaminestore.com/catalog/EN300-194278

> <ROCS_ShapeQuery>
hit0

> <ROCS_TanimotoCombo>
1.069 

> <ROCS_ShapeTanimoto>
0.492 

> <ROCS_ColorTanimoto>
0.577 

> <ROCS_RefTversky>
1.332 

> <ROCS_RefColorTversky>
0.732 

> <ROCS_RefTverskyCombo>
2.064 

> <ROCS_FitTversky>
0.438 

> <ROCS_FitColorTversky>
0.732 

> <ROCS_FitTverskyCombo>
1.170 

> <ROCS_ColorScore>
-4.391

> <ROCS_Overlap>
162.886

> <ROCS_Rank>
99                  

$$$$
untitled-dbase-55538_4
  -OEChem-06232314393D

 17 17  0     0  0  0  0  0  0999 V2000
   -5.6196    6.0551  -36.0226 C   0  0  0  0  0  0  0  0  0  0  0  0
   -6.1797    3.7920  -36.4929 C   0  0  0  0  0  0  0  0  0  0  0  0
   -7.0721    4.7912  -34.6265 C   0  0  0  0  0  0  0  0  0  0  0  0
   -5.4899    4.9411  -36.8444 C   0  0  0  0  0  0  0  0  0  0  0  0
   -6.4239    5.9870  -34.8904 C   0  0  0  0  0  0  0  0  0  0  0  0
   -4.6365    4.9815  -38.0617 C   0  0  0  0  0  0  0  0  0  0  0  0
   -6.9703    3.6880  -35.4012 N   0  0  0  0  0  0  0  0  0  0  0  0
   -6.5744    7.0965  -34.0425 N   0  0  0  0  0  0  0  0  0  0  0  0
   -5.4322    4.7100  -39.2107 O   0  0  0  0  0  0  0  0  0  0  0  0
   -5.0938    6.9755  -36.2664 H   0  0  0  0  0  0  0  0  0  0  0  0
   -6.1172    2.8915  -37.0960 H   0  0  0  0  0  0  0  0  0  0  0  0
   -7.7141    4.6774  -33.7580 H   0  0  0  0  0  0  0  0  0  0  0  0
   -4.1624    5.9658  -38.1915 H   0  0  0  0  0  0  0  0  0  0  0  0
   -3.8294    4.2358  -38.0106 H   0  0  0  0  0  0  0  0  0  0  0  0
   -6.0579    7.9353  -34.2305 H   0  0  0  0  0  0  0  0  0  0  0  0
   -7.1220    7.0085  -33.2070 H   0  0  0  0  0  0  0  0  0  0  0  0
   -6.1148    5.3986  -39.2448 H   0  0  0  0  0  0  0  0  0  0  0  0
  1  4  2  0  0  0  0
  1  5  1  0  0  0  0
  2  4  1  0  0  0  0
  2  7  2  0  0  0  0
  3  5  2  0  0  0  0
  3  7  1  0  0  0  0
  4  6  1  0  0  0  0
  5  8  1  0  0  0  0
  6  9  1  0  0  0  0
  1 10  1  0  0  0  0
  2 11  1  0  0  0  0
  3 12  1  0  0  0  0
  6 13  1  0  0  0  0
  6 14  1  0  0  0  0
  8 15  1  0  0  0  0
  8 16  1  0  0  0  0
  9 17  1  0  0  0  0
M  END
> <id>
EN300-198536

> <smiles>
Cl.Cl.NC=1C=NC=C(CO)C1

> <MDLNUMBER>
MFCD28246364

> <IUPAC Name>
(5-aminopyridin-3-yl)methanol dihydrochloride

> <CAS>
1803566-02-0

> <URL>
https://www.enaminestore.com/catalog/EN300-198536

> <Saltdate>
Cl

> <ROCS_ShapeQuery>
hit0

> <ROCS_TanimotoCombo>
1.069 

> <ROCS_ShapeTanimoto>
0.492 

> <ROCS_ColorTanimoto>
0.577 

> <ROCS_RefTversky>
1.332 

> <ROCS_RefColorTversky>
0.732 

> <ROCS_RefTverskyCombo>
2.064 

> <ROCS_FitTversky>
0.438 

> <ROCS_FitColorTversky>
0.732 

> <ROCS_FitTverskyCombo>
1.170 

> <ROCS_ColorScore>
-4.391

> <ROCS_Overlap>
162.886

> <ROCS_Rank>
100                 

$$$$
untitled-dbase-18710_0
  -OEChem-06232314393D

 14 14  0     1  0  0  0  0  0999 V2000
   -6.1245    4.9043  -37.6075 C   0  0  0  0  0  0  0  0  0  0  0  0
   -6.3984    7.5597  -35.6121 C   0  0  0  0  0  0  0  0  0  0  0  0
   -6.8692    6.8328  -34.3833 C   0  0  0  0  0  0  0  0  0  0  0  0
   -6.1087    6.0933  -35.4489 C   0  0  0  0  0  0  0  0  0  0  0  0
   -6.8018    5.0914  -36.3059 C   0  0  2  0  0  0  0  0  0  0  0  0
   -5.5793    4.7726  -38.6234 N   0  0  0  0  0  0  0  0  0  0  0  0
   -6.8449    3.8309  -35.6219 O   0  0  0  0  0  0  0  0  0  0  0  0
   -7.1457    7.8637  -36.3346 H   0  0  0  0  0  0  0  0  0  0  0  0
   -5.5723    8.2516  -35.5029 H   0  0  0  0  0  0  0  0  0  0  0  0
   -6.3587    7.0370  -33.4501 H   0  0  0  0  0  0  0  0  0  0  0  0
   -7.9320    6.6502  -34.2827 H   0  0  0  0  0  0  0  0  0  0  0  0
   -5.0880    5.8042  -35.2295 H   0  0  0  0  0  0  0  0  0  0  0  0
   -7.8516    5.3877  -36.4874 H   0  0  0  0  0  0  0  0  0  0  0  0
   -7.2930    3.9987  -34.7815 H   0  0  0  0  0  0  0  0  0  0  0  0
  1  5  1  0  0  0  0
  1  6  3  0  0  0  0
  2  3  1  0  0  0  0
  2  4  1  0  0  0  0
  3  4  1  0  0  0  0
  4  5  1  0  0  0  0
  5  7  1  0  0  0  0
  2  8  1  0  0  0  0
  2  9  1  0  0  0  0
  3 10  1  0  0  0  0
  3 11  1  0  0  0  0
  4 12  1  0  0  0  0
  5 13  1  0  0  0  0
  7 14  1  0  0  0  0
M  END
> <id>
EN300-96207

> <smiles>
OC(C#N)C1CC1

> <MDLNUMBER>
MFCD14622836

> <IUPAC Name>
2-cyclopropyl-2-hydroxyacetonitrile

> <CAS>
5648-87-3

> <Purity>
95

> <URL>
https://www.enaminestore.com/catalog/EN300-96207

> <ROCS_ShapeQuery>
hit0

> <ROCS_TanimotoCombo>
1.065 

> <ROCS_ShapeTanimoto>
0.579 

> <ROCS_ColorTanimoto>
0.486 

> <ROCS_RefTversky>
1.209 

> <ROCS_RefColorTversky>
0.503 

> <ROCS_RefTverskyCombo>
1.713 

> <ROCS_FitTversky>
0.526 

> <ROCS_FitColorTversky>
0.935 

> <ROCS_FitTverskyCombo>
1.461 

> <ROCS_ColorScore>
-2.945

> <ROCS_Overlap>
141.355

> <ROCS_Rank>
101                 

$$$$
untitled-dbase-76837_102
  -OEChem-06232314393D

 21 21  0     0  0  0  0  0  0999 V2000
   -7.8884    4.7443  -34.9683 C   0  0  0  0  0  0  0  0  0  0  0  0
   -7.4127    5.8012  -33.9722 C   0  0  0  0  0  0  0  0  0  0  0  0
   -5.6428    4.5665  -35.8602 C   0  0  0  0  0  0  0  0  0  0  0  0
   -6.5282    6.9887  -35.8695 C   0  0  0  0  0  0  0  0  0  0  0  0
   -5.7690    5.8894  -36.6324 C   0  0  0  0  0  0  0  0  0  0  0  0
   -6.3680    5.6863  -38.0238 C   0  0  0  0  0  0  0  0  0  0  0  0
   -6.8644    3.9256  -35.5182 O   0  0  0  0  0  0  0  0  0  0  0  0
   -6.4806    6.7656  -34.4663 O   0  0  0  0  0  0  0  0  0  0  0  0
   -5.5180    4.8233  -38.7544 O   0  0  0  0  0  0  0  0  0  0  0  0
   -8.5893    4.0624  -34.4547 H   0  0  0  0  0  0  0  0  0  0  0  0
   -8.4559    5.2090  -35.7976 H   0  0  0  0  0  0  0  0  0  0  0  0
   -8.3052    6.3879  -33.6287 H   0  0  0  0  0  0  0  0  0  0  0  0
   -7.0149    5.3330  -33.0252 H   0  0  0  0  0  0  0  0  0  0  0  0
   -4.9618    3.8452  -36.3852 H   0  0  0  0  0  0  0  0  0  0  0  0
   -5.1300    4.7591  -34.8871 H   0  0  0  0  0  0  0  0  0  0  0  0
   -6.1055    7.9529  -36.0883 H   0  0  0  0  0  0  0  0  0  0  0  0
   -7.5685    6.9860  -36.1437 H   0  0  0  0  0  0  0  0  0  0  0  0
   -4.7282    6.2697  -36.7851 H   0  0  0  0  0  0  0  0  0  0  0  0
   -6.4405    6.6439  -38.5366 H   0  0  0  0  0  0  0  0  0  0  0  0
   -7.3553    5.2359  -37.9375 H   0  0  0  0  0  0  0  0  0  0  0  0
   -5.9155    4.7068  -39.6346 H   0  0  0  0  0  0  0  0  0  0  0  0
  1  2  1  0  0  0  0
  1  7  1  0  0  0  0
  2  8  1  0  0  0  0
  3  5  1  0  0  0  0
  3  7  1  0  0  0  0
  4  5  1  0  0  0  0
  4  8  1  0  0  0  0
  5  6  1  0  0  0  0
  6  9  1  0  0  0  0
  1 10  1  0  0  0  0
  1 11  1  0  0  0  0
  2 12  1  0  0  0  0
  2 13  1  0  0  0  0
  3 14  1  0  0  0  0
  3 15  1  0  0  0  0
  4 16  1  0  0  0  0
  4 17  1  0  0  0  0
  5 18  1  0  0  0  0
  6 19  1  0  0  0  0
  6 20  1  0  0  0  0
  9 21  1  0  0  0  0
M  END
> <id>
EN300-1695564

> <smiles>
OCC1COCCOC1

> <MDLNUMBER>
MFCD22394048

> <IUPAC Name>
(1,4-dioxepan-6-yl)methanol

> <CAS>
1010836-47-1

> <Purity>
95

> <URL>
https://www.enaminestore.com/catalog/EN300-1695564

> <ROCS_ShapeQuery>
hit0

> <ROCS_TanimotoCombo>
1.065 

> <ROCS_ShapeTanimoto>
0.507 

> <ROCS_ColorTanimoto>
0.558 

> <ROCS_RefTversky>
1.317 

> <ROCS_RefColorTversky>
0.662 

> <ROCS_RefTverskyCombo>
1.980 

> <ROCS_FitTversky>
0.451 

> <ROCS_FitColorTversky>
0.780 

> <ROCS_FitTverskyCombo>
1.232 

> <ROCS_ColorScore>
-3.941

> <ROCS_Overlap>
159.900

> <ROCS_Rank>
102                 

$$$$
untitled-dbase-90071_4
  -OEChem-06232314393D

 16 16  0     1  0  0  0  0  0999 V2000
   -6.5828    6.0062  -34.8878 C   0  0  0  0  0  0  0  0  0  0  0  0
   -5.9295    5.9298  -36.2278 C   0  0  0  0  0  0  0  0  0  0  0  0
   -7.2683    4.7208  -34.5371 C   0  0  0  0  0  0  0  0  0  0  0  0
   -6.6136    4.6828  -36.7586 C   0  0  1  0  0  0  0  0  0  0  0  0
   -5.7724    3.9227  -37.7658 C   0  0  0  0  0  0  0  0  0  0  0  0
   -6.5484    6.9879  -34.1585 O   0  0  0  0  0  0  0  0  0  0  0  0
   -6.8384    3.8609  -35.6028 O   0  0  0  0  0  0  0  0  0  0  0  0
   -5.5063    4.7680  -38.8738 O   0  0  0  0  0  0  0  0  0  0  0  0
   -6.1337    6.8092  -36.8412 H   0  0  0  0  0  0  0  0  0  0  0  0
   -4.8546    5.7898  -36.0813 H   0  0  0  0  0  0  0  0  0  0  0  0
   -6.9184    4.3201  -33.5847 H   0  0  0  0  0  0  0  0  0  0  0  0
   -8.3540    4.8351  -34.5685 H   0  0  0  0  0  0  0  0  0  0  0  0
   -7.5900    4.9282  -37.1961 H   0  0  0  0  0  0  0  0  0  0  0  0
   -6.3069    3.0361  -38.1169 H   0  0  0  0  0  0  0  0  0  0  0  0
   -4.8235    3.6174  -37.3170 H   0  0  0  0  0  0  0  0  0  0  0  0
   -4.9679    4.2541  -39.4983 H   0  0  0  0  0  0  0  0  0  0  0  0
  1  2  1  0  0  0  0
  1  3  1  0  0  0  0
  1  6  2  0  0  0  0
  2  4  1  0  0  0  0
  3  7  1  0  0  0  0
  4  5  1  0  0  0  0
  4  7  1  0  0  0  0
  5  8  1  0  0  0  0
  2  9  1  0  0  0  0
  2 10  1  0  0  0  0
  3 11  1  0  0  0  0
  3 12  1  0  0  0  0
  4 13  1  0  0  0  0
  5 14  1  0  0  0  0
  5 15  1  0  0  0  0
  8 16  1  0  0  0  0
M  END
> <id>
EN300-1661059

> <smiles>
OCC1CC(=O)CO1

> <MDLNUMBER>
MFCD31737195

> <IUPAC Name>
5-(hydroxymethyl)oxolan-3-one

> <CAS>
58534-89-7

> <Purity>
95

> <URL>
https://www.enaminestore.com/catalog/EN300-1661059

> <ROCS_ShapeQuery>
hit0

> <ROCS_TanimotoCombo>
1.064 

> <ROCS_ShapeTanimoto>
0.507 

> <ROCS_ColorTanimoto>
0.558 

> <ROCS_RefTversky>
1.244 

> <ROCS_RefColorTversky>
0.662 

> <ROCS_RefTverskyCombo>
1.906 

> <ROCS_FitTversky>
0.461 

> <ROCS_FitColorTversky>
0.780 

> <ROCS_FitTverskyCombo>
1.241 

> <ROCS_ColorScore>
-3.939

> <ROCS_Overlap>
149.018

> <ROCS_Rank>
103                 

$$$$
untitled-dbase-92262_9
  -OEChem-06232314393D

 16 16  0     0  0  0  0  0  0999 V2000
   -6.8793    5.8438  -34.5688 C   0  0  0  0  0  0  0  0  0  0  0  0
   -5.5304    7.4651  -35.4168 C   0  0  0  0  0  0  0  0  0  0  0  0
   -6.4429    4.9418  -35.5176 C   0  0  0  0  0  0  0  0  0  0  0  0
   -5.5071    5.4213  -36.4113 C   0  0  0  0  0  0  0  0  0  0  0  0
   -4.9605    4.5369  -37.4840 C   0  0  0  0  0  0  0  0  0  0  0  0
   -6.4426    7.1179  -34.4890 N   0  0  0  0  0  0  0  0  0  0  0  0
   -5.0272    6.6821  -36.3900 N   0  0  0  0  0  0  0  0  0  0  0  0
   -6.9302    3.6300  -35.5545 N   0  0  0  0  0  0  0  0  0  0  0  0
   -5.5439    4.8940  -38.7302 O   0  0  0  0  0  0  0  0  0  0  0  0
   -7.6145    5.5671  -33.8194 H   0  0  0  0  0  0  0  0  0  0  0  0
   -5.1623    8.4829  -35.3760 H   0  0  0  0  0  0  0  0  0  0  0  0
   -3.8701    4.6351  -37.5642 H   0  0  0  0  0  0  0  0  0  0  0  0
   -5.1835    3.4822  -37.2773 H   0  0  0  0  0  0  0  0  0  0  0  0
   -6.6310    3.0075  -36.2847 H   0  0  0  0  0  0  0  0  0  0  0  0
   -7.6464    3.3463  -34.9088 H   0  0  0  0  0  0  0  0  0  0  0  0
   -5.1646    4.2994  -39.3974 H   0  0  0  0  0  0  0  0  0  0  0  0
  1  3  2  0  0  0  0
  1  6  1  0  0  0  0
  2  6  2  0  0  0  0
  2  7  1  0  0  0  0
  3  4  1  0  0  0  0
  3  8  1  0  0  0  0
  4  5  1  0  0  0  0
  4  7  2  0  0  0  0
  5  9  1  0  0  0  0
  1 10  1  0  0  0  0
  2 11  1  0  0  0  0
  5 12  1  0  0  0  0
  5 13  1  0  0  0  0
  8 14  1  0  0  0  0
  8 15  1  0  0  0  0
  9 16  1  0  0  0  0
M  END
> <id>
EN300-6985772

> <smiles>
NC=1C=NC=NC1CO

> <MDLNUMBER>
MFCD28099487

> <IUPAC Name>
(5-aminopyrimidin-4-yl)methanol

> <CAS>
1554422-56-8

> <Purity>
95

> <URL>
https://www.enaminestore.com/catalog/EN300-6985772

> <ROCS_ShapeQuery>
hit0

> <ROCS_TanimotoCombo>
1.064 

> <ROCS_ShapeTanimoto>
0.470 

> <ROCS_ColorTanimoto>
0.593 

> <ROCS_RefTversky>
1.308 

> <ROCS_RefColorTversky>
0.801 

> <ROCS_RefTverskyCombo>
2.109 

> <ROCS_FitTversky>
0.423 

> <ROCS_FitColorTversky>
0.696 

> <ROCS_FitTverskyCombo>
1.120 

> <ROCS_ColorScore>
-4.845

> <ROCS_Overlap>
160.520

> <ROCS_Rank>
104                 

$$$$
untitled-dbase-82135_3
  -OEChem-06232314393D

 15 14  0     0  0  0  0  0  0999 V2000
   -6.1783    5.4543  -35.6177 C   0  0  0  0  0  0  0  0  0  0  0  0
   -6.0255    7.8516  -34.8192 C   0  0  0  0  0  0  0  0  0  0  0  0
   -4.7250    4.8374  -37.5906 C   0  0  0  0  0  0  0  0  0  0  0  0
   -6.5300    6.4929  -34.7769 N   0  0  0  0  0  0  0  0  0  0  0  0
   -5.2478    5.7553  -36.5965 N   0  0  0  0  0  0  0  0  0  0  0  0
   -5.5494    4.8871  -38.7406 O   0  0  0  0  0  0  0  0  0  0  0  0
   -6.8939    3.9507  -35.3852 S   0  0  0  0  0  0  0  0  0  0  0  0
   -5.1310    7.9310  -34.1839 H   0  0  0  0  0  0  0  0  0  0  0  0
   -5.7639    8.1133  -35.8550 H   0  0  0  0  0  0  0  0  0  0  0  0
   -6.7991    8.5414  -34.4509 H   0  0  0  0  0  0  0  0  0  0  0  0
   -4.7186    3.8199  -37.1893 H   0  0  0  0  0  0  0  0  0  0  0  0
   -3.7090    5.1362  -37.8630 H   0  0  0  0  0  0  0  0  0  0  0  0
   -7.2115    6.2821  -34.0542 H   0  0  0  0  0  0  0  0  0  0  0  0
   -4.8758    6.6972  -36.6342 H   0  0  0  0  0  0  0  0  0  0  0  0
   -6.4422    4.6246  -38.4598 H   0  0  0  0  0  0  0  0  0  0  0  0
  1  4  1  0  0  0  0
  1  5  1  0  0  0  0
  1  7  2  0  0  0  0
  2  4  1  0  0  0  0
  3  5  1  0  0  0  0
  3  6  1  0  0  0  0
  2  8  1  0  0  0  0
  2  9  1  0  0  0  0
  2 10  1  0  0  0  0
  3 11  1  0  0  0  0
  3 12  1  0  0  0  0
  4 13  1  0  0  0  0
  5 14  1  0  0  0  0
  6 15  1  0  0  0  0
M  END
> <id>
EN300-7577233

> <smiles>
CNC(=S)NCO

> <MDLNUMBER>
MFCD00866765

> <IUPAC Name>
3-(hydroxymethyl)-1-methylthiourea

> <CAS>
15599-39-0

> <URL>
https://www.enaminestore.com/catalog/EN300-7577233

> <ROCS_ShapeQuery>
hit0

> <ROCS_TanimotoCombo>
1.063 

> <ROCS_ShapeTanimoto>
0.572 

> <ROCS_ColorTanimoto>
0.491 

> <ROCS_RefTversky>
1.151 

> <ROCS_RefColorTversky>
0.610 

> <ROCS_RefTverskyCombo>
1.761 

> <ROCS_FitTversky>
0.532 

> <ROCS_FitColorTversky>
0.716 

> <ROCS_FitTverskyCombo>
1.248 

> <ROCS_ColorScore>
-3.627

> <ROCS_Overlap>
133.481

> <ROCS_Rank>
105                 

$$$$
untitled-dbase-10356_12
  -OEChem-06232314393D

 14 13  0     1  0  0  0  0  0999 V2000
   -6.6759    6.1395  -35.1311 C   0  0  0  0  0  0  0  0  0  0  0  0
   -5.8657    4.3285  -38.2721 C   0  0  0  0  0  0  0  0  0  0  0  0
   -5.8623    5.1916  -37.2429 C   0  0  0  0  0  0  0  0  0  0  0  0
   -4.8038    6.2564  -37.1335 C   0  0  0  0  0  0  0  0  0  0  0  0
   -6.9085    5.1120  -36.1555 C   0  0  1  0  0  0  0  0  0  0  0  0
   -6.4968    6.9507  -34.3207 N   0  0  0  0  0  0  0  0  0  0  0  0
   -6.8735    3.8138  -35.5668 O   0  0  0  0  0  0  0  0  0  0  0  0
   -6.6234    3.5572  -38.3613 H   0  0  0  0  0  0  0  0  0  0  0  0
   -5.1096    4.3717  -39.0490 H   0  0  0  0  0  0  0  0  0  0  0  0
   -5.1210    7.1726  -37.6416 H   0  0  0  0  0  0  0  0  0  0  0  0
   -4.6016    6.4918  -36.0838 H   0  0  0  0  0  0  0  0  0  0  0  0
   -3.8575    5.9419  -37.5867 H   0  0  0  0  0  0  0  0  0  0  0  0
   -7.9119    5.2430  -36.5781 H   0  0  0  0  0  0  0  0  0  0  0  0
   -5.9922    3.7123  -35.1757 H   0  0  0  0  0  0  0  0  0  0  0  0
  1  5  1  0  0  0  0
  1  6  3  0  0  0  0
  2  3  2  0  0  0  0
  3  4  1  0  0  0  0
  3  5  1  0  0  0  0
  5  7  1  0  0  0  0
  2  8  1  0  0  0  0
  2  9  1  0  0  0  0
  4 10  1  0  0  0  0
  4 11  1  0  0  0  0
  4 12  1  0  0  0  0
  5 13  1  0  0  0  0
  7 14  1  0  0  0  0
M  END
> <id>
EN300-157371

> <smiles>
CC(=C)C(O)C#N

> <MDLNUMBER>
MFCD24493791

> <IUPAC Name>
2-hydroxy-3-methylbut-3-enenitrile

> <CAS>
22410-56-6

> <Purity>
95

> <URL>
https://www.enaminestore.com/catalog/EN300-157371

> <ROCS_ShapeQuery>
hit0

> <ROCS_TanimotoCombo>
1.063 

> <ROCS_ShapeTanimoto>
0.564 

> <ROCS_ColorTanimoto>
0.499 

> <ROCS_RefTversky>
1.171 

> <ROCS_RefColorTversky>
0.512 

> <ROCS_RefTverskyCombo>
1.683 

> <ROCS_FitTversky>
0.521 

> <ROCS_FitColorTversky>
0.951 

> <ROCS_FitTverskyCombo>
1.472 

> <ROCS_ColorScore>
-2.997

> <ROCS_Overlap>
136.450

> <ROCS_Rank>
106                 

$$$$
untitled-dbase-12979_4
  -OEChem-06232314393D

 14 14  0     0  0  0  0  0  0999 V2000
   -5.8401    5.0879  -37.5819 C   0  0  0  0  0  0  0  0  0  0  0  0
   -7.3380    4.5083  -35.6387 C   0  0  0  0  0  0  0  0  0  0  0  0
   -5.9250    4.2505  -35.2056 C   0  0  0  0  0  0  0  0  0  0  0  0
   -6.2136    5.3399  -36.2141 C   0  0  0  0  0  0  0  0  0  0  0  0
   -6.0901    6.7688  -35.7666 C   0  0  0  0  0  0  0  0  0  0  0  0
   -5.5392    4.8850  -38.6839 N   0  0  0  0  0  0  0  0  0  0  0  0
   -6.4990    6.8766  -34.4074 O   0  0  0  0  0  0  0  0  0  0  0  0
   -7.8148    3.7634  -36.2657 H   0  0  0  0  0  0  0  0  0  0  0  0
   -8.0079    4.9680  -34.9212 H   0  0  0  0  0  0  0  0  0  0  0  0
   -5.6487    4.5367  -34.1973 H   0  0  0  0  0  0  0  0  0  0  0  0
   -5.4569    3.3324  -35.5422 H   0  0  0  0  0  0  0  0  0  0  0  0
   -6.7264    7.4286  -36.3713 H   0  0  0  0  0  0  0  0  0  0  0  0
   -5.0521    7.1188  -35.8431 H   0  0  0  0  0  0  0  0  0  0  0  0
   -6.4036    7.8104  -34.1616 H   0  0  0  0  0  0  0  0  0  0  0  0
  1  4  1  0  0  0  0
  1  6  3  0  0  0  0
  2  3  1  0  0  0  0
  2  4  1  0  0  0  0
  3  4  1  0  0  0  0
  4  5  1  0  0  0  0
  5  7  1  0  0  0  0
  2  8  1  0  0  0  0
  2  9  1  0  0  0  0
  3 10  1  0  0  0  0
  3 11  1  0  0  0  0
  5 12  1  0  0  0  0
  5 13  1  0  0  0  0
  7 14  1  0  0  0  0
M  END
> <id>
EN300-109460

> <smiles>
OCC1(CC1)C#N

> <MDLNUMBER>
MFCD11042632

> <IUPAC Name>
1-(hydroxymethyl)cyclopropane-1-carbonitrile

> <CAS>
98730-77-9

> <Purity>
95

> <URL>
https://www.enaminestore.com/catalog/EN300-109460

> <ROCS_ShapeQuery>
hit0

> <ROCS_TanimotoCombo>
1.063 

> <ROCS_ShapeTanimoto>
0.571 

> <ROCS_ColorTanimoto>
0.492 

> <ROCS_RefTversky>
1.208 

> <ROCS_RefColorTversky>
0.507 

> <ROCS_RefTverskyCombo>
1.715 

> <ROCS_FitTversky>
0.520 

> <ROCS_FitColorTversky>
0.942 

> <ROCS_FitTverskyCombo>
1.462 

> <ROCS_ColorScore>
-2.967

> <ROCS_Overlap>
141.371

> <ROCS_Rank>
107                 

$$$$
untitled-dbase-71303_5
  -OEChem-06232314393D

 20 20  0     1  0  0  0  0  0999 V2000
   -6.7438    6.5003  -36.6633 C   0  0  2  0  0  0  0  0  0  0  0  0
   -6.9974    6.0585  -35.2360 C   0  0  1  0  0  0  0  0  0  0  0  0
   -5.2608    6.2056  -36.8169 C   0  0  2  0  0  0  0  0  0  0  0  0
   -6.1411    4.8038  -35.1575 C   0  0  2  0  0  0  0  0  0  0  0  0
   -4.8455    5.9414  -38.2533 C   0  0  0  0  0  0  0  0  0  0  0  0
   -5.0069    5.0376  -36.0160 O   0  0  0  0  0  0  0  0  0  0  0  0
   -7.0389    7.8625  -36.8866 O   0  0  0  0  0  0  0  0  0  0  0  0
   -6.4849    7.0155  -34.3145 O   0  0  0  0  0  0  0  0  0  0  0  0
   -6.8980    3.6934  -35.6240 O   0  0  0  0  0  0  0  0  0  0  0  0
   -5.5563    4.8127  -38.7350 O   0  0  0  0  0  0  0  0  0  0  0  0
   -7.3381    5.8898  -37.3534 H   0  0  0  0  0  0  0  0  0  0  0  0
   -8.0580    5.8981  -35.0233 H   0  0  0  0  0  0  0  0  0  0  0  0
   -4.6521    7.0274  -36.4182 H   0  0  0  0  0  0  0  0  0  0  0  0
   -5.7824    4.5982  -34.1434 H   0  0  0  0  0  0  0  0  0  0  0  0
   -3.7739    5.7360  -38.3064 H   0  0  0  0  0  0  0  0  0  0  0  0
   -5.0806    6.8041  -38.8809 H   0  0  0  0  0  0  0  0  0  0  0  0
   -6.8465    8.0510  -37.8223 H   0  0  0  0  0  0  0  0  0  0  0  0
   -6.9460    7.8493  -34.4960 H   0  0  0  0  0  0  0  0  0  0  0  0
   -6.3211    2.9156  -35.5590 H   0  0  0  0  0  0  0  0  0  0  0  0
   -5.3219    4.0643  -38.1611 H   0  0  0  0  0  0  0  0  0  0  0  0
  1  2  1  0  0  0  0
  1  3  1  0  0  0  0
  1  7  1  1  0  0  0
  2  4  1  0  0  0  0
  2  8  1  1  0  0  0
  3  5  1  6  0  0  0
  3  6  1  0  0  0  0
  4  6  1  0  0  0  0
  4  9  1  0  0  0  0
  5 10  1  0  0  0  0
  1 11  1  0  0  0  0
  2 12  1  0  0  0  0
  3 13  1  0  0  0  0
  4 14  1  0  0  0  0
  5 15  1  0  0  0  0
  5 16  1  0  0  0  0
  7 17  1  0  0  0  0
  8 18  1  0  0  0  0
  9 19  1  0  0  0  0
 10 20  1  0  0  0  0
M  END
> <id>
EN300-96289

> <smiles>
OC[C@@H]1OC(O)[C@@H](O)[C@H]1O

> <MDLNUMBER>
MFCD00069685

> <IUPAC Name>
(3S,4R,5S)-5-(hydroxymethyl)oxolane-2,3,4-triol

> <CAS>
41546-21-8

> <Purity>
91

> <URL>
https://www.enaminestore.com/catalog/EN300-96289

> <MP>
88-90

> <ROCS_ShapeQuery>
hit0

> <ROCS_TanimotoCombo>
1.063 

> <ROCS_ShapeTanimoto>
0.474 

> <ROCS_ColorTanimoto>
0.589 

> <ROCS_RefTversky>
1.378 

> <ROCS_RefColorTversky>
0.957 

> <ROCS_RefTverskyCombo>
2.335 

> <ROCS_FitTversky>
0.419 

> <ROCS_FitColorTversky>
0.605 

> <ROCS_FitTverskyCombo>
1.024 

> <ROCS_ColorScore>
-5.933

> <ROCS_Overlap>
171.195

> <ROCS_Rank>
108                 

$$$$
untitled-dbase-136372_82
  -OEChem-06232314393D

 20 20  0     1  0  0  0  0  0999 V2000
   -4.5890    4.5169  -35.7085 C   0  0  0  0  0  0  0  0  0  0  0  0
   -4.0572    5.7371  -35.8361 C   0  0  0  0  0  0  0  0  0  0  0  0
   -5.8561    4.1271  -36.4013 C   0  0  2  0  0  0  0  0  0  0  0  0
   -6.2721    5.1813  -37.4305 C   0  0  1  0  0  0  0  0  0  0  0  0
   -5.9545    6.6175  -36.9767 C   0  0  1  0  0  0  0  0  0  0  0  0
   -6.8988    7.1326  -35.8916 C   0  0  0  0  0  0  0  0  0  0  0  0
   -4.5959    6.7850  -36.5303 O   0  0  0  0  0  0  0  0  0  0  0  0
   -6.8889    3.9703  -35.4341 O   0  0  0  0  0  0  0  0  0  0  0  0
   -5.5513    4.9190  -38.6391 O   0  0  0  0  0  0  0  0  0  0  0  0
   -6.4868    6.5992  -34.6467 O   0  0  0  0  0  0  0  0  0  0  0  0
   -4.1000    3.7859  -35.0661 H   0  0  0  0  0  0  0  0  0  0  0  0
   -3.1232    6.0265  -35.3705 H   0  0  0  0  0  0  0  0  0  0  0  0
   -5.7133    3.1433  -36.8802 H   0  0  0  0  0  0  0  0  0  0  0  0
   -7.3416    5.0774  -37.6679 H   0  0  0  0  0  0  0  0  0  0  0  0
   -6.0905    7.3039  -37.8603 H   0  0  0  0  0  0  0  0  0  0  0  0
   -7.9179    6.8101  -36.1030 H   0  0  0  0  0  0  0  0  0  0  0  0
   -6.8576    8.2207  -35.8495 H   0  0  0  0  0  0  0  0  0  0  0  0
   -6.9837    4.8273  -34.9906 H   0  0  0  0  0  0  0  0  0  0  0  0
   -4.6090    4.9851  -38.4191 H   0  0  0  0  0  0  0  0  0  0  0  0
   -5.5764    6.9045  -34.4922 H   0  0  0  0  0  0  0  0  0  0  0  0
  1  2  2  0  0  0  0
  1  3  1  0  0  0  0
  2  7  1  0  0  0  0
  3  4  1  0  0  0  0
  3  8  1  1  0  0  0
  4  5  1  0  0  0  0
  4  9  1  6  0  0  0
  5  6  1  1  0  0  0
  5  7  1  0  0  0  0
  6 10  1  0  0  0  0
  1 11  1  0  0  0  0
  2 12  1  0  0  0  0
  3 13  1  0  0  0  0
  4 14  1  0  0  0  0
  5 15  1  0  0  0  0
  6 16  1  0  0  0  0
  6 17  1  0  0  0  0
  8 18  1  0  0  0  0
  9 19  1  0  0  0  0
 10 20  1  0  0  0  0
M  END
> <id>
EN300-7377904

> <smiles>
OC[C@H]1OC=C[C@@H](O)[C@@H]1O

> <MDLNUMBER>
MFCD09039277

> <IUPAC Name>
(2R,3S,4R)-2-(hydroxymethyl)-3,4-dihydro-2H-pyran-3,4-diol

> <CAS>
13265-84-4

> <Purity>
95

> <URL>
https://www.enaminestore.com/catalog/EN300-7377904

> <MP>
58-60

> <ROCS_ShapeQuery>
hit0

> <ROCS_TanimotoCombo>
1.063 

> <ROCS_ShapeTanimoto>
0.417 

> <ROCS_ColorTanimoto>
0.645 

> <ROCS_RefTversky>
1.256 

> <ROCS_RefColorTversky>
0.900 

> <ROCS_RefTverskyCombo>
2.156 

> <ROCS_FitTversky>
0.385 

> <ROCS_FitColorTversky>
0.695 

> <ROCS_FitTverskyCombo>
1.080 

> <ROCS_ColorScore>
-5.491

> <ROCS_Overlap>
155.771

> <ROCS_Rank>
109                 

$$$$
untitled-dbase-156773_62
  -OEChem-06232314393D

 17 17  0     0  0  0  0  0  0999 V2000
   -5.0995    6.1792  -36.6844 C   0  0  0  0  0  0  0  0  0  0  0  0
   -7.1694    5.9254  -37.1847 C   0  0  0  0  0  0  0  0  0  0  0  0
   -5.9044    5.0494  -37.3764 C   0  0  0  0  0  0  0  0  0  0  0  0
   -6.4190    6.7235  -36.0979 C   0  0  0  0  0  0  0  0  0  0  0  0
   -5.9168    3.7288  -36.6165 C   0  0  0  0  0  0  0  0  0  0  0  0
   -5.5351    4.8090  -38.7510 O   0  0  0  0  0  0  0  0  0  0  0  0
   -6.8698    3.8165  -35.5722 O   0  0  0  0  0  0  0  0  0  0  0  0
   -6.6817    6.3510  -34.8239 F   0  0  0  0  0  0  0  0  0  0  0  0
   -6.5706    8.0655  -36.1495 F   0  0  0  0  0  0  0  0  0  0  0  0
   -4.3638    5.8572  -35.9416 H   0  0  0  0  0  0  0  0  0  0  0  0
   -4.6110    6.8728  -37.3786 H   0  0  0  0  0  0  0  0  0  0  0  0
   -7.4376    6.5256  -38.0617 H   0  0  0  0  0  0  0  0  0  0  0  0
   -8.0644    5.4025  -36.8348 H   0  0  0  0  0  0  0  0  0  0  0  0
   -4.9325    3.5343  -36.1889 H   0  0  0  0  0  0  0  0  0  0  0  0
   -6.1925    2.9140  -37.2869 H   0  0  0  0  0  0  0  0  0  0  0  0
   -4.6021    4.5647  -38.7284 H   0  0  0  0  0  0  0  0  0  0  0  0
   -7.7321    3.9889  -35.9872 H   0  0  0  0  0  0  0  0  0  0  0  0
  1  3  1  0  0  0  0
  1  4  1  0  0  0  0
  2  3  1  0  0  0  0
  2  4  1  0  0  0  0
  3  5  1  0  0  0  0
  3  6  1  0  0  0  0
  4  8  1  0  0  0  0
  4  9  1  0  0  0  0
  5  7  1  0  0  0  0
  1 10  1  0  0  0  0
  1 11  1  0  0  0  0
  2 12  1  0  0  0  0
  2 13  1  0  0  0  0
  5 14  1  0  0  0  0
  5 15  1  0  0  0  0
  6 16  1  0  0  0  0
  7 17  1  0  0  0  0
M  END
> <id>
EN300-5932641

> <smiles>
OCC1(O)CC(F)(F)C1

> <MDLNUMBER>
MFCD31705680

> <IUPAC Name>
3,3-difluoro-1-(hydroxymethyl)cyclobutan-1-ol

> <CAS>
2231674-33-0

> <Purity>
95

> <URL>
https://www.enaminestore.com/catalog/EN300-5932641

> <ROCS_ShapeQuery>
hit0

> <ROCS_TanimotoCombo>
1.062 

> <ROCS_ShapeTanimoto>
0.493 

> <ROCS_ColorTanimoto>
0.569 

> <ROCS_RefTversky>
1.321 

> <ROCS_RefColorTversky>
0.671 

> <ROCS_RefTverskyCombo>
1.992 

> <ROCS_FitTversky>
0.440 

> <ROCS_FitColorTversky>
0.790 

> <ROCS_FitTverskyCombo>
1.230 

> <ROCS_ColorScore>
-3.991

> <ROCS_Overlap>
161.160

> <ROCS_Rank>
110                 

$$$$
untitled-dbase-168610_135
  -OEChem-06232314393D

 22 22  0     1  0  0  0  0  0999 V2000
   -8.4764    5.7784  -35.0730 C   0  0  0  0  0  0  0  0  0  0  0  0
   -6.4474    6.1579  -36.5458 C   0  0  0  0  0  0  0  0  0  0  0  0
   -7.9942    4.3512  -34.7811 C   0  0  0  0  0  0  0  0  0  0  0  0
   -7.3204    6.7150  -35.4118 C   0  0  2  0  0  0  0  0  0  0  0  0
   -6.7013    4.6638  -36.8204 C   0  0  1  0  0  0  0  0  0  0  0  0
   -5.5634    4.0702  -37.6497 C   0  0  0  0  0  0  0  0  0  0  0  0
   -6.8250    3.9366  -35.5591 N   0  0  0  0  0  0  0  0  0  0  0  0
   -6.5185    6.9165  -34.2474 O   0  0  0  0  0  0  0  0  0  0  0  0
   -5.4985    4.7621  -38.8826 O   0  0  0  0  0  0  0  0  0  0  0  0
   -9.2001    5.7657  -35.9002 H   0  0  0  0  0  0  0  0  0  0  0  0
   -9.0321    6.1689  -34.2066 H   0  0  0  0  0  0  0  0  0  0  0  0
   -6.6251    6.7474  -37.4616 H   0  0  0  0  0  0  0  0  0  0  0  0
   -5.3832    6.3303  -36.3033 H   0  0  0  0  0  0  0  0  0  0  0  0
   -7.7514    4.2656  -33.7042 H   0  0  0  0  0  0  0  0  0  0  0  0
   -8.8228    3.6327  -34.9459 H   0  0  0  0  0  0  0  0  0  0  0  0
   -7.7197    7.7017  -35.7060 H   0  0  0  0  0  0  0  0  0  0  0  0
   -7.6316    4.5569  -37.3928 H   0  0  0  0  0  0  0  0  0  0  0  0
   -5.7540    3.0142  -37.8372 H   0  0  0  0  0  0  0  0  0  0  0  0
   -4.6189    4.1867  -37.1195 H   0  0  0  0  0  0  0  0  0  0  0  0
   -5.9827    4.0893  -34.9955 H   0  0  0  0  0  0  0  0  0  0  0  0
   -5.7984    7.5146  -34.5042 H   0  0  0  0  0  0  0  0  0  0  0  0
   -4.7697    4.3693  -39.3931 H   0  0  0  0  0  0  0  0  0  0  0  0
  1  3  1  0  0  0  0
  1  4  1  0  0  0  0
  2  4  1  0  0  0  0
  2  5  1  0  0  0  0
  3  7  1  0  0  0  0
  4  8  1  6  0  0  0
  5  6  1  6  0  0  0
  5  7  1  0  0  0  0
  6  9  1  0  0  0  0
  1 10  1  0  0  0  0
  1 11  1  0  0  0  0
  2 12  1  0  0  0  0
  2 13  1  0  0  0  0
  3 14  1  0  0  0  0
  3 15  1  0  0  0  0
  4 16  1  0  0  0  0
  5 17  1  0  0  0  0
  6 18  1  0  0  0  0
  6 19  1  0  0  0  0
  7 20  1  0  0  0  0
  8 21  1  0  0  0  0
  9 22  1  0  0  0  0
M  END
> <id>
EN300-2513760

> <smiles>
OC[C@@H]1C[C@H](O)CCN1

> <MDLNUMBER>
MFCD19220583

> <IUPAC Name>
(2S,4R)-2-(hydroxymethyl)piperidin-4-ol

> <CAS>
955082-77-6

> <URL>
https://www.enaminestore.com/catalog/EN300-2513760

> <ROCS_ShapeQuery>
hit0

> <ROCS_TanimotoCombo>
1.060 

> <ROCS_ShapeTanimoto>
0.446 

> <ROCS_ColorTanimoto>
0.614 

> <ROCS_RefTversky>
1.203 

> <ROCS_RefColorTversky>
0.817 

> <ROCS_RefTverskyCombo>
2.020 

> <ROCS_FitTversky>
0.415 

> <ROCS_FitColorTversky>
0.711 

> <ROCS_FitTverskyCombo>
1.127 

> <ROCS_ColorScore>
-4.945

> <ROCS_Overlap>
145.781

> <ROCS_Rank>
111                 

$$$$
untitled-dbase-105121_135
  -OEChem-06232314393D

 22 22  0     1  0  0  0  0  0999 V2000
   -8.4764    5.7784  -35.0730 C   0  0  0  0  0  0  0  0  0  0  0  0
   -6.4474    6.1579  -36.5458 C   0  0  0  0  0  0  0  0  0  0  0  0
   -7.9942    4.3512  -34.7811 C   0  0  0  0  0  0  0  0  0  0  0  0
   -7.3204    6.7150  -35.4118 C   0  0  2  0  0  0  0  0  0  0  0  0
   -6.7013    4.6638  -36.8204 C   0  0  1  0  0  0  0  0  0  0  0  0
   -5.5634    4.0702  -37.6497 C   0  0  0  0  0  0  0  0  0  0  0  0
   -6.8250    3.9366  -35.5591 N   0  0  0  0  0  0  0  0  0  0  0  0
   -6.5185    6.9165  -34.2474 O   0  0  0  0  0  0  0  0  0  0  0  0
   -5.4985    4.7621  -38.8826 O   0  0  0  0  0  0  0  0  0  0  0  0
   -9.2001    5.7657  -35.9002 H   0  0  0  0  0  0  0  0  0  0  0  0
   -9.0321    6.1689  -34.2066 H   0  0  0  0  0  0  0  0  0  0  0  0
   -6.6251    6.7474  -37.4616 H   0  0  0  0  0  0  0  0  0  0  0  0
   -5.3832    6.3303  -36.3033 H   0  0  0  0  0  0  0  0  0  0  0  0
   -7.7514    4.2656  -33.7042 H   0  0  0  0  0  0  0  0  0  0  0  0
   -8.8228    3.6327  -34.9459 H   0  0  0  0  0  0  0  0  0  0  0  0
   -7.7197    7.7017  -35.7060 H   0  0  0  0  0  0  0  0  0  0  0  0
   -7.6316    4.5569  -37.3928 H   0  0  0  0  0  0  0  0  0  0  0  0
   -5.7540    3.0142  -37.8372 H   0  0  0  0  0  0  0  0  0  0  0  0
   -4.6189    4.1867  -37.1195 H   0  0  0  0  0  0  0  0  0  0  0  0
   -5.9827    4.0893  -34.9955 H   0  0  0  0  0  0  0  0  0  0  0  0
   -5.7984    7.5146  -34.5042 H   0  0  0  0  0  0  0  0  0  0  0  0
   -4.7697    4.3693  -39.3931 H   0  0  0  0  0  0  0  0  0  0  0  0
  1  3  1  0  0  0  0
  1  4  1  0  0  0  0
  2  4  1  0  0  0  0
  2  5  1  0  0  0  0
  3  7  1  0  0  0  0
  4  8  1  6  0  0  0
  5  6  1  6  0  0  0
  5  7  1  0  0  0  0
  6  9  1  0  0  0  0
  1 10  1  0  0  0  0
  1 11  1  0  0  0  0
  2 12  1  0  0  0  0
  2 13  1  0  0  0  0
  3 14  1  0  0  0  0
  3 15  1  0  0  0  0
  4 16  1  0  0  0  0
  5 17  1  0  0  0  0
  6 18  1  0  0  0  0
  6 19  1  0  0  0  0
  7 20  1  0  0  0  0
  8 21  1  0  0  0  0
  9 22  1  0  0  0  0
M  END
> <id>
EN300-26682610

> <smiles>
Cl.OC[C@@H]1C[C@H](O)CCN1 |&1:3,5,r|

> <MDLNUMBER>
MFCD32690914

> <IUPAC Name>
rac-(2R,4S)-2-(hydroxymethyl)piperidin-4-ol hydrochloride

> <CAS>
955082-77-6

> <Purity>
95

> <URL>
https://www.enaminestore.com/catalog/EN300-26682610

> <Saltdate>
Cl

> <ROCS_ShapeQuery>
hit0

> <ROCS_TanimotoCombo>
1.060 

> <ROCS_ShapeTanimoto>
0.446 

> <ROCS_ColorTanimoto>
0.614 

> <ROCS_RefTversky>
1.203 

> <ROCS_RefColorTversky>
0.817 

> <ROCS_RefTverskyCombo>
2.020 

> <ROCS_FitTversky>
0.415 

> <ROCS_FitColorTversky>
0.711 

> <ROCS_FitTverskyCombo>
1.127 

> <ROCS_ColorScore>
-4.945

> <ROCS_Overlap>
145.781

> <ROCS_Rank>
112                 

$$$$
untitled-dbase-168231_135
  -OEChem-06232314393D

 22 22  0     1  0  0  0  0  0999 V2000
   -8.4764    5.7784  -35.0730 C   0  0  0  0  0  0  0  0  0  0  0  0
   -6.4474    6.1579  -36.5458 C   0  0  0  0  0  0  0  0  0  0  0  0
   -7.9942    4.3512  -34.7811 C   0  0  0  0  0  0  0  0  0  0  0  0
   -7.3204    6.7150  -35.4118 C   0  0  2  0  0  0  0  0  0  0  0  0
   -6.7013    4.6638  -36.8204 C   0  0  1  0  0  0  0  0  0  0  0  0
   -5.5634    4.0702  -37.6497 C   0  0  0  0  0  0  0  0  0  0  0  0
   -6.8250    3.9366  -35.5591 N   0  0  0  0  0  0  0  0  0  0  0  0
   -6.5185    6.9165  -34.2474 O   0  0  0  0  0  0  0  0  0  0  0  0
   -5.4985    4.7621  -38.8826 O   0  0  0  0  0  0  0  0  0  0  0  0
   -9.2001    5.7657  -35.9002 H   0  0  0  0  0  0  0  0  0  0  0  0
   -9.0321    6.1689  -34.2066 H   0  0  0  0  0  0  0  0  0  0  0  0
   -6.6251    6.7474  -37.4616 H   0  0  0  0  0  0  0  0  0  0  0  0
   -5.3832    6.3303  -36.3033 H   0  0  0  0  0  0  0  0  0  0  0  0
   -7.7514    4.2656  -33.7042 H   0  0  0  0  0  0  0  0  0  0  0  0
   -8.8228    3.6327  -34.9459 H   0  0  0  0  0  0  0  0  0  0  0  0
   -7.7197    7.7017  -35.7060 H   0  0  0  0  0  0  0  0  0  0  0  0
   -7.6316    4.5569  -37.3928 H   0  0  0  0  0  0  0  0  0  0  0  0
   -5.7540    3.0142  -37.8372 H   0  0  0  0  0  0  0  0  0  0  0  0
   -4.6189    4.1867  -37.1195 H   0  0  0  0  0  0  0  0  0  0  0  0
   -5.9827    4.0893  -34.9955 H   0  0  0  0  0  0  0  0  0  0  0  0
   -5.7984    7.5146  -34.5042 H   0  0  0  0  0  0  0  0  0  0  0  0
   -4.7697    4.3693  -39.3931 H   0  0  0  0  0  0  0  0  0  0  0  0
  1  3  1  0  0  0  0
  1  4  1  0  0  0  0
  2  4  1  0  0  0  0
  2  5  1  0  0  0  0
  3  7  1  0  0  0  0
  4  8  1  6  0  0  0
  5  6  1  6  0  0  0
  5  7  1  0  0  0  0
  6  9  1  0  0  0  0
  1 10  1  0  0  0  0
  1 11  1  0  0  0  0
  2 12  1  0  0  0  0
  2 13  1  0  0  0  0
  3 14  1  0  0  0  0
  3 15  1  0  0  0  0
  4 16  1  0  0  0  0
  5 17  1  0  0  0  0
  6 18  1  0  0  0  0
  6 19  1  0  0  0  0
  7 20  1  0  0  0  0
  8 21  1  0  0  0  0
  9 22  1  0  0  0  0
M  END
> <id>
EN300-7098264

> <smiles>
OC[C@@H]1C[C@H](O)CCN1 |&1:2,4,r|

> <MDLNUMBER>
MFCD30543742

> <IUPAC Name>
rac-(2R,4S)-2-(hydroxymethyl)piperidin-4-ol

> <CAS>
531503-05-6

> <URL>
https://www.enaminestore.com/catalog/EN300-7098264

> <ROCS_ShapeQuery>
hit0

> <ROCS_TanimotoCombo>
1.060 

> <ROCS_ShapeTanimoto>
0.446 

> <ROCS_ColorTanimoto>
0.614 

> <ROCS_RefTversky>
1.203 

> <ROCS_RefColorTversky>
0.817 

> <ROCS_RefTverskyCombo>
2.020 

> <ROCS_FitTversky>
0.415 

> <ROCS_FitColorTversky>
0.711 

> <ROCS_FitTverskyCombo>
1.127 

> <ROCS_ColorScore>
-4.945

> <ROCS_Overlap>
145.781

> <ROCS_Rank>
113                 

$$$$
untitled-dbase-172553_5
  -OEChem-06232314393D

 16 16  0     0  0  0  0  0  0999 V2000
   -4.9622    6.7625  -36.3855 C   0  0  0  0  0  0  0  0  0  0  0  0
   -5.4497    5.4683  -36.4336 C   0  0  0  0  0  0  0  0  0  0  0  0
   -6.3873    5.0957  -35.4915 C   0  0  0  0  0  0  0  0  0  0  0  0
   -5.4449    7.5985  -35.3987 C   0  0  0  0  0  0  0  0  0  0  0  0
   -4.9552    4.5331  -37.4838 C   0  0  0  0  0  0  0  0  0  0  0  0
   -6.8418    5.9349  -34.5369 N   0  0  0  0  0  0  0  0  0  0  0  0
   -6.3629    7.2070  -34.4899 N   0  0  0  0  0  0  0  0  0  0  0  0
   -6.8976    3.7770  -35.5243 N   0  0  0  0  0  0  0  0  0  0  0  0
   -5.5437    4.8716  -38.7339 O   0  0  0  0  0  0  0  0  0  0  0  0
   -4.9105    9.2186  -35.2489 Cl  0  0  0  0  0  0  0  0  0  0  0  0
   -4.2234    7.1064  -37.1027 H   0  0  0  0  0  0  0  0  0  0  0  0
   -3.8622    4.5851  -37.5855 H   0  0  0  0  0  0  0  0  0  0  0  0
   -5.2133    3.4925  -37.2429 H   0  0  0  0  0  0  0  0  0  0  0  0
   -6.6043    3.1627  -36.2541 H   0  0  0  0  0  0  0  0  0  0  0  0
   -7.6098    3.5177  -34.8750 H   0  0  0  0  0  0  0  0  0  0  0  0
   -5.1964    4.2415  -39.3853 H   0  0  0  0  0  0  0  0  0  0  0  0
  1  2  2  0  0  0  0
  1  4  1  0  0  0  0
  2  3  1  0  0  0  0
  2  5  1  0  0  0  0
  3  6  2  0  0  0  0
  3  8  1  0  0  0  0
  4  7  2  0  0  0  0
  4 10  1  0  0  0  0
  5  9  1  0  0  0  0
  6  7  1  0  0  0  0
  1 11  1  0  0  0  0
  5 12  1  0  0  0  0
  5 13  1  0  0  0  0
  8 14  1  0  0  0  0
  8 15  1  0  0  0  0
  9 16  1  0  0  0  0
M  END
> <id>
EN300-37395531

> <smiles>
NC=1N=NC(Cl)=CC1CO

> <IUPAC Name>
(3-amino-6-chloropyridazin-4-yl)methanol

> <CAS>
2254506-69-7

> <URL>
https://www.enaminestore.com/catalog/EN300-37395531

> <ROCS_ShapeQuery>
hit0

> <ROCS_TanimotoCombo>
1.060 

> <ROCS_ShapeTanimoto>
0.422 

> <ROCS_ColorTanimoto>
0.638 

> <ROCS_RefTversky>
1.277 

> <ROCS_RefColorTversky>
0.856 

> <ROCS_RefTverskyCombo>
2.132 

> <ROCS_FitTversky>
0.386 

> <ROCS_FitColorTversky>
0.715 

> <ROCS_FitTverskyCombo>
1.102 

> <ROCS_ColorScore>
-5.190

> <ROCS_Overlap>
158.760

> <ROCS_Rank>
114                 

$$$$
untitled-dbase-137407_6
  -OEChem-06232314393D

 18 18  0     0  0  0  0  0  0999 V2000
   -6.2758    7.9409  -35.8995 C   0  0  0  0  0  0  0  0  0  0  0  0
   -7.1844    7.4416  -34.9664 C   0  0  0  0  0  0  0  0  0  0  0  0
   -5.5634    7.0641  -36.7176 C   0  0  0  0  0  0  0  0  0  0  0  0
   -7.3806    6.0654  -34.8513 C   0  0  0  0  0  0  0  0  0  0  0  0
   -5.7596    5.6879  -36.6025 C   0  0  0  0  0  0  0  0  0  0  0  0
   -6.6682    5.1885  -35.6694 C   0  0  0  0  0  0  0  0  0  0  0  0
   -4.9830    4.7718  -37.4916 C   0  0  0  0  0  0  0  0  0  0  0  0
   -6.8797    3.7984  -35.5390 N   0  0  0  0  0  0  0  0  0  0  0  0
   -5.5288    4.8162  -38.8033 O   0  0  0  0  0  0  0  0  0  0  0  0
   -6.1231    9.0125  -35.9889 H   0  0  0  0  0  0  0  0  0  0  0  0
   -7.7391    8.1245  -34.3295 H   0  0  0  0  0  0  0  0  0  0  0  0
   -4.8578    7.4633  -37.4415 H   0  0  0  0  0  0  0  0  0  0  0  0
   -8.0913    5.6879  -34.1205 H   0  0  0  0  0  0  0  0  0  0  0  0
   -3.9262    5.0645  -37.5391 H   0  0  0  0  0  0  0  0  0  0  0  0
   -5.0243    3.7382  -37.1248 H   0  0  0  0  0  0  0  0  0  0  0  0
   -6.4041    3.1742  -36.1574 H   0  0  0  0  0  0  0  0  0  0  0  0
   -7.5703    3.4702  -34.8959 H   0  0  0  0  0  0  0  0  0  0  0  0
   -4.9995    4.2110  -39.3474 H   0  0  0  0  0  0  0  0  0  0  0  0
  1  2  2  0  0  0  0
  1  3  1  0  0  0  0
  2  4  1  0  0  0  0
  3  5  2  0  0  0  0
  4  6  2  0  0  0  0
  5  6  1  0  0  0  0
  5  7  1  0  0  0  0
  6  8  1  0  0  0  0
  7  9  1  0  0  0  0
  1 10  1  0  0  0  0
  2 11  1  0  0  0  0
  3 12  1  0  0  0  0
  4 13  1  0  0  0  0
  7 14  1  0  0  0  0
  7 15  1  0  0  0  0
  8 16  1  0  0  0  0
  8 17  1  0  0  0  0
  9 18  1  0  0  0  0
M  END
> <id>
EN300-21387

> <smiles>
NC=1C=CC=CC1CO

> <MDLNUMBER>
MFCD00007749

> <IUPAC Name>
(2-aminophenyl)methanol

> <CAS>
5344-90-1

> <Purity>
95

> <URL>
https://www.enaminestore.com/catalog/EN300-21387

> <MP>
81-84

> <ROCS_ShapeQuery>
hit0

> <ROCS_TanimotoCombo>
1.060 

> <ROCS_ShapeTanimoto>
0.489 

> <ROCS_ColorTanimoto>
0.571 

> <ROCS_RefTversky>
1.320 

> <ROCS_RefColorTversky>
0.672 

> <ROCS_RefTverskyCombo>
1.992 

> <ROCS_FitTversky>
0.437 

> <ROCS_FitColorTversky>
0.792 

> <ROCS_FitTverskyCombo>
1.229 

> <ROCS_ColorScore>
-3.999

> <ROCS_Overlap>
161.291

> <ROCS_Rank>
115                 

$$$$
untitled-dbase-91200_47
  -OEChem-06232314393D

 25 25  0     1  0  0  0  0  0999 V2000
   -7.4546    6.5387  -36.4437 C   0  0  0  0  0  0  0  0  0  0  0  0
   -4.9232    5.1415  -34.7885 C   0  0  0  0  0  0  0  0  0  0  0  0
   -7.1810    7.4846  -35.2764 C   0  0  0  0  0  0  0  0  0  0  0  0
   -5.1901    6.5552  -34.2793 C   0  0  0  0  0  0  0  0  0  0  0  0
   -6.2439    5.7321  -36.9553 C   0  0  1  0  0  0  0  0  0  0  0  0
   -5.7643    4.6454  -35.9710 C   0  0  2  0  0  0  0  0  0  0  0  0
   -6.6399    5.0691  -38.2855 C   0  0  0  0  0  0  0  0  0  0  0  0
   -6.6076    6.8502  -34.0894 N   0  0  0  0  0  0  0  0  0  0  0  0
   -6.8902    3.9155  -35.4770 O   0  0  0  0  0  0  0  0  0  0  0  0
   -5.4565    4.7415  -38.9845 O   0  0  0  0  0  0  0  0  0  0  0  0
   -8.2730    5.8535  -36.1775 H   0  0  0  0  0  0  0  0  0  0  0  0
   -7.8383    7.1417  -37.2797 H   0  0  0  0  0  0  0  0  0  0  0  0
   -3.8529    5.0225  -35.0269 H   0  0  0  0  0  0  0  0  0  0  0  0
   -5.1031    4.4614  -33.9383 H   0  0  0  0  0  0  0  0  0  0  0  0
   -6.5892    8.3736  -35.5945 H   0  0  0  0  0  0  0  0  0  0  0  0
   -8.1593    7.9133  -34.9694 H   0  0  0  0  0  0  0  0  0  0  0  0
   -4.6988    6.6893  -33.3279 H   0  0  0  0  0  0  0  0  0  0  0  0
   -4.7681    7.2583  -34.9809 H   0  0  0  0  0  0  0  0  0  0  0  0
   -5.4330    6.4051  -37.1499 H   0  0  0  0  0  0  0  0  0  0  0  0
   -5.1546    3.9198  -36.5297 H   0  0  0  0  0  0  0  0  0  0  0  0
   -7.2330    5.7638  -38.8743 H   0  0  0  0  0  0  0  0  0  0  0  0
   -7.2094    4.1655  -38.0849 H   0  0  0  0  0  0  0  0  0  0  0  0
   -6.7139    7.4505  -33.2934 H   0  0  0  0  0  0  0  0  0  0  0  0
   -7.3988    4.5290  -34.9232 H   0  0  0  0  0  0  0  0  0  0  0  0
   -5.7226    4.3236  -39.8223 H   0  0  0  0  0  0  0  0  0  0  0  0
  1  3  1  0  0  0  0
  1  5  1  0  0  0  0
  2  4  1  0  0  0  0
  2  6  1  0  0  0  0
  3  8  1  0  0  0  0
  4  8  1  0  0  0  0
  5  6  1  0  0  0  0
  5  7  1  0  0  0  0
  6  9  1  0  0  0  0
  7 10  1  0  0  0  0
  1 11  1  0  0  0  0
  1 12  1  0  0  0  0
  2 13  1  0  0  0  0
  2 14  1  0  0  0  0
  3 15  1  0  0  0  0
  3 16  1  0  0  0  0
  4 17  1  0  0  0  0
  4 18  1  0  0  0  0
  5 19  1  0  0  0  0
  6 20  1  0  0  0  0
  7 21  1  0  0  0  0
  7 22  1  0  0  0  0
  8 23  1  0  0  0  0
  9 24  1  0  0  0  0
 10 25  1  0  0  0  0
M  END
> <id>
EN300-7353672

> <smiles>
OCC1CCNCCC1O.OC(=O)C(F)(F)F

> <MDLNUMBER>
MFCD31915312

> <IUPAC Name>
5-(hydroxymethyl)azepan-4-ol; trifluoroacetic acid

> <CAS>
2309468-22-0

> <Purity>
95

> <URL>
https://www.enaminestore.com/catalog/EN300-7353672

> <Saltdate>
OC(=O)C(F)(F)F

> <ROCS_ShapeQuery>
hit0

> <ROCS_TanimotoCombo>
1.060 

> <ROCS_ShapeTanimoto>
0.471 

> <ROCS_ColorTanimoto>
0.588 

> <ROCS_RefTversky>
1.332 

> <ROCS_RefColorTversky>
0.796 

> <ROCS_RefTverskyCombo>
2.127 

> <ROCS_FitTversky>
0.422 

> <ROCS_FitColorTversky>
0.693 

> <ROCS_FitTverskyCombo>
1.115 

> <ROCS_ColorScore>
-4.814

> <ROCS_Overlap>
164.062

> <ROCS_Rank>
116                 

$$$$
untitled-dbase-92385_47
  -OEChem-06232314393D

 25 25  0     1  0  0  0  0  0999 V2000
   -7.4546    6.5387  -36.4437 C   0  0  0  0  0  0  0  0  0  0  0  0
   -4.9232    5.1415  -34.7885 C   0  0  0  0  0  0  0  0  0  0  0  0
   -7.1810    7.4846  -35.2764 C   0  0  0  0  0  0  0  0  0  0  0  0
   -5.1901    6.5552  -34.2793 C   0  0  0  0  0  0  0  0  0  0  0  0
   -6.2439    5.7321  -36.9553 C   0  0  1  0  0  0  0  0  0  0  0  0
   -5.7643    4.6454  -35.9710 C   0  0  2  0  0  0  0  0  0  0  0  0
   -6.6399    5.0691  -38.2855 C   0  0  0  0  0  0  0  0  0  0  0  0
   -6.6076    6.8502  -34.0894 N   0  0  0  0  0  0  0  0  0  0  0  0
   -6.8902    3.9155  -35.4770 O   0  0  0  0  0  0  0  0  0  0  0  0
   -5.4565    4.7415  -38.9845 O   0  0  0  0  0  0  0  0  0  0  0  0
   -8.2730    5.8535  -36.1775 H   0  0  0  0  0  0  0  0  0  0  0  0
   -7.8383    7.1417  -37.2797 H   0  0  0  0  0  0  0  0  0  0  0  0
   -3.8529    5.0225  -35.0269 H   0  0  0  0  0  0  0  0  0  0  0  0
   -5.1031    4.4614  -33.9383 H   0  0  0  0  0  0  0  0  0  0  0  0
   -6.5892    8.3736  -35.5945 H   0  0  0  0  0  0  0  0  0  0  0  0
   -8.1593    7.9133  -34.9694 H   0  0  0  0  0  0  0  0  0  0  0  0
   -4.6988    6.6893  -33.3279 H   0  0  0  0  0  0  0  0  0  0  0  0
   -4.7681    7.2583  -34.9809 H   0  0  0  0  0  0  0  0  0  0  0  0
   -5.4330    6.4051  -37.1499 H   0  0  0  0  0  0  0  0  0  0  0  0
   -5.1546    3.9198  -36.5297 H   0  0  0  0  0  0  0  0  0  0  0  0
   -7.2330    5.7638  -38.8743 H   0  0  0  0  0  0  0  0  0  0  0  0
   -7.2094    4.1655  -38.0849 H   0  0  0  0  0  0  0  0  0  0  0  0
   -6.7139    7.4505  -33.2934 H   0  0  0  0  0  0  0  0  0  0  0  0
   -7.3988    4.5290  -34.9232 H   0  0  0  0  0  0  0  0  0  0  0  0
   -5.7226    4.3236  -39.8223 H   0  0  0  0  0  0  0  0  0  0  0  0
  1  3  1  0  0  0  0
  1  5  1  0  0  0  0
  2  4  1  0  0  0  0
  2  6  1  0  0  0  0
  3  8  1  0  0  0  0
  4  8  1  0  0  0  0
  5  6  1  0  0  0  0
  5  7  1  0  0  0  0
  6  9  1  0  0  0  0
  7 10  1  0  0  0  0
  1 11  1  0  0  0  0
  1 12  1  0  0  0  0
  2 13  1  0  0  0  0
  2 14  1  0  0  0  0
  3 15  1  0  0  0  0
  3 16  1  0  0  0  0
  4 17  1  0  0  0  0
  4 18  1  0  0  0  0
  5 19  1  0  0  0  0
  6 20  1  0  0  0  0
  7 21  1  0  0  0  0
  7 22  1  0  0  0  0
  8 23  1  0  0  0  0
  9 24  1  0  0  0  0
 10 25  1  0  0  0  0
M  END
> <id>
EN300-7178617

> <smiles>
OCC1CCNCCC1O

> <MDLNUMBER>
MFCD24530967

> <IUPAC Name>
5-(hydroxymethyl)azepan-4-ol

> <CAS>
1784371-93-2

> <URL>
https://www.enaminestore.com/catalog/EN300-7178617

> <ROCS_ShapeQuery>
hit0

> <ROCS_TanimotoCombo>
1.060 

> <ROCS_ShapeTanimoto>
0.471 

> <ROCS_ColorTanimoto>
0.588 

> <ROCS_RefTversky>
1.332 

> <ROCS_RefColorTversky>
0.796 

> <ROCS_RefTverskyCombo>
2.127 

> <ROCS_FitTversky>
0.422 

> <ROCS_FitColorTversky>
0.693 

> <ROCS_FitTverskyCombo>
1.115 

> <ROCS_ColorScore>
-4.814

> <ROCS_Overlap>
164.062

> <ROCS_Rank>
117                 

$$$$
untitled-dbase-53227_8
  -OEChem-06232314393D

 19 19  0     1  0  0  0  0  0999 V2000
   -6.8781    6.9440  -35.7488 C   0  0  0  0  0  0  0  0  0  0  0  0
   -6.0655    6.2206  -38.0204 C   0  0  0  0  0  0  0  0  0  0  0  0
   -5.7505    3.9490  -37.6173 C   0  0  0  0  0  0  0  0  0  0  0  0
   -6.8417    5.8516  -36.7644 C   0  0  1  0  0  0  0  0  0  0  0  0
   -6.0963    4.6135  -36.3013 C   0  0  1  0  0  0  0  0  0  0  0  0
   -7.5174    8.2393  -36.1708 C   0  0  0  0  0  0  0  0  0  0  0  0
   -6.4104    6.7927  -34.6213 O   0  0  0  0  0  0  0  0  0  0  0  0
   -5.5258    5.0033  -38.5592 O   0  0  0  0  0  0  0  0  0  0  0  0
   -6.9089    3.7799  -35.4990 O   0  0  0  0  0  0  0  0  0  0  0  0
   -6.7284    6.6470  -38.7798 H   0  0  0  0  0  0  0  0  0  0  0  0
   -5.2464    6.9217  -37.8388 H   0  0  0  0  0  0  0  0  0  0  0  0
   -4.8216    3.3752  -37.5433 H   0  0  0  0  0  0  0  0  0  0  0  0
   -6.5444    3.2997  -37.9963 H   0  0  0  0  0  0  0  0  0  0  0  0
   -7.9024    5.6246  -37.0362 H   0  0  0  0  0  0  0  0  0  0  0  0
   -5.1736    4.8473  -35.7259 H   0  0  0  0  0  0  0  0  0  0  0  0
   -8.5861    8.2155  -35.9399 H   0  0  0  0  0  0  0  0  0  0  0  0
   -7.3915    8.3761  -37.2476 H   0  0  0  0  0  0  0  0  0  0  0  0
   -7.0570    9.0688  -35.6286 H   0  0  0  0  0  0  0  0  0  0  0  0
   -7.0866    4.2699  -34.6808 H   0  0  0  0  0  0  0  0  0  0  0  0
  1  4  1  0  0  0  0
  1  6  1  0  0  0  0
  1  7  2  0  0  0  0
  2  4  1  0  0  0  0
  2  8  1  0  0  0  0
  3  5  1  0  0  0  0
  3  8  1  0  0  0  0
  4  5  1  0  0  0  0
  5  9  1  0  0  0  0
  2 10  1  0  0  0  0
  2 11  1  0  0  0  0
  3 12  1  0  0  0  0
  3 13  1  0  0  0  0
  4 14  1  0  0  0  0
  5 15  1  0  0  0  0
  6 16  1  0  0  0  0
  6 17  1  0  0  0  0
  6 18  1  0  0  0  0
  9 19  1  0  0  0  0
M  END
> <id>
EN300-1635674

> <smiles>
CC(=O)C1COCC1O

> <MDLNUMBER>
MFCD32761162

> <IUPAC Name>
1-(4-hydroxyoxolan-3-yl)ethan-1-one

> <CAS>
2172475-42-0

> <URL>
https://www.enaminestore.com/catalog/EN300-1635674

> <ROCS_ShapeQuery>
hit0

> <ROCS_TanimotoCombo>
1.059 

> <ROCS_ShapeTanimoto>
0.531 

> <ROCS_ColorTanimoto>
0.528 

> <ROCS_RefTversky>
1.386 

> <ROCS_RefColorTversky>
0.639 

> <ROCS_RefTverskyCombo>
2.026 

> <ROCS_FitTversky>
0.462 

> <ROCS_FitColorTversky>
0.753 

> <ROCS_FitTverskyCombo>
1.215 

> <ROCS_ColorScore>
-3.803

> <ROCS_Overlap>
169.149

> <ROCS_Rank>
118                 

$$$$
untitled-dbase-105510_10
  -OEChem-06232314393D

 15 14  0     0  0  0  0  0  0999 V2000
   -5.9534    5.0101  -37.8769 C   0  0  0  0  0  0  0  0  0  0  0  0
   -4.4366    5.1371  -35.4857 C   0  0  0  0  0  0  0  0  0  0  0  0
   -6.8320    6.6301  -35.7059 C   0  0  0  0  0  0  0  0  0  0  0  0
   -6.8743    3.8926  -35.5485 O   0  0  0  0  0  0  0  0  0  0  0  0
   -6.5110    6.8828  -34.3487 O   0  0  0  0  0  0  0  0  0  0  0  0
   -6.1068    5.0582  -36.1026 P   0  0  0  0  0  0  0  0  0  0  0  0
   -6.9430    4.9604  -38.3380 H   0  0  0  0  0  0  0  0  0  0  0  0
   -5.4421    5.9077  -38.2336 H   0  0  0  0  0  0  0  0  0  0  0  0
   -5.3779    4.1318  -38.1799 H   0  0  0  0  0  0  0  0  0  0  0  0
   -4.4411    5.1700  -34.3934 H   0  0  0  0  0  0  0  0  0  0  0  0
   -3.8749    4.2576  -35.8104 H   0  0  0  0  0  0  0  0  0  0  0  0
   -3.9390    6.0335  -35.8642 H   0  0  0  0  0  0  0  0  0  0  0  0
   -6.4285    7.4360  -36.3248 H   0  0  0  0  0  0  0  0  0  0  0  0
   -7.9197    6.6145  -35.8123 H   0  0  0  0  0  0  0  0  0  0  0  0
   -5.5414    6.9004  -34.2786 H   0  0  0  0  0  0  0  0  0  0  0  0
  1  6  1  0  0  0  0
  2  6  1  0  0  0  0
  3  5  1  0  0  0  0
  3  6  1  0  0  0  0
  4  6  2  0  0  0  0
  1  7  1  0  0  0  0
  1  8  1  0  0  0  0
  1  9  1  0  0  0  0
  2 10  1  0  0  0  0
  2 11  1  0  0  0  0
  2 12  1  0  0  0  0
  3 13  1  0  0  0  0
  3 14  1  0  0  0  0
  5 15  1  0  0  0  0
M  END
> <id>
EN300-120631

> <smiles>
CP(=O)(C)CO

> <MDLNUMBER>
MFCD01112058

> <IUPAC Name>
(dimethylphosphoryl)methanol

> <CAS>
5850-00-0

> <Purity>
95

> <URL>
https://www.enaminestore.com/catalog/EN300-120631

> <MP>
74-77

> <ROCS_ShapeQuery>
hit0

> <ROCS_TanimotoCombo>
1.059 

> <ROCS_ShapeTanimoto>
0.561 

> <ROCS_ColorTanimoto>
0.497 

> <ROCS_RefTversky>
0.976 

> <ROCS_RefColorTversky>
0.511 

> <ROCS_RefTverskyCombo>
1.487 

> <ROCS_FitTversky>
0.569 

> <ROCS_FitColorTversky>
0.949 

> <ROCS_FitTverskyCombo>
1.518 

> <ROCS_ColorScore>
-2.990

> <ROCS_Overlap>
110.198

> <ROCS_Rank>
119                 

$$$$
untitled-dbase-143139_14
  -OEChem-06232314393D

 13 12  0     1  0  0  0  0  0999 V2000
   -6.2791    5.4275  -36.3427 C   0  0  0  0  0  0  0  0  0  0  0  0
   -7.0262    7.8285  -36.4601 C   0  0  0  0  0  0  0  0  0  0  0  0
   -6.1409    6.8178  -35.7448 C   0  0  1  0  0  0  0  0  0  0  0  0
   -5.9118    5.2965  -37.6552 N   0  0  0  0  0  0  0  0  0  0  0  0
   -6.5268    6.7655  -34.3796 O   0  0  0  0  0  0  0  0  0  0  0  0
   -6.8342    4.1280  -35.4482 S   0  0  0  0  0  0  0  0  0  0  0  0
   -8.0721    7.5044  -36.4302 H   0  0  0  0  0  0  0  0  0  0  0  0
   -6.9526    8.8188  -35.9994 H   0  0  0  0  0  0  0  0  0  0  0  0
   -6.7603    7.9210  -37.5188 H   0  0  0  0  0  0  0  0  0  0  0  0
   -5.1011    7.1619  -35.7870 H   0  0  0  0  0  0  0  0  0  0  0  0
   -5.5731    6.0800  -38.2041 H   0  0  0  0  0  0  0  0  0  0  0  0
   -5.9800    4.4031  -38.1309 H   0  0  0  0  0  0  0  0  0  0  0  0
   -5.9308    6.1353  -33.9423 H   0  0  0  0  0  0  0  0  0  0  0  0
  1  3  1  0  0  0  0
  1  4  1  0  0  0  0
  1  6  2  0  0  0  0
  2  3  1  0  0  0  0
  3  5  1  0  0  0  0
  2  7  1  0  0  0  0
  2  8  1  0  0  0  0
  2  9  1  0  0  0  0
  3 10  1  0  0  0  0
  4 11  1  0  0  0  0
  4 12  1  0  0  0  0
  5 13  1  0  0  0  0
M  END
> <id>
EN300-6242036

> <smiles>
CC(O)C(=S)N

> <MDLNUMBER>
MFCD16078094

> <IUPAC Name>
2-hydroxypropanethioamide

> <CAS>
1129291-48-0

> <Purity>
92

> <URL>
https://www.enaminestore.com/catalog/EN300-6242036

> <MP>
87-89

> <ROCS_ShapeQuery>
hit0

> <ROCS_TanimotoCombo>
1.059 

> <ROCS_ShapeTanimoto>
0.597 

> <ROCS_ColorTanimoto>
0.462 

> <ROCS_RefTversky>
1.071 

> <ROCS_RefColorTversky>
0.486 

> <ROCS_RefTverskyCombo>
1.557 

> <ROCS_FitTversky>
0.574 

> <ROCS_FitColorTversky>
0.902 

> <ROCS_FitTverskyCombo>
1.477 

> <ROCS_ColorScore>
-2.843

> <ROCS_Overlap>
122.054

> <ROCS_Rank>
120                 

$$$$
untitled-dbase-103365_33
  -OEChem-06232314393D

 23 23  0     1  0  0  0  0  0999 V2000
   -5.2868    7.0678  -37.1299 C   0  0  0  0  0  0  0  0  0  0  0  0
   -5.2529    5.6007  -36.6778 C   0  0  1  0  0  0  0  0  0  0  0  0
   -6.5243    7.6969  -36.4595 C   0  0  2  0  0  0  0  0  0  0  0  0
   -6.7052    5.3062  -36.3091 C   0  0  2  0  0  0  0  0  0  0  0  0
   -7.1425    6.5873  -35.6033 C   0  0  1  0  0  0  0  0  0  0  0  0
   -4.7023    4.6599  -37.7395 C   0  0  0  0  0  0  0  0  0  0  0  0
   -7.4582    8.1803  -37.4466 N   0  0  0  0  0  0  0  0  0  0  0  0
   -6.8115    4.1686  -35.4758 O   0  0  0  0  0  0  0  0  0  0  0  0
   -6.5787    6.6638  -34.2957 O   0  0  0  0  0  0  0  0  0  0  0  0
   -5.5292    4.7364  -38.8878 O   0  0  0  0  0  0  0  0  0  0  0  0
   -4.3723    7.5842  -36.8152 H   0  0  0  0  0  0  0  0  0  0  0  0
   -5.3278    7.1479  -38.2235 H   0  0  0  0  0  0  0  0  0  0  0  0
   -4.6176    5.5059  -35.7872 H   0  0  0  0  0  0  0  0  0  0  0  0
   -6.2026    8.5491  -35.8221 H   0  0  0  0  0  0  0  0  0  0  0  0
   -7.3073    5.1383  -37.2110 H   0  0  0  0  0  0  0  0  0  0  0  0
   -8.2320    6.6592  -35.4940 H   0  0  0  0  0  0  0  0  0  0  0  0
   -4.7002    3.6337  -37.3679 H   0  0  0  0  0  0  0  0  0  0  0  0
   -3.6861    4.9518  -38.0103 H   0  0  0  0  0  0  0  0  0  0  0  0
   -8.2360    8.5705  -36.9707 H   0  0  0  0  0  0  0  0  0  0  0  0
   -6.9991    8.8681  -37.9943 H   0  0  0  0  0  0  0  0  0  0  0  0
   -6.3016    4.3553  -34.6685 H   0  0  0  0  0  0  0  0  0  0  0  0
   -6.8008    7.5426  -33.9529 H   0  0  0  0  0  0  0  0  0  0  0  0
   -5.1562    4.1280  -39.5477 H   0  0  0  0  0  0  0  0  0  0  0  0
  1  2  1  0  0  0  0
  1  3  1  0  0  0  0
  2  4  1  0  0  0  0
  2  6  1  6  0  0  0
  3  5  1  0  0  0  0
  3  7  1  6  0  0  0
  4  5  1  0  0  0  0
  4  8  1  1  0  0  0
  5  9  1  1  0  0  0
  6 10  1  0  0  0  0
  1 11  1  0  0  0  0
  1 12  1  0  0  0  0
  2 13  1  0  0  0  0
  3 14  1  0  0  0  0
  4 15  1  0  0  0  0
  5 16  1  0  0  0  0
  6 17  1  0  0  0  0
  6 18  1  0  0  0  0
  7 19  1  0  0  0  0
  7 20  1  0  0  0  0
  8 21  1  0  0  0  0
  9 22  1  0  0  0  0
 10 23  1  0  0  0  0
M  END
> <id>
EN300-7443835

> <smiles>
Cl.N[C@@H]1C[C@H](CO)[C@@H](O)[C@H]1O |&1:2,4,7,9,r|

> <IUPAC Name>
rac-(1R,2S,3R,5R)-3-amino-5-(hydroxymethyl)cyclopentane-1,2-diol hydrochloride

> <CAS>
77841-56-6

> <Purity>
95

> <URL>
https://www.enaminestore.com/catalog/EN300-7443835

> <Saltdate>
Cl

> <ROCS_ShapeQuery>
hit0

> <ROCS_TanimotoCombo>
1.058 

> <ROCS_ShapeTanimoto>
0.467 

> <ROCS_ColorTanimoto>
0.591 

> <ROCS_RefTversky>
1.343 

> <ROCS_RefColorTversky>
0.907 

> <ROCS_RefTverskyCombo>
2.250 

> <ROCS_FitTversky>
0.417 

> <ROCS_FitColorTversky>
0.630 

> <ROCS_FitTverskyCombo>
1.047 

> <ROCS_ColorScore>
-5.575

> <ROCS_Overlap>
166.148

> <ROCS_Rank>
121                 

$$$$
untitled-dbase-169245_2
  -OEChem-06232314393D

 21 21  0     1  0  0  0  0  0999 V2000
   -5.1930    6.6610  -35.9368 C   0  0  0  0  0  0  0  0  0  0  0  0
   -5.6595    5.5607  -36.5533 C   0  0  0  0  0  0  0  0  0  0  0  0
   -5.9543    7.4149  -34.8869 C   0  0  0  0  0  0  0  0  0  0  0  0
   -7.1620    6.6483  -34.3480 C   0  0  0  0  0  0  0  0  0  0  0  0
   -7.9321    5.9753  -35.4812 C   0  0  0  0  0  0  0  0  0  0  0  0
   -7.0353    5.0087  -36.2661 C   0  0  2  0  0  0  0  0  0  0  0  0
   -4.8422    4.8243  -37.5755 C   0  0  0  0  0  0  0  0  0  0  0  0
   -6.8789    3.7972  -35.5282 O   0  0  0  0  0  0  0  0  0  0  0  0
   -5.5248    4.8164  -38.8147 O   0  0  0  0  0  0  0  0  0  0  0  0
   -4.2076    7.0447  -36.1879 H   0  0  0  0  0  0  0  0  0  0  0  0
   -5.2840    7.6543  -34.0535 H   0  0  0  0  0  0  0  0  0  0  0  0
   -6.2831    8.3682  -35.3177 H   0  0  0  0  0  0  0  0  0  0  0  0
   -6.8265    5.8889  -33.6303 H   0  0  0  0  0  0  0  0  0  0  0  0
   -7.8192    7.3333  -33.8004 H   0  0  0  0  0  0  0  0  0  0  0  0
   -8.7940    5.4427  -35.0628 H   0  0  0  0  0  0  0  0  0  0  0  0
   -8.3185    6.7481  -36.1578 H   0  0  0  0  0  0  0  0  0  0  0  0
   -7.5350    4.7576  -37.2093 H   0  0  0  0  0  0  0  0  0  0  0  0
   -4.6740    3.7998  -37.2493 H   0  0  0  0  0  0  0  0  0  0  0  0
   -3.8853    5.3266  -37.7016 H   0  0  0  0  0  0  0  0  0  0  0  0
   -7.7725    3.4633  -35.3566 H   0  0  0  0  0  0  0  0  0  0  0  0
   -4.9657    4.3326  -39.4468 H   0  0  0  0  0  0  0  0  0  0  0  0
  1  2  2  0  0  0  0
  1  3  1  0  0  0  0
  2  6  1  0  0  0  0
  2  7  1  0  0  0  0
  3  4  1  0  0  0  0
  4  5  1  0  0  0  0
  5  6  1  0  0  0  0
  6  8  1  0  0  0  0
  7  9  1  0  0  0  0
  1 10  1  0  0  0  0
  3 11  1  0  0  0  0
  3 12  1  0  0  0  0
  4 13  1  0  0  0  0
  4 14  1  0  0  0  0
  5 15  1  0  0  0  0
  5 16  1  0  0  0  0
  6 17  1  0  0  0  0
  7 18  1  0  0  0  0
  7 19  1  0  0  0  0
  8 20  1  0  0  0  0
  9 21  1  0  0  0  0
M  END
> <id>
EN300-24199792

> <smiles>
OCC1=CCCCC1O

> <MDLNUMBER>
MFCD30081753

> <IUPAC Name>
2-(hydroxymethyl)cyclohex-2-en-1-ol

> <CAS>
238434-65-6

> <URL>
https://www.enaminestore.com/catalog/EN300-24199792

> <ROCS_ShapeQuery>
hit0

> <ROCS_TanimotoCombo>
1.058 

> <ROCS_ShapeTanimoto>
0.487 

> <ROCS_ColorTanimoto>
0.571 

> <ROCS_RefTversky>
1.284 

> <ROCS_RefColorTversky>
0.672 

> <ROCS_RefTverskyCombo>
1.956 

> <ROCS_FitTversky>
0.439 

> <ROCS_FitColorTversky>
0.792 

> <ROCS_FitTverskyCombo>
1.231 

> <ROCS_ColorScore>
-3.999

> <ROCS_Overlap>
155.900

> <ROCS_Rank>
122                 

$$$$
untitled-dbase-6137_7
  -OEChem-06232314393D

 21 21  0     1  0  0  0  0  0999 V2000
   -5.1655    6.2015  -38.5078 C   0  0  0  0  0  0  0  0  0  0  0  0
   -4.9784    4.8194  -38.5272 C   0  0  0  0  0  0  0  0  0  0  0  0
   -5.9315    6.7875  -37.5001 C   0  0  0  0  0  0  0  0  0  0  0  0
   -5.5574    4.0233  -37.5390 C   0  0  0  0  0  0  0  0  0  0  0  0
   -6.5105    5.9914  -36.5119 C   0  0  0  0  0  0  0  0  0  0  0  0
   -6.3235    4.6093  -36.5313 C   0  0  0  0  0  0  0  0  0  0  0  0
   -7.9759    7.9498  -35.9066 C   0  0  0  0  0  0  0  0  0  0  0  0
   -7.3261    6.6458  -35.4445 C   0  0  2  0  0  0  0  0  0  0  0  0
   -6.9020    3.7877  -35.5391 N   0  0  0  0  0  0  0  0  0  0  0  0
   -6.4814    6.9363  -34.3261 O   0  0  0  0  0  0  0  0  0  0  0  0
   -4.7146    6.8212  -39.2773 H   0  0  0  0  0  0  0  0  0  0  0  0
   -4.3819    4.3632  -39.3119 H   0  0  0  0  0  0  0  0  0  0  0  0
   -6.0711    7.8653  -37.4939 H   0  0  0  0  0  0  0  0  0  0  0  0
   -5.4047    2.9473  -37.5645 H   0  0  0  0  0  0  0  0  0  0  0  0
   -7.2269    8.6509  -36.2884 H   0  0  0  0  0  0  0  0  0  0  0  0
   -8.5203    8.4364  -35.0895 H   0  0  0  0  0  0  0  0  0  0  0  0
   -8.7101    7.7590  -36.6970 H   0  0  0  0  0  0  0  0  0  0  0  0
   -8.1226    5.9810  -35.0721 H   0  0  0  0  0  0  0  0  0  0  0  0
   -7.4108    4.2129  -34.7918 H   0  0  0  0  0  0  0  0  0  0  0  0
   -6.7132    2.8066  -35.5499 H   0  0  0  0  0  0  0  0  0  0  0  0
   -6.1275    6.0864  -34.0270 H   0  0  0  0  0  0  0  0  0  0  0  0
  1  2  2  0  0  0  0
  1  3  1  0  0  0  0
  2  4  1  0  0  0  0
  3  5  2  0  0  0  0
  4  6  2  0  0  0  0
  5  6  1  0  0  0  0
  5  8  1  0  0  0  0
  6  9  1  0  0  0  0
  7  8  1  0  0  0  0
  8 10  1  0  0  0  0
  1 11  1  0  0  0  0
  2 12  1  0  0  0  0
  3 13  1  0  0  0  0
  4 14  1  0  0  0  0
  7 15  1  0  0  0  0
  7 16  1  0  0  0  0
  7 17  1  0  0  0  0
  8 18  1  0  0  0  0
  9 19  1  0  0  0  0
  9 20  1  0  0  0  0
 10 21  1  0  0  0  0
M  END
> <id>
EN300-52136

> <smiles>
CC(O)C=1C=CC=CC1N

> <MDLNUMBER>
MFCD12198838

> <IUPAC Name>
1-(2-aminophenyl)ethan-1-ol

> <CAS>
10517-50-7

> <Purity>
95

> <URL>
https://www.enaminestore.com/catalog/EN300-52136

> <MP>
57-59

> <ROCS_ShapeQuery>
hit0

> <ROCS_TanimotoCombo>
1.057 

> <ROCS_ShapeTanimoto>
0.487 

> <ROCS_ColorTanimoto>
0.571 

> <ROCS_RefTversky>
1.406 

> <ROCS_RefColorTversky>
0.672 

> <ROCS_RefTverskyCombo>
2.078 

> <ROCS_FitTversky>
0.427 

> <ROCS_FitColorTversky>
0.791 

> <ROCS_FitTverskyCombo>
1.218 

> <ROCS_ColorScore>
-3.997

> <ROCS_Overlap>
174.799

> <ROCS_Rank>
123                 

$$$$
untitled-dbase-173427_5
  -OEChem-06232314393D

 11 10  0     1  0  0  0  0  0999 V2000
   -6.9076    6.1979  -35.2370 C   0  0  0  0  0  0  0  0  0  0  0  0
   -5.8867    5.1833  -37.2688 C   0  0  0  0  0  0  0  0  0  0  0  0
   -6.1474    5.0103  -35.7833 C   0  0  2  0  0  0  0  0  0  0  0  0
   -6.4957    6.9262  -34.3398 O   0  0  0  0  0  0  0  0  0  0  0  0
   -6.8795    3.8222  -35.5527 O   0  0  0  0  0  0  0  0  0  0  0  0
   -7.9049    6.3655  -35.6795 H   0  0  0  0  0  0  0  0  0  0  0  0
   -6.8307    5.2542  -37.8190 H   0  0  0  0  0  0  0  0  0  0  0  0
   -5.3437    4.3226  -37.6756 H   0  0  0  0  0  0  0  0  0  0  0  0
   -5.2941    6.0819  -37.4672 H   0  0  0  0  0  0  0  0  0  0  0  0
   -5.2011    4.9401  -35.2385 H   0  0  0  0  0  0  0  0  0  0  0  0
   -7.7331    3.9179  -36.0094 H   0  0  0  0  0  0  0  0  0  0  0  0
  1  3  1  0  0  0  0
  1  4  2  0  0  0  0
  2  3  1  6  0  0  0
  3  5  1  0  0  0  0
  1  6  1  0  0  0  0
  2  7  1  0  0  0  0
  2  8  1  0  0  0  0
  2  9  1  0  0  0  0
  3 10  1  0  0  0  0
  5 11  1  0  0  0  0
M  END
> <id>
EN300-7570366

> <smiles>
C[C@H](O)C=O

> <MDLNUMBER>
MFCD00870228

> <IUPAC Name>
(2S)-2-hydroxypropanal

> <CAS>
3913-64-2

> <URL>
https://www.enaminestore.com/catalog/EN300-7570366

> <ROCS_ShapeQuery>
hit0

> <ROCS_TanimotoCombo>
1.054 

> <ROCS_ShapeTanimoto>
0.554 

> <ROCS_ColorTanimoto>
0.500 

> <ROCS_RefTversky>
0.931 

> <ROCS_RefColorTversky>
0.513 

> <ROCS_RefTverskyCombo>
1.444 

> <ROCS_FitTversky>
0.578 

> <ROCS_FitColorTversky>
0.952 

> <ROCS_FitTverskyCombo>
1.530 

> <ROCS_ColorScore>
-2.999

> <ROCS_Overlap>
104.567

> <ROCS_Rank>
124                 

$$$$
untitled-dbase-601_6
  -OEChem-06232314393D

 17 17  0     0  0  0  0  0  0999 V2000
   -6.1650    7.8947  -35.8013 C   0  0  0  0  0  0  0  0  0  0  0  0
   -7.0792    7.3950  -34.8739 C   0  0  0  0  0  0  0  0  0  0  0  0
   -5.4842    7.0214  -36.6497 C   0  0  0  0  0  0  0  0  0  0  0  0
   -7.3126    6.0221  -34.7947 C   0  0  0  0  0  0  0  0  0  0  0  0
   -5.7176    5.6485  -36.5705 C   0  0  0  0  0  0  0  0  0  0  0  0
   -6.6318    5.1488  -35.6430 C   0  0  0  0  0  0  0  0  0  0  0  0
   -4.9797    4.7287  -37.4860 C   0  0  0  0  0  0  0  0  0  0  0  0
   -6.8709    3.8105  -35.5521 O   0  0  0  0  0  0  0  0  0  0  0  0
   -5.5345    4.8193  -38.7920 O   0  0  0  0  0  0  0  0  0  0  0  0
   -5.9824    8.9637  -35.8630 H   0  0  0  0  0  0  0  0  0  0  0  0
   -7.6083    8.0752  -34.2130 H   0  0  0  0  0  0  0  0  0  0  0  0
   -4.7728    7.4205  -37.3678 H   0  0  0  0  0  0  0  0  0  0  0  0
   -8.0259    5.6388  -34.0701 H   0  0  0  0  0  0  0  0  0  0  0  0
   -3.9137    4.9872  -37.5378 H   0  0  0  0  0  0  0  0  0  0  0  0
   -5.0508    3.6882  -37.1426 H   0  0  0  0  0  0  0  0  0  0  0  0
   -7.5284    3.6339  -34.8612 H   0  0  0  0  0  0  0  0  0  0  0  0
   -6.4669    4.5595  -38.7183 H   0  0  0  0  0  0  0  0  0  0  0  0
  1  2  2  0  0  0  0
  1  3  1  0  0  0  0
  2  4  1  0  0  0  0
  3  5  2  0  0  0  0
  4  6  2  0  0  0  0
  5  6  1  0  0  0  0
  5  7  1  0  0  0  0
  6  8  1  0  0  0  0
  7  9  1  0  0  0  0
  1 10  1  0  0  0  0
  2 11  1  0  0  0  0
  3 12  1  0  0  0  0
  4 13  1  0  0  0  0
  7 14  1  0  0  0  0
  7 15  1  0  0  0  0
  8 16  1  0  0  0  0
  9 17  1  0  0  0  0
M  END
> <id>
EN300-39020

> <smiles>
OCC=1C=CC=CC1O

> <MDLNUMBER>
MFCD00004617

> <IUPAC Name>
2-(hydroxymethyl)phenol

> <CAS>
90-01-7

> <Purity>
95

> <URL>
https://www.enaminestore.com/catalog/EN300-39020

> <MP>
83-85

> <ROCS_ShapeQuery>
hit0

> <ROCS_TanimotoCombo>
1.054 

> <ROCS_ShapeTanimoto>
0.483 

> <ROCS_ColorTanimoto>
0.570 

> <ROCS_RefTversky>
1.322 

> <ROCS_RefColorTversky>
0.672 

> <ROCS_RefTverskyCombo>
1.994 

> <ROCS_FitTversky>
0.433 

> <ROCS_FitColorTversky>
0.790 

> <ROCS_FitTverskyCombo>
1.223 

> <ROCS_ColorScore>
-3.998

> <ROCS_Overlap>
161.828

> <ROCS_Rank>
125                 

$$$$
untitled-dbase-142520_1
  -OEChem-06232314393D

 18 18  0     0  0  0  0  0  0999 V2000
   -5.4144    6.8999  -36.5414 C   0  0  0  0  0  0  0  0  0  0  0  0
   -5.6082    5.5377  -36.6071 C   0  0  0  0  0  0  0  0  0  0  0  0
   -6.5386    5.0816  -35.6290 C   0  0  0  0  0  0  0  0  0  0  0  0
   -7.0203    6.1129  -34.8527 C   0  0  0  0  0  0  0  0  0  0  0  0
   -7.9941    6.0650  -33.7375 C   0  0  0  0  0  0  0  0  0  0  0  0
   -4.9206    4.6621  -37.5876 C   0  0  0  0  0  0  0  0  0  0  0  0
   -6.9100    3.7874  -35.4758 N   0  0  0  0  0  0  0  0  0  0  0  0
   -5.5058    4.8315  -38.8758 O   0  0  0  0  0  0  0  0  0  0  0  0
   -6.3518    7.6233  -35.3043 S   0  0  0  0  0  0  0  0  0  0  0  0
   -4.7681    7.5085  -37.1587 H   0  0  0  0  0  0  0  0  0  0  0  0
   -7.4816    5.9105  -32.7760 H   0  0  0  0  0  0  0  0  0  0  0  0
   -8.5784    6.9958  -33.6651 H   0  0  0  0  0  0  0  0  0  0  0  0
   -8.7246    5.2509  -33.8677 H   0  0  0  0  0  0  0  0  0  0  0  0
   -3.8470    4.8965  -37.6624 H   0  0  0  0  0  0  0  0  0  0  0  0
   -4.9998    3.6000  -37.3069 H   0  0  0  0  0  0  0  0  0  0  0  0
   -6.5688    3.0467  -36.1018 H   0  0  0  0  0  0  0  0  0  0  0  0
   -7.6203    3.5041  -34.7887 H   0  0  0  0  0  0  0  0  0  0  0  0
   -6.4398    4.5852  -38.7897 H   0  0  0  0  0  0  0  0  0  0  0  0
  1  2  2  0  0  0  0
  1  9  1  0  0  0  0
  2  3  1  0  0  0  0
  2  6  1  0  0  0  0
  3  4  2  0  0  0  0
  3  7  1  0  0  0  0
  4  5  1  0  0  0  0
  4  9  1  0  0  0  0
  6  8  1  0  0  0  0
  1 10  1  0  0  0  0
  5 11  1  0  0  0  0
  5 12  1  0  0  0  0
  5 13  1  0  0  0  0
  6 14  1  0  0  0  0
  6 15  1  0  0  0  0
  7 16  1  0  0  0  0
  7 17  1  0  0  0  0
  8 18  1  0  0  0  0
M  END
> <id>
EN300-7608840

> <smiles>
CC=1SC=C(CO)C1N

> <MDLNUMBER>
MFCD19207711

> <IUPAC Name>
(4-amino-5-methylthiophen-3-yl)methanol

> <CAS>
81528-49-6

> <URL>
https://www.enaminestore.com/catalog/EN300-7608840

> <ROCS_ShapeQuery>
hit0

> <ROCS_TanimotoCombo>
1.053 

> <ROCS_ShapeTanimoto>
0.486 

> <ROCS_ColorTanimoto>
0.567 

> <ROCS_RefTversky>
1.278 

> <ROCS_RefColorTversky>
0.669 

> <ROCS_RefTverskyCombo>
1.946 

> <ROCS_FitTversky>
0.440 

> <ROCS_FitColorTversky>
0.788 

> <ROCS_FitTverskyCombo>
1.227 

> <ROCS_ColorScore>
-3.978

> <ROCS_Overlap>
154.958

> <ROCS_Rank>
126                 

$$$$
untitled-dbase-142522_1
  -OEChem-06232314393D

 18 18  0     0  0  0  0  0  0999 V2000
   -5.4144    6.8999  -36.5414 C   0  0  0  0  0  0  0  0  0  0  0  0
   -5.6082    5.5377  -36.6071 C   0  0  0  0  0  0  0  0  0  0  0  0
   -6.5386    5.0816  -35.6290 C   0  0  0  0  0  0  0  0  0  0  0  0
   -7.0203    6.1129  -34.8527 C   0  0  0  0  0  0  0  0  0  0  0  0
   -7.9941    6.0650  -33.7375 C   0  0  0  0  0  0  0  0  0  0  0  0
   -4.9206    4.6621  -37.5876 C   0  0  0  0  0  0  0  0  0  0  0  0
   -6.9100    3.7874  -35.4758 N   0  0  0  0  0  0  0  0  0  0  0  0
   -5.5058    4.8315  -38.8758 O   0  0  0  0  0  0  0  0  0  0  0  0
   -6.3518    7.6233  -35.3043 S   0  0  0  0  0  0  0  0  0  0  0  0
   -4.7681    7.5085  -37.1587 H   0  0  0  0  0  0  0  0  0  0  0  0
   -7.4816    5.9105  -32.7760 H   0  0  0  0  0  0  0  0  0  0  0  0
   -8.5784    6.9958  -33.6651 H   0  0  0  0  0  0  0  0  0  0  0  0
   -8.7246    5.2509  -33.8677 H   0  0  0  0  0  0  0  0  0  0  0  0
   -3.8470    4.8965  -37.6624 H   0  0  0  0  0  0  0  0  0  0  0  0
   -4.9998    3.6000  -37.3069 H   0  0  0  0  0  0  0  0  0  0  0  0
   -6.5688    3.0467  -36.1018 H   0  0  0  0  0  0  0  0  0  0  0  0
   -7.6203    3.5041  -34.7887 H   0  0  0  0  0  0  0  0  0  0  0  0
   -6.4398    4.5852  -38.7897 H   0  0  0  0  0  0  0  0  0  0  0  0
  1  2  2  0  0  0  0
  1  9  1  0  0  0  0
  2  3  1  0  0  0  0
  2  6  1  0  0  0  0
  3  4  2  0  0  0  0
  3  7  1  0  0  0  0
  4  5  1  0  0  0  0
  4  9  1  0  0  0  0
  6  8  1  0  0  0  0
  1 10  1  0  0  0  0
  5 11  1  0  0  0  0
  5 12  1  0  0  0  0
  5 13  1  0  0  0  0
  6 14  1  0  0  0  0
  6 15  1  0  0  0  0
  7 16  1  0  0  0  0
  7 17  1  0  0  0  0
  8 18  1  0  0  0  0
M  END
> <id>
EN300-7652829

> <smiles>
Cl.CC=1SC=C(CO)C1N

> <MDLNUMBER>
MFCD33020033

> <IUPAC Name>
(4-amino-5-methylthiophen-3-yl)methanol hydrochloride

> <CAS>
1310072-32-2

> <Purity>
95

> <URL>
https://www.enaminestore.com/catalog/EN300-7652829

> <ROCS_ShapeQuery>
hit0

> <ROCS_TanimotoCombo>
1.053 

> <ROCS_ShapeTanimoto>
0.486 

> <ROCS_ColorTanimoto>
0.567 

> <ROCS_RefTversky>
1.278 

> <ROCS_RefColorTversky>
0.669 

> <ROCS_RefTverskyCombo>
1.946 

> <ROCS_FitTversky>
0.440 

> <ROCS_FitColorTversky>
0.788 

> <ROCS_FitTverskyCombo>
1.227 

> <ROCS_ColorScore>
-3.978

> <ROCS_Overlap>
154.958

> <ROCS_Rank>
127                 

$$$$
untitled-dbase-60595_14
  -OEChem-06232314393D

 20 20  0     1  0  0  0  0  0999 V2000
   -5.1939    6.1447  -38.5146 C   0  0  0  0  0  0  0  0  0  0  0  0
   -5.0095    4.7621  -38.5171 C   0  0  0  0  0  0  0  0  0  0  0  0
   -5.9523    6.7454  -37.5098 C   0  0  0  0  0  0  0  0  0  0  0  0
   -5.5836    3.9802  -37.5148 C   0  0  0  0  0  0  0  0  0  0  0  0
   -6.5264    5.9635  -36.5075 C   0  0  0  0  0  0  0  0  0  0  0  0
   -6.3420    4.5809  -36.5099 C   0  0  0  0  0  0  0  0  0  0  0  0
   -7.9919    7.9231  -35.9066 C   0  0  0  0  0  0  0  0  0  0  0  0
   -7.3352    6.6235  -35.4403 C   0  0  2  0  0  0  0  0  0  0  0  0
   -6.8965    3.8026  -35.5388 O   0  0  0  0  0  0  0  0  0  0  0  0
   -6.4841    6.9247  -34.3291 O   0  0  0  0  0  0  0  0  0  0  0  0
   -4.7475    6.7541  -39.2953 H   0  0  0  0  0  0  0  0  0  0  0  0
   -4.4197    4.2948  -39.3001 H   0  0  0  0  0  0  0  0  0  0  0  0
   -6.0913    7.8233  -37.5176 H   0  0  0  0  0  0  0  0  0  0  0  0
   -5.4365    2.9036  -37.5220 H   0  0  0  0  0  0  0  0  0  0  0  0
   -7.2474    8.6227  -36.2996 H   0  0  0  0  0  0  0  0  0  0  0  0
   -8.5301    8.4145  -35.0882 H   0  0  0  0  0  0  0  0  0  0  0  0
   -8.7327    7.7258  -36.6892 H   0  0  0  0  0  0  0  0  0  0  0  0
   -8.1283    5.9603  -35.0564 H   0  0  0  0  0  0  0  0  0  0  0  0
   -6.6730    2.8705  -35.6882 H   0  0  0  0  0  0  0  0  0  0  0  0
   -6.1263    6.0780  -34.0261 H   0  0  0  0  0  0  0  0  0  0  0  0
  1  2  2  0  0  0  0
  1  3  1  0  0  0  0
  2  4  1  0  0  0  0
  3  5  2  0  0  0  0
  4  6  2  0  0  0  0
  5  6  1  0  0  0  0
  5  8  1  0  0  0  0
  6  9  1  0  0  0  0
  7  8  1  6  0  0  0
  8 10  1  0  0  0  0
  1 11  1  0  0  0  0
  2 12  1  0  0  0  0
  3 13  1  0  0  0  0
  4 14  1  0  0  0  0
  7 15  1  0  0  0  0
  7 16  1  0  0  0  0
  7 17  1  0  0  0  0
  8 18  1  0  0  0  0
  9 19  1  0  0  0  0
 10 20  1  0  0  0  0
M  END
> <id>
EN300-1842346

> <smiles>
C[C@H](O)C=1C=CC=CC1O

> <MDLNUMBER>
MFCD18340073

> <IUPAC Name>
2-[(1S)-1-hydroxyethyl]phenol

> <CAS>
195257-74-0

> <URL>
https://www.enaminestore.com/catalog/EN300-1842346

> <ROCS_ShapeQuery>
hit0

> <ROCS_TanimotoCombo>
1.052 

> <ROCS_ShapeTanimoto>
0.481 

> <ROCS_ColorTanimoto>
0.570 

> <ROCS_RefTversky>
1.406 

> <ROCS_RefColorTversky>
0.672 

> <ROCS_RefTverskyCombo>
2.078 

> <ROCS_FitTversky>
0.423 

> <ROCS_FitColorTversky>
0.791 

> <ROCS_FitTverskyCombo>
1.213 

> <ROCS_ColorScore>
-3.999

> <ROCS_Overlap>
175.172

> <ROCS_Rank>
128                 

$$$$
untitled-dbase-24168_0
  -OEChem-06232314393D

 17 17  0     0  0  0  0  0  0999 V2000
   -5.9657    5.9910  -36.6056 C   0  0  0  0  0  0  0  0  0  0  0  0
   -6.4772    3.6797  -36.8359 C   0  0  0  0  0  0  0  0  0  0  0  0
   -6.8998    4.7152  -34.8290 C   0  0  0  0  0  0  0  0  0  0  0  0
   -5.9869    4.8479  -37.3969 C   0  0  0  0  0  0  0  0  0  0  0  0
   -6.4290    5.9318  -35.2959 C   0  0  0  0  0  0  0  0  0  0  0  0
   -6.9153    6.8782  -33.1690 C   0  0  0  0  0  0  0  0  0  0  0  0
   -6.9359    3.5836  -35.5678 N   0  0  0  0  0  0  0  0  0  0  0  0
   -5.5255    4.8769  -38.7230 N   0  0  0  0  0  0  0  0  0  0  0  0
   -6.4205    7.0304  -34.5011 O   0  0  0  0  0  0  0  0  0  0  0  0
   -5.5892    6.9295  -37.0050 H   0  0  0  0  0  0  0  0  0  0  0  0
   -6.5188    2.7552  -37.4040 H   0  0  0  0  0  0  0  0  0  0  0  0
   -7.2735    4.6109  -33.8152 H   0  0  0  0  0  0  0  0  0  0  0  0
   -6.8507    7.8344  -32.6441 H   0  0  0  0  0  0  0  0  0  0  0  0
   -6.3257    6.1219  -32.6446 H   0  0  0  0  0  0  0  0  0  0  0  0
   -7.9591    6.5584  -33.2119 H   0  0  0  0  0  0  0  0  0  0  0  0
   -5.2195    5.7453  -39.1206 H   0  0  0  0  0  0  0  0  0  0  0  0
   -5.5949    4.0511  -39.2880 H   0  0  0  0  0  0  0  0  0  0  0  0
  1  4  2  0  0  0  0
  1  5  1  0  0  0  0
  2  4  1  0  0  0  0
  2  7  2  0  0  0  0
  3  5  2  0  0  0  0
  3  7  1  0  0  0  0
  4  8  1  0  0  0  0
  5  9  1  0  0  0  0
  6  9  1  0  0  0  0
  1 10  1  0  0  0  0
  2 11  1  0  0  0  0
  3 12  1  0  0  0  0
  6 13  1  0  0  0  0
  6 14  1  0  0  0  0
  6 15  1  0  0  0  0
  8 16  1  0  0  0  0
  8 17  1  0  0  0  0
M  END
> <id>
EN300-95404

> <smiles>
COC=1C=NC=C(N)C1

> <MDLNUMBER>
MFCD09701369

> <IUPAC Name>
5-methoxypyridin-3-amine

> <CAS>
64436-92-6

> <Purity>
95

> <URL>
https://www.enaminestore.com/catalog/EN300-95404

> <MP>
63-65

> <ROCS_ShapeQuery>
hit0

> <ROCS_TanimotoCombo>
1.052 

> <ROCS_ShapeTanimoto>
0.507 

> <ROCS_ColorTanimoto>
0.545 

> <ROCS_RefTversky>
1.369 

> <ROCS_RefColorTversky>
0.652 

> <ROCS_RefTverskyCombo>
2.022 

> <ROCS_FitTversky>
0.446 

> <ROCS_FitColorTversky>
0.768 

> <ROCS_FitTverskyCombo>
1.214 

> <ROCS_ColorScore>
-3.881

> <ROCS_Overlap>
167.836

> <ROCS_Rank>
129                 

$$$$
untitled-dbase-177092_37
  -OEChem-06232314393D

 23 23  0     1  0  0  0  0  0999 V2000
   -7.2703    6.7828  -35.1973 C   0  0  0  0  0  0  0  0  0  0  0  0
   -6.2082    7.2814  -36.1742 C   0  0  0  0  0  0  0  0  0  0  0  0
   -6.6820    5.8045  -34.1826 C   0  0  0  0  0  0  0  0  0  0  0  0
   -4.9320    5.1103  -35.8818 C   0  0  0  0  0  0  0  0  0  0  0  0
   -5.4679    6.1430  -36.8897 C   0  0  1  0  0  0  0  0  0  0  0  0
   -5.9618    4.6360  -34.8523 C   0  0  2  0  0  0  0  0  0  0  0  0
   -6.3312    5.5061  -37.9818 C   0  0  0  0  0  0  0  0  0  0  0  0
   -6.9278    3.7868  -35.4638 O   0  0  0  0  0  0  0  0  0  0  0  0
   -5.4809    4.8302  -38.8891 O   0  0  0  0  0  0  0  0  0  0  0  0
   -7.7091    7.6364  -34.6676 H   0  0  0  0  0  0  0  0  0  0  0  0
   -8.0812    6.2964  -35.7493 H   0  0  0  0  0  0  0  0  0  0  0  0
   -6.6872    7.9397  -36.9191 H   0  0  0  0  0  0  0  0  0  0  0  0
   -5.4864    7.9125  -35.6304 H   0  0  0  0  0  0  0  0  0  0  0  0
   -5.9882    6.3320  -33.5113 H   0  0  0  0  0  0  0  0  0  0  0  0
   -7.4815    5.4222  -33.5291 H   0  0  0  0  0  0  0  0  0  0  0  0
   -4.5265    4.2292  -36.4226 H   0  0  0  0  0  0  0  0  0  0  0  0
   -4.0516    5.5255  -35.3498 H   0  0  0  0  0  0  0  0  0  0  0  0
   -4.5810    6.5975  -37.3996 H   0  0  0  0  0  0  0  0  0  0  0  0
   -5.4504    4.0395  -34.0716 H   0  0  0  0  0  0  0  0  0  0  0  0
   -6.8856    6.2789  -38.5131 H   0  0  0  0  0  0  0  0  0  0  0  0
   -7.0249    4.7935  -37.5370 H   0  0  0  0  0  0  0  0  0  0  0  0
   -7.5132    3.4766  -34.7550 H   0  0  0  0  0  0  0  0  0  0  0  0
   -5.0020    4.1526  -38.3817 H   0  0  0  0  0  0  0  0  0  0  0  0
  1  2  1  0  0  0  0
  1  3  1  0  0  0  0
  2  5  1  0  0  0  0
  3  6  1  0  0  0  0
  4  5  1  0  0  0  0
  4  6  1  0  0  0  0
  5  7  1  1  0  0  0
  6  8  1  1  0  0  0
  7  9  1  0  0  0  0
  1 10  1  0  0  0  0
  1 11  1  0  0  0  0
  2 12  1  0  0  0  0
  2 13  1  0  0  0  0
  3 14  1  0  0  0  0
  3 15  1  0  0  0  0
  4 16  1  0  0  0  0
  4 17  1  0  0  0  0
  5 18  1  0  0  0  0
  6 19  1  0  0  0  0
  7 20  1  0  0  0  0
  7 21  1  0  0  0  0
  8 22  1  0  0  0  0
  9 23  1  0  0  0  0
M  END
> <id>
EN300-7061160

> <smiles>
OC[C@H]1CCC[C@@H](O)C1

> <IUPAC Name>
(1R,3S)-3-(hydroxymethyl)cyclohexan-1-ol

> <CAS>
1071524-95-2

> <Purity>
95

> <URL>
https://www.enaminestore.com/catalog/EN300-7061160

> <ROCS_ShapeQuery>
hit0

> <ROCS_TanimotoCombo>
1.051 

> <ROCS_ShapeTanimoto>
0.487 

> <ROCS_ColorTanimoto>
0.564 

> <ROCS_RefTversky>
1.264 

> <ROCS_RefColorTversky>
0.667 

> <ROCS_RefTverskyCombo>
1.930 

> <ROCS_FitTversky>
0.442 

> <ROCS_FitColorTversky>
0.785 

> <ROCS_FitTverskyCombo>
1.227 

> <ROCS_ColorScore>
-3.966

> <ROCS_Overlap>
152.858

> <ROCS_Rank>
130                 

$$$$
untitled-dbase-53113_28
  -OEChem-06232314393D

 18 17  0     1  0  0  0  0  0999 V2000
   -6.3846    7.0915  -36.3423 C   0  0  0  0  0  0  0  0  0  0  0  0
   -6.0068    6.0422  -36.7880 C   0  0  0  0  0  0  0  0  0  0  0  0
   -6.8368    8.3491  -35.8081 C   0  0  0  0  0  0  0  0  0  0  0  0
   -8.5846    9.9338  -35.8082 C   0  0  0  0  0  0  0  0  0  0  0  0
   -6.4595    3.6139  -36.9155 C   0  0  0  0  0  0  0  0  0  0  0  0
   -5.5423    4.7575  -37.3322 C   0  0  1  0  0  0  0  0  0  0  0  0
   -6.1495    8.9783  -35.0176 O   0  0  0  0  0  0  0  0  0  0  0  0
   -6.8712    3.7909  -35.5675 O   0  0  0  0  0  0  0  0  0  0  0  0
   -5.5317    4.8164  -38.7556 O   0  0  0  0  0  0  0  0  0  0  0  0
   -8.0602    8.6927  -36.2914 O   0  0  0  0  0  0  0  0  0  0  0  0
   -9.5652   10.1146  -36.2552 H   0  0  0  0  0  0  0  0  0  0  0  0
   -7.8994   10.7451  -36.0664 H   0  0  0  0  0  0  0  0  0  0  0  0
   -8.6868    9.8776  -34.7218 H   0  0  0  0  0  0  0  0  0  0  0  0
   -7.3524    3.5914  -37.5504 H   0  0  0  0  0  0  0  0  0  0  0  0
   -5.9610    2.6423  -37.0126 H   0  0  0  0  0  0  0  0  0  0  0  0
   -4.5209    4.5581  -36.9887 H   0  0  0  0  0  0  0  0  0  0  0  0
   -7.3427    4.6389  -35.5270 H   0  0  0  0  0  0  0  0  0  0  0  0
   -4.9251    5.5332  -38.9984 H   0  0  0  0  0  0  0  0  0  0  0  0
  1  2  3  0  0  0  0
  1  3  1  0  0  0  0
  2  6  1  0  0  0  0
  3  7  2  0  0  0  0
  3 10  1  0  0  0  0
  4 10  1  0  0  0  0
  5  6  1  0  0  0  0
  5  8  1  0  0  0  0
  6  9  1  6  0  0  0
  4 11  1  0  0  0  0
  4 12  1  0  0  0  0
  4 13  1  0  0  0  0
  5 14  1  0  0  0  0
  5 15  1  0  0  0  0
  6 16  1  0  0  0  0
  8 17  1  0  0  0  0
  9 18  1  0  0  0  0
M  END
> <id>
EN300-1591961

> <smiles>
COC(=O)C#C[C@H](O)CO

> <IUPAC Name>
methyl (4S)-4,5-dihydroxypent-2-ynoate

> <CAS>
2171181-91-0

> <URL>
https://www.enaminestore.com/catalog/EN300-1591961

> <ROCS_ShapeQuery>
hit0

> <ROCS_TanimotoCombo>
1.050 

> <ROCS_ShapeTanimoto>
0.479 

> <ROCS_ColorTanimoto>
0.571 

> <ROCS_RefTversky>
1.343 

> <ROCS_RefColorTversky>
0.672 

> <ROCS_RefTverskyCombo>
2.015 

> <ROCS_FitTversky>
0.427 

> <ROCS_FitColorTversky>
0.792 

> <ROCS_FitTverskyCombo>
1.219 

> <ROCS_ColorScore>
-4.001

> <ROCS_Overlap>
165.338

> <ROCS_Rank>
131                 

$$$$
untitled-dbase-169263_3
  -OEChem-06232314393D

 11 10  0     1  0  0  0  0  0999 V2000
   -6.0116    5.9492  -34.8830 C   0  0  0  0  0  0  0  0  0  0  0  0
   -5.7900    5.1511  -37.2311 C   0  0  0  0  0  0  0  0  0  0  0  0
   -6.6603    5.1452  -35.9873 C   0  0  1  0  0  0  0  0  0  0  0  0
   -6.5237    6.9298  -34.3527 O   0  0  0  0  0  0  0  0  0  0  0  0
   -6.8786    3.8173  -35.5515 O   0  0  0  0  0  0  0  0  0  0  0  0
   -5.0010    5.6177  -34.5875 H   0  0  0  0  0  0  0  0  0  0  0  0
   -4.8154    4.6988  -37.0205 H   0  0  0  0  0  0  0  0  0  0  0  0
   -5.5999    6.1749  -37.5731 H   0  0  0  0  0  0  0  0  0  0  0  0
   -6.2639    4.6028  -38.0515 H   0  0  0  0  0  0  0  0  0  0  0  0
   -7.6326    5.5981  -36.2034 H   0  0  0  0  0  0  0  0  0  0  0  0
   -7.4640    3.8625  -34.7758 H   0  0  0  0  0  0  0  0  0  0  0  0
  1  3  1  0  0  0  0
  1  4  2  0  0  0  0
  2  3  1  1  0  0  0
  3  5  1  0  0  0  0
  1  6  1  0  0  0  0
  2  7  1  0  0  0  0
  2  8  1  0  0  0  0
  2  9  1  0  0  0  0
  3 10  1  0  0  0  0
  5 11  1  0  0  0  0
M  END
> <id>
EN300-7570329

> <smiles>
C[C@@H](O)C=O

> <MDLNUMBER>
MFCD00870227

> <IUPAC Name>
(2R)-2-hydroxypropanal

> <CAS>
3946-09-6

> <URL>
https://www.enaminestore.com/catalog/EN300-7570329

> <ROCS_ShapeQuery>
hit0

> <ROCS_TanimotoCombo>
1.050 

> <ROCS_ShapeTanimoto>
0.551 

> <ROCS_ColorTanimoto>
0.500 

> <ROCS_RefTversky>
0.927 

> <ROCS_RefColorTversky>
0.513 

> <ROCS_RefTverskyCombo>
1.440 

> <ROCS_FitTversky>
0.575 

> <ROCS_FitColorTversky>
0.952 

> <ROCS_FitTverskyCombo>
1.527 

> <ROCS_ColorScore>
-2.998

> <ROCS_Overlap>
104.107

> <ROCS_Rank>
132                 

$$$$
untitled-dbase-170412_3
  -OEChem-06232314393D

 11 10  0     1  0  0  0  0  0999 V2000
   -6.0116    5.9492  -34.8830 C   0  0  0  0  0  0  0  0  0  0  0  0
   -5.7900    5.1511  -37.2311 C   0  0  0  0  0  0  0  0  0  0  0  0
   -6.6603    5.1452  -35.9873 C   0  0  1  0  0  0  0  0  0  0  0  0
   -6.5237    6.9298  -34.3527 O   0  0  0  0  0  0  0  0  0  0  0  0
   -6.8786    3.8173  -35.5515 O   0  0  0  0  0  0  0  0  0  0  0  0
   -5.0010    5.6177  -34.5875 H   0  0  0  0  0  0  0  0  0  0  0  0
   -4.8154    4.6988  -37.0205 H   0  0  0  0  0  0  0  0  0  0  0  0
   -5.5999    6.1749  -37.5731 H   0  0  0  0  0  0  0  0  0  0  0  0
   -6.2639    4.6028  -38.0515 H   0  0  0  0  0  0  0  0  0  0  0  0
   -7.6326    5.5981  -36.2034 H   0  0  0  0  0  0  0  0  0  0  0  0
   -7.4640    3.8625  -34.7758 H   0  0  0  0  0  0  0  0  0  0  0  0
  1  3  1  0  0  0  0
  1  4  2  0  0  0  0
  2  3  1  0  0  0  0
  3  5  1  0  0  0  0
  1  6  1  0  0  0  0
  2  7  1  0  0  0  0
  2  8  1  0  0  0  0
  2  9  1  0  0  0  0
  3 10  1  0  0  0  0
  5 11  1  0  0  0  0
M  END
> <id>
EN300-1600489

> <smiles>
CC(O)C=O

> <MDLNUMBER>
MFCD21662062

> <IUPAC Name>
2-hydroxypropanal

> <CAS>
598-35-6

> <URL>
https://www.enaminestore.com/catalog/EN300-1600489

> <ROCS_ShapeQuery>
hit0

> <ROCS_TanimotoCombo>
1.050 

> <ROCS_ShapeTanimoto>
0.551 

> <ROCS_ColorTanimoto>
0.500 

> <ROCS_RefTversky>
0.927 

> <ROCS_RefColorTversky>
0.513 

> <ROCS_RefTverskyCombo>
1.440 

> <ROCS_FitTversky>
0.575 

> <ROCS_FitColorTversky>
0.952 

> <ROCS_FitTverskyCombo>
1.527 

> <ROCS_ColorScore>
-2.998

> <ROCS_Overlap>
104.107

> <ROCS_Rank>
133                 

$$$$
untitled-dbase-153169_5
  -OEChem-06232314393D

 20 20  0     0  0  0  0  0  0999 V2000
   -6.1117    8.3292  -37.7445 C   0  0  0  0  0  0  0  0  0  0  0  0
   -5.8412    7.2121  -38.5348 C   0  0  0  0  0  0  0  0  0  0  0  0
   -6.3332    8.1781  -36.3756 C   0  0  0  0  0  0  0  0  0  0  0  0
   -6.0137    5.7927  -36.5873 C   0  0  0  0  0  0  0  0  0  0  0  0
   -5.7922    5.9438  -37.9562 C   0  0  0  0  0  0  0  0  0  0  0  0
   -6.2842    6.9098  -35.7971 C   0  0  0  0  0  0  0  0  0  0  0  0
   -5.9632    4.4665  -35.9823 C   0  0  0  0  0  0  0  0  0  0  0  0
   -4.5645    2.5750  -35.6057 C   0  0  0  0  0  0  0  0  0  0  0  0
   -6.9082    3.9358  -35.3886 O   0  0  0  0  0  0  0  0  0  0  0  0
   -5.5252    4.8660  -38.7470 O   0  0  0  0  0  0  0  0  0  0  0  0
   -6.5028    6.7849  -34.4575 O   0  0  0  0  0  0  0  0  0  0  0  0
   -4.7387    3.8849  -36.1564 O   0  0  0  0  0  0  0  0  0  0  0  0
   -6.1493    9.3170  -38.1950 H   0  0  0  0  0  0  0  0  0  0  0  0
   -5.6700    7.3371  -39.6005 H   0  0  0  0  0  0  0  0  0  0  0  0
   -6.5438    9.0527  -35.7663 H   0  0  0  0  0  0  0  0  0  0  0  0
   -3.5502    2.2244  -35.8115 H   0  0  0  0  0  0  0  0  0  0  0  0
   -5.2942    1.8925  -36.0487 H   0  0  0  0  0  0  0  0  0  0  0  0
   -4.7198    2.6201  -34.5252 H   0  0  0  0  0  0  0  0  0  0  0  0
   -5.5221    4.0545  -38.2161 H   0  0  0  0  0  0  0  0  0  0  0  0
   -6.6741    7.6547  -34.0641 H   0  0  0  0  0  0  0  0  0  0  0  0
  1  2  2  0  0  0  0
  1  3  1  0  0  0  0
  2  5  1  0  0  0  0
  3  6  2  0  0  0  0
  4  5  2  0  0  0  0
  4  6  1  0  0  0  0
  4  7  1  0  0  0  0
  5 10  1  0  0  0  0
  6 11  1  0  0  0  0
  7  9  2  0  0  0  0
  7 12  1  0  0  0  0
  8 12  1  0  0  0  0
  1 13  1  0  0  0  0
  2 14  1  0  0  0  0
  3 15  1  0  0  0  0
  8 16  1  0  0  0  0
  8 17  1  0  0  0  0
  8 18  1  0  0  0  0
 10 19  1  0  0  0  0
 11 20  1  0  0  0  0
M  END
> <id>
EN300-215517

> <smiles>
COC(=O)C=1C(O)=CC=CC1O

> <MDLNUMBER>
MFCD00059619

> <IUPAC Name>
methyl 2,6-dihydroxybenzoate

> <CAS>
2150-45-0

> <Purity>
95

> <URL>
https://www.enaminestore.com/catalog/EN300-215517

> <MP>
56-58

> <ROCS_ShapeQuery>
hit0

> <ROCS_TanimotoCombo>
1.049 

> <ROCS_ShapeTanimoto>
0.363 

> <ROCS_ColorTanimoto>
0.687 

> <ROCS_RefTversky>
1.319 

> <ROCS_RefColorTversky>
0.814 

> <ROCS_RefTverskyCombo>
2.133 

> <ROCS_FitTversky>
0.333 

> <ROCS_FitColorTversky>
0.814 

> <ROCS_FitTverskyCombo>
1.147 

> <ROCS_ColorScore>
-4.886

> <ROCS_Overlap>
171.120

> <ROCS_Rank>
134                 

$$$$
untitled-dbase-132403_24
  -OEChem-06232314393D

 22 22  0     1  0  0  0  0  0999 V2000
   -5.6857    5.7910  -36.1924 C   0  0  0  0  0  0  0  0  0  0  0  0
   -6.5671    4.5321  -34.3178 C   0  0  0  0  0  0  0  0  0  0  0  0
   -5.8160    5.8099  -34.6741 C   0  0  2  0  0  0  0  0  0  0  0  0
   -5.8639    4.3205  -36.5663 C   0  0  2  0  0  0  0  0  0  0  0  0
   -4.5578    3.5237  -36.4268 C   0  0  0  0  0  0  0  0  0  0  0  0
   -6.4142    4.1635  -37.9845 C   0  0  0  0  0  0  0  0  0  0  0  0
   -6.8714    3.8782  -35.5930 N   0  0  0  0  0  0  0  0  0  0  0  0
   -6.5420    6.9513  -34.2491 O   0  0  0  0  0  0  0  0  0  0  0  0
   -5.5062    4.7699  -38.8826 O   0  0  0  0  0  0  0  0  0  0  0  0
   -6.4217    6.4474  -36.6675 H   0  0  0  0  0  0  0  0  0  0  0  0
   -4.6829    6.1437  -36.4608 H   0  0  0  0  0  0  0  0  0  0  0  0
   -5.9311    3.8714  -33.7038 H   0  0  0  0  0  0  0  0  0  0  0  0
   -7.4964    4.7295  -33.7599 H   0  0  0  0  0  0  0  0  0  0  0  0
   -4.8200    5.8506  -34.1846 H   0  0  0  0  0  0  0  0  0  0  0  0
   -4.7336    2.4873  -36.7026 H   0  0  0  0  0  0  0  0  0  0  0  0
   -4.2124    3.5701  -35.3975 H   0  0  0  0  0  0  0  0  0  0  0  0
   -3.8016    3.9486  -37.0815 H   0  0  0  0  0  0  0  0  0  0  0  0
   -7.3820    4.6546  -38.0571 H   0  0  0  0  0  0  0  0  0  0  0  0
   -6.5129    3.1069  -38.2232 H   0  0  0  0  0  0  0  0  0  0  0  0
   -6.8808    2.8670  -35.4849 H   0  0  0  0  0  0  0  0  0  0  0  0
   -7.4186    6.8936  -34.6617 H   0  0  0  0  0  0  0  0  0  0  0  0
   -5.8712    4.6609  -39.7780 H   0  0  0  0  0  0  0  0  0  0  0  0
  1  3  1  0  0  0  0
  1  4  1  0  0  0  0
  2  3  1  0  0  0  0
  2  7  1  0  0  0  0
  3  8  1  0  0  0  0
  4  5  1  0  0  0  0
  4  6  1  0  0  0  0
  4  7  1  0  0  0  0
  6  9  1  0  0  0  0
  1 10  1  0  0  0  0
  1 11  1  0  0  0  0
  2 12  1  0  0  0  0
  2 13  1  0  0  0  0
  3 14  1  0  0  0  0
  5 15  1  0  0  0  0
  5 16  1  0  0  0  0
  5 17  1  0  0  0  0
  6 18  1  0  0  0  0
  6 19  1  0  0  0  0
  7 20  1  0  0  0  0
  8 21  1  0  0  0  0
  9 22  1  0  0  0  0
M  END
> <id>
EN300-307336

> <smiles>
Cl.CC1(CO)CC(O)CN1

> <MDLNUMBER>
MFCD30344836

> <IUPAC Name>
5-(hydroxymethyl)-5-methylpyrrolidin-3-ol hydrochloride

> <CAS>
2031258-53-2

> <Purity>
95

> <URL>
https://www.enaminestore.com/catalog/EN300-307336

> <Saltdate>
Cl

> <ROCS_ShapeQuery>
hit0

> <ROCS_TanimotoCombo>
1.049 

> <ROCS_ShapeTanimoto>
0.433 

> <ROCS_ColorTanimoto>
0.616 

> <ROCS_RefTversky>
1.201 

> <ROCS_RefColorTversky>
0.819 

> <ROCS_RefTverskyCombo>
2.020 

> <ROCS_FitTversky>
0.404 

> <ROCS_FitColorTversky>
0.713 

> <ROCS_FitTverskyCombo>
1.116 

> <ROCS_ColorScore>
-4.955

> <ROCS_Overlap>
146.265

> <ROCS_Rank>
135                 

$$$$
untitled-dbase-161914_24
  -OEChem-06232314393D

 22 22  0     1  0  0  0  0  0999 V2000
   -5.6857    5.7910  -36.1924 C   0  0  0  0  0  0  0  0  0  0  0  0
   -6.5671    4.5321  -34.3178 C   0  0  0  0  0  0  0  0  0  0  0  0
   -5.8160    5.8099  -34.6741 C   0  0  2  0  0  0  0  0  0  0  0  0
   -5.8639    4.3205  -36.5663 C   0  0  2  0  0  0  0  0  0  0  0  0
   -4.5578    3.5237  -36.4268 C   0  0  0  0  0  0  0  0  0  0  0  0
   -6.4142    4.1635  -37.9845 C   0  0  0  0  0  0  0  0  0  0  0  0
   -6.8714    3.8782  -35.5930 N   0  0  0  0  0  0  0  0  0  0  0  0
   -6.5420    6.9513  -34.2491 O   0  0  0  0  0  0  0  0  0  0  0  0
   -5.5062    4.7699  -38.8826 O   0  0  0  0  0  0  0  0  0  0  0  0
   -6.4217    6.4474  -36.6675 H   0  0  0  0  0  0  0  0  0  0  0  0
   -4.6829    6.1437  -36.4608 H   0  0  0  0  0  0  0  0  0  0  0  0
   -5.9311    3.8714  -33.7038 H   0  0  0  0  0  0  0  0  0  0  0  0
   -7.4964    4.7295  -33.7599 H   0  0  0  0  0  0  0  0  0  0  0  0
   -4.8200    5.8506  -34.1846 H   0  0  0  0  0  0  0  0  0  0  0  0
   -4.7336    2.4873  -36.7026 H   0  0  0  0  0  0  0  0  0  0  0  0
   -4.2124    3.5701  -35.3975 H   0  0  0  0  0  0  0  0  0  0  0  0
   -3.8016    3.9486  -37.0815 H   0  0  0  0  0  0  0  0  0  0  0  0
   -7.3820    4.6546  -38.0571 H   0  0  0  0  0  0  0  0  0  0  0  0
   -6.5129    3.1069  -38.2232 H   0  0  0  0  0  0  0  0  0  0  0  0
   -6.8808    2.8670  -35.4849 H   0  0  0  0  0  0  0  0  0  0  0  0
   -7.4186    6.8936  -34.6617 H   0  0  0  0  0  0  0  0  0  0  0  0
   -5.8712    4.6609  -39.7780 H   0  0  0  0  0  0  0  0  0  0  0  0
  1  3  1  0  0  0  0
  1  4  1  0  0  0  0
  2  3  1  0  0  0  0
  2  7  1  0  0  0  0
  3  8  1  0  0  0  0
  4  5  1  0  0  0  0
  4  6  1  0  0  0  0
  4  7  1  0  0  0  0
  6  9  1  0  0  0  0
  1 10  1  0  0  0  0
  1 11  1  0  0  0  0
  2 12  1  0  0  0  0
  2 13  1  0  0  0  0
  3 14  1  0  0  0  0
  5 15  1  0  0  0  0
  5 16  1  0  0  0  0
  5 17  1  0  0  0  0
  6 18  1  0  0  0  0
  6 19  1  0  0  0  0
  7 20  1  0  0  0  0
  8 21  1  0  0  0  0
  9 22  1  0  0  0  0
M  END
> <id>
EN300-307337

> <smiles>
CC1(CO)CC(O)CN1

> <MDLNUMBER>
MFCD30344837

> <IUPAC Name>
5-(hydroxymethyl)-5-methylpyrrolidin-3-ol

> <CAS>
2000434-70-6

> <URL>
https://www.enaminestore.com/catalog/EN300-307337

> <ROCS_ShapeQuery>
hit0

> <ROCS_TanimotoCombo>
1.049 

> <ROCS_ShapeTanimoto>
0.433 

> <ROCS_ColorTanimoto>
0.616 

> <ROCS_RefTversky>
1.201 

> <ROCS_RefColorTversky>
0.819 

> <ROCS_RefTverskyCombo>
2.020 

> <ROCS_FitTversky>
0.404 

> <ROCS_FitColorTversky>
0.713 

> <ROCS_FitTverskyCombo>
1.116 

> <ROCS_ColorScore>
-4.955

> <ROCS_Overlap>
146.265

> <ROCS_Rank>
136                 

$$$$
untitled-dbase-92051_20
  -OEChem-06232314393D

 16 16  0     0  0  0  0  0  0999 V2000
   -7.3453    4.8859  -34.1343 C   0  0  0  0  0  0  0  0  0  0  0  0
   -6.0354    5.4647  -36.0666 C   0  0  0  0  0  0  0  0  0  0  0  0
   -7.4757    3.6149  -34.6704 C   0  0  0  0  0  0  0  0  0  0  0  0
   -6.6098    5.8226  -34.8520 C   0  0  0  0  0  0  0  0  0  0  0  0
   -6.2243    4.1678  -36.5161 C   0  0  0  0  0  0  0  0  0  0  0  0
   -5.6219    3.7489  -37.8156 C   0  0  0  0  0  0  0  0  0  0  0  0
   -6.9322    3.2303  -35.8470 N   0  0  0  0  0  0  0  0  0  0  0  0
   -6.4531    7.0841  -34.3674 O   0  0  0  0  0  0  0  0  0  0  0  0
   -5.5457    4.8725  -38.6839 O   0  0  0  0  0  0  0  0  0  0  0  0
   -7.8044    5.1368  -33.1845 H   0  0  0  0  0  0  0  0  0  0  0  0
   -5.4581    6.1821  -36.6409 H   0  0  0  0  0  0  0  0  0  0  0  0
   -8.0394    2.8478  -34.1498 H   0  0  0  0  0  0  0  0  0  0  0  0
   -4.6108    3.3437  -37.6756 H   0  0  0  0  0  0  0  0  0  0  0  0
   -6.2257    2.9690  -38.2987 H   0  0  0  0  0  0  0  0  0  0  0  0
   -6.9101    7.1773  -33.5161 H   0  0  0  0  0  0  0  0  0  0  0  0
   -4.9875    5.5311  -38.2402 H   0  0  0  0  0  0  0  0  0  0  0  0
  1  3  1  0  0  0  0
  1  4  2  0  0  0  0
  2  4  1  0  0  0  0
  2  5  2  0  0  0  0
  3  7  2  0  0  0  0
  4  8  1  0  0  0  0
  5  6  1  0  0  0  0
  5  7  1  0  0  0  0
  6  9  1  0  0  0  0
  1 10  1  0  0  0  0
  2 11  1  0  0  0  0
  3 12  1  0  0  0  0
  6 13  1  0  0  0  0
  6 14  1  0  0  0  0
  8 15  1  0  0  0  0
  9 16  1  0  0  0  0
M  END
> <id>
EN300-7243012

> <smiles>
OCC=1C=C(O)C=CN1

> <MDLNUMBER>
MFCD13175434

> <IUPAC Name>
2-(hydroxymethyl)pyridin-4-ol

> <CAS>
860411-74-1

> <Purity>
95

> <URL>
https://www.enaminestore.com/catalog/EN300-7243012

> <MP>
196-197

> <ROCS_ShapeQuery>
hit0

> <ROCS_TanimotoCombo>
1.048 

> <ROCS_ShapeTanimoto>
0.437 

> <ROCS_ColorTanimoto>
0.611 

> <ROCS_RefTversky>
1.236 

> <ROCS_RefColorTversky>
0.759 

> <ROCS_RefTverskyCombo>
1.994 

> <ROCS_FitTversky>
0.404 

> <ROCS_FitColorTversky>
0.758 

> <ROCS_FitTverskyCombo>
1.162 

> <ROCS_ColorScore>
-4.552

> <ROCS_Overlap>
151.338

> <ROCS_Rank>
137                 

$$$$
untitled-dbase-2588_23
  -OEChem-06232314393D

 16 15  0     0  0  0  0  0  0999 V2000
   -6.3073    4.9174  -35.6452 C   0  0  0  0  0  0  0  0  0  0  0  0
   -5.7353    4.7177  -38.0334 C   0  0  0  0  0  0  0  0  0  0  0  0
   -5.9275    6.9792  -37.0764 C   0  0  0  0  0  0  0  0  0  0  0  0
   -5.9143    5.6386  -34.3731 C   0  0  0  0  0  0  0  0  0  0  0  0
   -5.9998    5.5368  -36.8569 N   0  0  0  0  0  0  0  0  0  0  0  0
   -6.8827    3.8285  -35.5557 O   0  0  0  0  0  0  0  0  0  0  0  0
   -6.5160    6.9152  -34.3453 O   0  0  0  0  0  0  0  0  0  0  0  0
   -6.6763    4.5356  -38.5731 H   0  0  0  0  0  0  0  0  0  0  0  0
   -5.0294    5.2423  -38.6941 H   0  0  0  0  0  0  0  0  0  0  0  0
   -5.3001    3.7570  -37.7208 H   0  0  0  0  0  0  0  0  0  0  0  0
   -4.9029    7.3293  -36.8825 H   0  0  0  0  0  0  0  0  0  0  0  0
   -6.2014    7.2057  -38.1174 H   0  0  0  0  0  0  0  0  0  0  0  0
   -6.6242    7.4890  -36.3947 H   0  0  0  0  0  0  0  0  0  0  0  0
   -6.2023    5.0648  -33.4884 H   0  0  0  0  0  0  0  0  0  0  0  0
   -4.8263    5.7587  -34.3426 H   0  0  0  0  0  0  0  0  0  0  0  0
   -7.4800    6.7820  -34.3767 H   0  0  0  0  0  0  0  0  0  0  0  0
  1  4  1  0  0  0  0
  1  5  1  0  0  0  0
  1  6  2  0  0  0  0
  2  5  1  0  0  0  0
  3  5  1  0  0  0  0
  4  7  1  0  0  0  0
  2  8  1  0  0  0  0
  2  9  1  0  0  0  0
  2 10  1  0  0  0  0
  3 11  1  0  0  0  0
  3 12  1  0  0  0  0
  3 13  1  0  0  0  0
  4 14  1  0  0  0  0
  4 15  1  0  0  0  0
  7 16  1  0  0  0  0
M  END
> <id>
EN300-54882

> <smiles>
CN(C)C(=O)CO

> <MDLNUMBER>
MFCD12137922

> <IUPAC Name>
2-hydroxy-N,N-dimethylacetamide

> <CAS>
14658-93-6

> <Purity>
95

> <URL>
https://www.enaminestore.com/catalog/EN300-54882

> <MP>
33-34

> <ROCS_ShapeQuery>
hit0

> <ROCS_TanimotoCombo>
1.048 

> <ROCS_ShapeTanimoto>
0.549 

> <ROCS_ColorTanimoto>
0.500 

> <ROCS_RefTversky>
1.159 

> <ROCS_RefColorTversky>
0.513 

> <ROCS_RefTverskyCombo>
1.672 

> <ROCS_FitTversky>
0.510 

> <ROCS_FitColorTversky>
0.951 

> <ROCS_FitTverskyCombo>
1.461 

> <ROCS_ColorScore>
-2.999

> <ROCS_Overlap>
135.309

> <ROCS_Rank>
138                 

$$$$
untitled-dbase-59790_0
  -OEChem-06232314393D

 16 16  0     0  0  0  0  0  0999 V2000
   -5.9603    5.9914  -36.6290 C   0  0  0  0  0  0  0  0  0  0  0  0
   -6.4693    3.6799  -36.8624 C   0  0  0  0  0  0  0  0  0  0  0  0
   -6.8929    4.7122  -34.8541 C   0  0  0  0  0  0  0  0  0  0  0  0
   -5.9802    4.8494  -37.4218 C   0  0  0  0  0  0  0  0  0  0  0  0
   -6.4235    5.9300  -35.3194 C   0  0  0  0  0  0  0  0  0  0  0  0
   -6.9104    6.8740  -33.1916 C   0  0  0  0  0  0  0  0  0  0  0  0
   -6.9278    3.5816  -35.5944 N   0  0  0  0  0  0  0  0  0  0  0  0
   -5.5331    4.8788  -38.7013 O   0  0  0  0  0  0  0  0  0  0  0  0
   -6.4159    7.0279  -34.5236 O   0  0  0  0  0  0  0  0  0  0  0  0
   -5.5839    6.9284  -37.0312 H   0  0  0  0  0  0  0  0  0  0  0  0
   -6.5069    2.7582  -37.4346 H   0  0  0  0  0  0  0  0  0  0  0  0
   -7.2675    4.6059  -33.8407 H   0  0  0  0  0  0  0  0  0  0  0  0
   -6.8467    7.8299  -32.6658 H   0  0  0  0  0  0  0  0  0  0  0  0
   -6.3200    6.1179  -32.6679 H   0  0  0  0  0  0  0  0  0  0  0  0
   -7.9539    6.5533  -33.2346 H   0  0  0  0  0  0  0  0  0  0  0  0
   -5.2244    5.7708  -38.9350 H   0  0  0  0  0  0  0  0  0  0  0  0
  1  4  2  0  0  0  0
  1  5  1  0  0  0  0
  2  4  1  0  0  0  0
  2  7  2  0  0  0  0
  3  5  2  0  0  0  0
  3  7  1  0  0  0  0
  4  8  1  0  0  0  0
  5  9  1  0  0  0  0
  6  9  1  0  0  0  0
  1 10  1  0  0  0  0
  2 11  1  0  0  0  0
  3 12  1  0  0  0  0
  6 13  1  0  0  0  0
  6 14  1  0  0  0  0
  6 15  1  0  0  0  0
  8 16  1  0  0  0  0
M  END
> <id>
EN300-1829452

> <smiles>
COC=1C=NC=C(O)C1

> <MDLNUMBER>
MFCD06797672

> <IUPAC Name>
5-methoxypyridin-3-ol

> <CAS>
109345-94-0

> <Purity>
95

> <URL>
https://www.enaminestore.com/catalog/EN300-1829452

> <MP>
148-149

> <ROCS_ShapeQuery>
hit0

> <ROCS_TanimotoCombo>
1.048 

> <ROCS_ShapeTanimoto>
0.507 

> <ROCS_ColorTanimoto>
0.541 

> <ROCS_RefTversky>
1.373 

> <ROCS_RefColorTversky>
0.649 

> <ROCS_RefTverskyCombo>
2.022 

> <ROCS_FitTversky>
0.445 

> <ROCS_FitColorTversky>
0.765 

> <ROCS_FitTverskyCombo>
1.210 

> <ROCS_ColorScore>
-3.862

> <ROCS_Overlap>
168.412

> <ROCS_Rank>
139                 

$$$$
untitled-dbase-135368_32
  -OEChem-06232314393D

 22 22  0     0  0  0  0  0  0999 V2000
   -6.3632    6.7643  -37.5873 C   0  0  0  0  0  0  0  0  0  0  0  0
   -5.7376    6.1530  -38.6619 C   0  0  0  0  0  0  0  0  0  0  0  0
   -5.8962    4.0779  -37.6888 C   0  0  0  0  0  0  0  0  0  0  0  0
   -6.7634    5.9618  -36.5247 C   0  0  0  0  0  0  0  0  0  0  0  0
   -6.5291    4.5920  -36.5685 C   0  0  0  0  0  0  0  0  0  0  0  0
   -8.4506    5.6662  -34.6168 C   0  0  0  0  0  0  0  0  0  0  0  0
   -8.1583    7.8895  -35.7594 C   0  0  0  0  0  0  0  0  0  0  0  0
   -7.4551    6.5989  -35.3225 C   0  0  0  0  0  0  0  0  0  0  0  0
   -5.4929    4.8258  -38.7403 N   0  0  0  0  0  0  0  0  0  0  0  0
   -6.9009    3.7710  -35.5537 O   0  0  0  0  0  0  0  0  0  0  0  0
   -6.4687    6.9440  -34.3399 O   0  0  0  0  0  0  0  0  0  0  0  0
   -6.5315    7.8358  -37.5836 H   0  0  0  0  0  0  0  0  0  0  0  0
   -5.4043    6.7345  -39.5152 H   0  0  0  0  0  0  0  0  0  0  0  0
   -5.6884    3.0162  -37.7778 H   0  0  0  0  0  0  0  0  0  0  0  0
   -8.9189    6.1701  -33.7627 H   0  0  0  0  0  0  0  0  0  0  0  0
   -9.2529    5.3278  -35.2800 H   0  0  0  0  0  0  0  0  0  0  0  0
   -7.9399    4.7838  -34.2130 H   0  0  0  0  0  0  0  0  0  0  0  0
   -8.6637    8.3668  -34.9118 H   0  0  0  0  0  0  0  0  0  0  0  0
   -8.9013    7.7033  -36.5425 H   0  0  0  0  0  0  0  0  0  0  0  0
   -7.4372    8.6224  -36.1407 H   0  0  0  0  0  0  0  0  0  0  0  0
   -6.6582    2.8514  -35.7538 H   0  0  0  0  0  0  0  0  0  0  0  0
   -6.9534    7.3412  -33.6032 H   0  0  0  0  0  0  0  0  0  0  0  0
  1  2  1  0  0  0  0
  1  4  2  0  0  0  0
  2  9  2  0  0  0  0
  3  5  2  0  0  0  0
  3  9  1  0  0  0  0
  4  5  1  0  0  0  0
  4  8  1  0  0  0  0
  5 10  1  0  0  0  0
  6  8  1  0  0  0  0
  7  8  1  0  0  0  0
  8 11  1  0  0  0  0
  1 12  1  0  0  0  0
  2 13  1  0  0  0  0
  3 14  1  0  0  0  0
  6 15  1  0  0  0  0
  6 16  1  0  0  0  0
  6 17  1  0  0  0  0
  7 18  1  0  0  0  0
  7 19  1  0  0  0  0
  7 20  1  0  0  0  0
 10 21  1  0  0  0  0
 11 22  1  0  0  0  0
M  END
> <id>
EN300-6830260

> <smiles>
CC(C)(O)C=1C=CN=CC1O

> <MDLNUMBER>
MFCD28656261

> <IUPAC Name>
4-(2-hydroxypropan-2-yl)pyridin-3-ol

> <CAS>
1780654-69-4

> <Purity>
95

> <URL>
https://www.enaminestore.com/catalog/EN300-6830260

> <ROCS_ShapeQuery>
hit0

> <ROCS_TanimotoCombo>
1.048 

> <ROCS_ShapeTanimoto>
0.427 

> <ROCS_ColorTanimoto>
0.621 

> <ROCS_RefTversky>
1.386 

> <ROCS_RefColorTversky>
0.824 

> <ROCS_RefTverskyCombo>
2.210 

> <ROCS_FitTversky>
0.381 

> <ROCS_FitColorTversky>
0.716 

> <ROCS_FitTverskyCombo>
1.097 

> <ROCS_ColorScore>
-4.988

> <ROCS_Overlap>
176.092

> <ROCS_Rank>
140                 

$$$$
untitled-dbase-171303_10
  -OEChem-06232314393D

 20 20  0     0  0  0  0  0  0999 V2000
   -6.1728    3.0942  -37.4244 C   0  0  0  0  0  0  0  0  0  0  0  0
   -6.3652    5.3592  -36.6390 C   0  0  0  0  0  0  0  0  0  0  0  0
   -6.0033    4.4582  -37.6342 C   0  0  0  0  0  0  0  0  0  0  0  0
   -6.7041    2.6856  -36.2117 C   0  0  0  0  0  0  0  0  0  0  0  0
   -6.8881    4.8493  -35.4616 C   0  0  0  0  0  0  0  0  0  0  0  0
   -6.8996    1.2292  -35.9520 C   0  0  0  0  0  0  0  0  0  0  0  0
   -7.2864    5.7872  -34.3712 C   0  0  0  0  0  0  0  0  0  0  0  0
   -7.0675    3.5311  -35.2214 N   0  0  0  0  0  0  0  0  0  0  0  0
   -5.4666    4.9255  -38.8509 N   0  0  0  0  0  0  0  0  0  0  0  0
   -6.4639    6.9461  -34.4223 O   0  0  0  0  0  0  0  0  0  0  0  0
   -5.8969    2.3727  -38.1874 H   0  0  0  0  0  0  0  0  0  0  0  0
   -6.2423    6.4287  -36.7802 H   0  0  0  0  0  0  0  0  0  0  0  0
   -6.0023    0.8007  -35.4897 H   0  0  0  0  0  0  0  0  0  0  0  0
   -7.7528    1.0554  -35.2840 H   0  0  0  0  0  0  0  0  0  0  0  0
   -7.1071    0.6840  -36.8817 H   0  0  0  0  0  0  0  0  0  0  0  0
   -8.3355    6.0959  -34.4727 H   0  0  0  0  0  0  0  0  0  0  0  0
   -7.1749    5.3176  -33.3847 H   0  0  0  0  0  0  0  0  0  0  0  0
   -5.1670    4.2640  -39.5390 H   0  0  0  0  0  0  0  0  0  0  0  0
   -5.3065    5.9058  -38.9697 H   0  0  0  0  0  0  0  0  0  0  0  0
   -6.6037    7.3497  -35.2939 H   0  0  0  0  0  0  0  0  0  0  0  0
  1  3  1  0  0  0  0
  1  4  2  0  0  0  0
  2  3  2  0  0  0  0
  2  5  1  0  0  0  0
  3  9  1  0  0  0  0
  4  6  1  0  0  0  0
  4  8  1  0  0  0  0
  5  7  1  0  0  0  0
  5  8  2  0  0  0  0
  7 10  1  0  0  0  0
  1 11  1  0  0  0  0
  2 12  1  0  0  0  0
  6 13  1  0  0  0  0
  6 14  1  0  0  0  0
  6 15  1  0  0  0  0
  7 16  1  0  0  0  0
  7 17  1  0  0  0  0
  9 18  1  0  0  0  0
  9 19  1  0  0  0  0
 10 20  1  0  0  0  0
M  END
> <id>
EN300-7639094

> <smiles>
CC=1C=C(N)C=C(CO)N1

> <MDLNUMBER>
MFCD18816560

> <IUPAC Name>
(4-amino-6-methylpyridin-2-yl)methanol

> <URL>
https://www.enaminestore.com/catalog/EN300-7639094

> <ROCS_ShapeQuery>
hit0

> <ROCS_TanimotoCombo>
1.048 

> <ROCS_ShapeTanimoto>
0.391 

> <ROCS_ColorTanimoto>
0.656 

> <ROCS_RefTversky>
1.217 

> <ROCS_RefColorTversky>
0.793 

> <ROCS_RefTverskyCombo>
2.009 

> <ROCS_FitTversky>
0.366 

> <ROCS_FitColorTversky>
0.792 

> <ROCS_FitTverskyCombo>
1.158 

> <ROCS_ColorScore>
-4.755

> <ROCS_Overlap>
151.508

> <ROCS_Rank>
141                 

$$$$
untitled-dbase-172256_10
  -OEChem-06232314393D

 20 20  0     0  0  0  0  0  0999 V2000
   -6.1728    3.0942  -37.4244 C   0  0  0  0  0  0  0  0  0  0  0  0
   -6.3652    5.3592  -36.6390 C   0  0  0  0  0  0  0  0  0  0  0  0
   -6.0033    4.4582  -37.6342 C   0  0  0  0  0  0  0  0  0  0  0  0
   -6.7041    2.6856  -36.2117 C   0  0  0  0  0  0  0  0  0  0  0  0
   -6.8881    4.8493  -35.4616 C   0  0  0  0  0  0  0  0  0  0  0  0
   -6.8996    1.2292  -35.9520 C   0  0  0  0  0  0  0  0  0  0  0  0
   -7.2864    5.7872  -34.3712 C   0  0  0  0  0  0  0  0  0  0  0  0
   -7.0675    3.5311  -35.2214 N   0  0  0  0  0  0  0  0  0  0  0  0
   -5.4666    4.9255  -38.8509 N   0  0  0  0  0  0  0  0  0  0  0  0
   -6.4639    6.9461  -34.4223 O   0  0  0  0  0  0  0  0  0  0  0  0
   -5.8969    2.3727  -38.1874 H   0  0  0  0  0  0  0  0  0  0  0  0
   -6.2423    6.4287  -36.7802 H   0  0  0  0  0  0  0  0  0  0  0  0
   -6.0023    0.8007  -35.4897 H   0  0  0  0  0  0  0  0  0  0  0  0
   -7.7528    1.0554  -35.2840 H   0  0  0  0  0  0  0  0  0  0  0  0
   -7.1071    0.6840  -36.8817 H   0  0  0  0  0  0  0  0  0  0  0  0
   -8.3355    6.0959  -34.4727 H   0  0  0  0  0  0  0  0  0  0  0  0
   -7.1749    5.3176  -33.3847 H   0  0  0  0  0  0  0  0  0  0  0  0
   -5.1670    4.2640  -39.5390 H   0  0  0  0  0  0  0  0  0  0  0  0
   -5.3065    5.9058  -38.9697 H   0  0  0  0  0  0  0  0  0  0  0  0
   -6.6037    7.3497  -35.2939 H   0  0  0  0  0  0  0  0  0  0  0  0
  1  3  1  0  0  0  0
  1  4  2  0  0  0  0
  2  3  2  0  0  0  0
  2  5  1  0  0  0  0
  3  9  1  0  0  0  0
  4  6  1  0  0  0  0
  4  8  1  0  0  0  0
  5  7  1  0  0  0  0
  5  8  2  0  0  0  0
  7 10  1  0  0  0  0
  1 11  1  0  0  0  0
  2 12  1  0  0  0  0
  6 13  1  0  0  0  0
  6 14  1  0  0  0  0
  6 15  1  0  0  0  0
  7 16  1  0  0  0  0
  7 17  1  0  0  0  0
  9 18  1  0  0  0  0
  9 19  1  0  0  0  0
 10 20  1  0  0  0  0
M  END
> <id>
EN300-39874802

> <smiles>
Cl.CC=1C=C(N)C=C(CO)N1

> <IUPAC Name>
(4-amino-6-methylpyridin-2-yl)methanol hydrochloride

> <Purity>
95

> <URL>
https://www.enaminestore.com/catalog/EN300-39874802

> <ROCS_ShapeQuery>
hit0

> <ROCS_TanimotoCombo>
1.048 

> <ROCS_ShapeTanimoto>
0.391 

> <ROCS_ColorTanimoto>
0.656 

> <ROCS_RefTversky>
1.217 

> <ROCS_RefColorTversky>
0.793 

> <ROCS_RefTverskyCombo>
2.009 

> <ROCS_FitTversky>
0.366 

> <ROCS_FitColorTversky>
0.792 

> <ROCS_FitTverskyCombo>
1.158 

> <ROCS_ColorScore>
-4.755

> <ROCS_Overlap>
151.508

> <ROCS_Rank>
142                 

$$$$
untitled-dbase-7787_31
  -OEChem-06232314393D

 19 18  0     1  0  0  0  0  0999 V2000
   -7.0080    7.5319  -36.5849 C   0  0  0  0  0  0  0  0  0  0  0  0
   -6.3060    4.9655  -37.5987 C   0  0  0  0  0  0  0  0  0  0  0  0
   -4.8151    5.1440  -35.5984 C   0  0  0  0  0  0  0  0  0  0  0  0
   -7.0553    6.3606  -35.6068 C   0  0  1  0  0  0  0  0  0  0  0  0
   -6.2709    5.1107  -36.0717 C   0  0  0  0  0  0  0  0  0  0  0  0
   -6.5152    6.8127  -34.3622 O   0  0  0  0  0  0  0  0  0  0  0  0
   -6.8670    3.9367  -35.5123 O   0  0  0  0  0  0  0  0  0  0  0  0
   -5.9826    7.8434  -36.8000 H   0  0  0  0  0  0  0  0  0  0  0  0
   -7.5677    8.3922  -36.2029 H   0  0  0  0  0  0  0  0  0  0  0  0
   -7.4807    7.2532  -37.5335 H   0  0  0  0  0  0  0  0  0  0  0  0
   -7.3343    4.9378  -37.9761 H   0  0  0  0  0  0  0  0  0  0  0  0
   -5.8461    4.0202  -37.9098 H   0  0  0  0  0  0  0  0  0  0  0  0
   -5.7755    5.7867  -38.0915 H   0  0  0  0  0  0  0  0  0  0  0  0
   -4.7482    5.2471  -34.5103 H   0  0  0  0  0  0  0  0  0  0  0  0
   -4.3071    4.2025  -35.8388 H   0  0  0  0  0  0  0  0  0  0  0  0
   -4.2589    5.9633  -36.0650 H   0  0  0  0  0  0  0  0  0  0  0  0
   -8.1012    6.0861  -35.4236 H   0  0  0  0  0  0  0  0  0  0  0  0
   -6.5547    6.0565  -33.7585 H   0  0  0  0  0  0  0  0  0  0  0  0
   -7.7733    3.9052  -35.8514 H   0  0  0  0  0  0  0  0  0  0  0  0
  1  4  1  0  0  0  0
  2  5  1  0  0  0  0
  3  5  1  0  0  0  0
  4  5  1  0  0  0  0
  4  6  1  0  0  0  0
  5  7  1  0  0  0  0
  1  8  1  0  0  0  0
  1  9  1  0  0  0  0
  1 10  1  0  0  0  0
  2 11  1  0  0  0  0
  2 12  1  0  0  0  0
  2 13  1  0  0  0  0
  3 14  1  0  0  0  0
  3 15  1  0  0  0  0
  3 16  1  0  0  0  0
  4 17  1  0  0  0  0
  6 18  1  0  0  0  0
  7 19  1  0  0  0  0
M  END
> <id>
EN300-119724

> <smiles>
CC(O)C(C)(C)O

> <MDLNUMBER>
MFCD00154004

> <IUPAC Name>
2-methylbutane-2,3-diol

> <CAS>
5396-58-7

> <URL>
https://www.enaminestore.com/catalog/EN300-119724

> <MP>
23-24

> <ROCS_ShapeQuery>
hit0

> <ROCS_TanimotoCombo>
1.048 

> <ROCS_ShapeTanimoto>
0.489 

> <ROCS_ColorTanimoto>
0.558 

> <ROCS_RefTversky>
1.061 

> <ROCS_RefColorTversky>
0.662 

> <ROCS_RefTverskyCombo>
1.723 

> <ROCS_FitTversky>
0.476 

> <ROCS_FitColorTversky>
0.780 

> <ROCS_FitTverskyCombo>
1.256 

> <ROCS_ColorScore>
-3.941

> <ROCS_Overlap>
123.465

> <ROCS_Rank>
143                 

$$$$
untitled-dbase-147320_31
  -OEChem-06232314393D

 19 18  0     1  0  0  0  0  0999 V2000
   -7.0080    7.5319  -36.5849 C   0  0  0  0  0  0  0  0  0  0  0  0
   -6.3060    4.9655  -37.5987 C   0  0  0  0  0  0  0  0  0  0  0  0
   -4.8151    5.1440  -35.5984 C   0  0  0  0  0  0  0  0  0  0  0  0
   -7.0553    6.3606  -35.6068 C   0  0  1  0  0  0  0  0  0  0  0  0
   -6.2709    5.1107  -36.0717 C   0  0  0  0  0  0  0  0  0  0  0  0
   -6.5152    6.8127  -34.3622 O   0  0  0  0  0  0  0  0  0  0  0  0
   -6.8670    3.9367  -35.5123 O   0  0  0  0  0  0  0  0  0  0  0  0
   -5.9826    7.8434  -36.8000 H   0  0  0  0  0  0  0  0  0  0  0  0
   -7.5677    8.3922  -36.2029 H   0  0  0  0  0  0  0  0  0  0  0  0
   -7.4807    7.2532  -37.5335 H   0  0  0  0  0  0  0  0  0  0  0  0
   -7.3343    4.9378  -37.9761 H   0  0  0  0  0  0  0  0  0  0  0  0
   -5.8461    4.0202  -37.9098 H   0  0  0  0  0  0  0  0  0  0  0  0
   -5.7755    5.7867  -38.0915 H   0  0  0  0  0  0  0  0  0  0  0  0
   -4.7482    5.2471  -34.5103 H   0  0  0  0  0  0  0  0  0  0  0  0
   -4.3071    4.2025  -35.8388 H   0  0  0  0  0  0  0  0  0  0  0  0
   -4.2589    5.9633  -36.0650 H   0  0  0  0  0  0  0  0  0  0  0  0
   -8.1012    6.0861  -35.4236 H   0  0  0  0  0  0  0  0  0  0  0  0
   -6.5547    6.0565  -33.7585 H   0  0  0  0  0  0  0  0  0  0  0  0
   -7.7733    3.9052  -35.8514 H   0  0  0  0  0  0  0  0  0  0  0  0
  1  4  1  1  0  0  0
  2  5  1  0  0  0  0
  3  5  1  0  0  0  0
  4  5  1  0  0  0  0
  4  6  1  0  0  0  0
  5  7  1  0  0  0  0
  1  8  1  0  0  0  0
  1  9  1  0  0  0  0
  1 10  1  0  0  0  0
  2 11  1  0  0  0  0
  2 12  1  0  0  0  0
  2 13  1  0  0  0  0
  3 14  1  0  0  0  0
  3 15  1  0  0  0  0
  3 16  1  0  0  0  0
  4 17  1  0  0  0  0
  6 18  1  0  0  0  0
  7 19  1  0  0  0  0
M  END
> <id>
EN300-1670377

> <smiles>
C[C@H](O)C(C)(C)O

> <MDLNUMBER>
MFCD34168355

> <IUPAC Name>
(3S)-2-methylbutane-2,3-diol

> <CAS>
24347-59-9

> <Purity>
95

> <URL>
https://www.enaminestore.com/catalog/EN300-1670377

> <ROCS_ShapeQuery>
hit0

> <ROCS_TanimotoCombo>
1.048 

> <ROCS_ShapeTanimoto>
0.489 

> <ROCS_ColorTanimoto>
0.558 

> <ROCS_RefTversky>
1.061 

> <ROCS_RefColorTversky>
0.662 

> <ROCS_RefTverskyCombo>
1.723 

> <ROCS_FitTversky>
0.476 

> <ROCS_FitColorTversky>
0.780 

> <ROCS_FitTverskyCombo>
1.256 

> <ROCS_ColorScore>
-3.941

> <ROCS_Overlap>
123.465

> <ROCS_Rank>
144                 

$$$$
untitled-dbase-18079_39
  -OEChem-06232314393D

 18 18  0     1  0  0  0  0  0999 V2000
   -7.4872    5.6951  -36.8290 C   0  0  0  0  0  0  0  0  0  0  0  0
   -7.5889    6.6512  -35.6553 C   0  0  0  0  0  0  0  0  0  0  0  0
   -5.4582    5.6905  -35.6235 C   0  0  0  0  0  0  0  0  0  0  0  0
   -6.3800    4.7581  -36.3921 C   0  0  2  0  0  0  0  0  0  0  0  0
   -5.6949    4.0383  -37.5405 C   0  0  0  0  0  0  0  0  0  0  0  0
   -6.2982    6.6974  -35.0321 O   0  0  0  0  0  0  0  0  0  0  0  0
   -6.9058    3.7660  -35.5107 O   0  0  0  0  0  0  0  0  0  0  0  0
   -5.5446    4.9426  -38.6224 O   0  0  0  0  0  0  0  0  0  0  0  0
   -8.4426    5.2000  -37.0270 H   0  0  0  0  0  0  0  0  0  0  0  0
   -7.1910    6.2545  -37.7246 H   0  0  0  0  0  0  0  0  0  0  0  0
   -7.8860    7.6582  -35.9620 H   0  0  0  0  0  0  0  0  0  0  0  0
   -8.3055    6.2897  -34.9103 H   0  0  0  0  0  0  0  0  0  0  0  0
   -4.9034    5.1907  -34.8237 H   0  0  0  0  0  0  0  0  0  0  0  0
   -4.7516    6.2064  -36.2829 H   0  0  0  0  0  0  0  0  0  0  0  0
   -6.2977    3.1884  -37.8682 H   0  0  0  0  0  0  0  0  0  0  0  0
   -4.7083    3.6855  -37.2319 H   0  0  0  0  0  0  0  0  0  0  0  0
   -7.2739    4.2422  -34.7513 H   0  0  0  0  0  0  0  0  0  0  0  0
   -5.0017    5.6816  -38.3008 H   0  0  0  0  0  0  0  0  0  0  0  0
  1  2  1  0  0  0  0
  1  4  1  0  0  0  0
  2  6  1  0  0  0  0
  3  4  1  0  0  0  0
  3  6  1  0  0  0  0
  4  5  1  0  0  0  0
  4  7  1  0  0  0  0
  5  8  1  0  0  0  0
  1  9  1  0  0  0  0
  1 10  1  0  0  0  0
  2 11  1  0  0  0  0
  2 12  1  0  0  0  0
  3 13  1  0  0  0  0
  3 14  1  0  0  0  0
  5 15  1  0  0  0  0
  5 16  1  0  0  0  0
  7 17  1  0  0  0  0
  8 18  1  0  0  0  0
M  END
> <id>
EN300-206838

> <smiles>
OCC1(O)CCOC1

> <MDLNUMBER>
MFCD24287575

> <IUPAC Name>
3-(hydroxymethyl)oxolan-3-ol

> <CAS>
1232677-89-2

> <Purity>
95

> <URL>
https://www.enaminestore.com/catalog/EN300-206838

> <ROCS_ShapeQuery>
hit0

> <ROCS_TanimotoCombo>
1.048 

> <ROCS_ShapeTanimoto>
0.456 

> <ROCS_ColorTanimoto>
0.591 

> <ROCS_RefTversky>
1.159 

> <ROCS_RefColorTversky>
0.743 

> <ROCS_RefTverskyCombo>
1.902 

> <ROCS_FitTversky>
0.430 

> <ROCS_FitColorTversky>
0.743 

> <ROCS_FitTverskyCombo>
1.172 

> <ROCS_ColorScore>
-4.459

> <ROCS_Overlap>
138.805

> <ROCS_Rank>
145                 

$$$$
untitled-dbase-85392_2
  -OEChem-06232314393D

 16 16  0     0  0  0  0  0  0999 V2000
   -5.8014    6.0976  -37.9186 C   0  0  0  0  0  0  0  0  0  0  0  0
   -6.3845    5.9016  -36.6548 C   0  0  0  0  0  0  0  0  0  0  0  0
   -6.4555    4.5388  -36.5367 C   0  0  0  0  0  0  0  0  0  0  0  0
   -6.8147    6.8689  -35.6922 C   0  0  0  0  0  0  0  0  0  0  0  0
   -8.3014    8.7214  -35.3164 C   0  0  0  0  0  0  0  0  0  0  0  0
   -5.5314    4.9446  -38.5371 N   0  0  0  0  0  0  0  0  0  0  0  0
   -6.9137    3.7266  -35.5622 N   0  0  0  0  0  0  0  0  0  0  0  0
   -6.3767    6.9720  -34.5243 O   0  0  0  0  0  0  0  0  0  0  0  0
   -5.9494    3.9565  -37.6537 O   0  0  0  0  0  0  0  0  0  0  0  0
   -7.7889    7.7069  -36.1869 O   0  0  0  0  0  0  0  0  0  0  0  0
   -5.5603    7.0250  -38.4178 H   0  0  0  0  0  0  0  0  0  0  0  0
   -9.0615    9.3041  -35.8425 H   0  0  0  0  0  0  0  0  0  0  0  0
   -7.4851    9.3732  -34.9949 H   0  0  0  0  0  0  0  0  0  0  0  0
   -8.7510    8.2455  -34.4418 H   0  0  0  0  0  0  0  0  0  0  0  0
   -7.2693    4.0909  -34.6652 H   0  0  0  0  0  0  0  0  0  0  0  0
   -6.8446    2.6994  -35.6257 H   0  0  0  0  0  0  0  0  0  0  0  0
  1  2  1  0  0  0  0
  1  6  2  0  0  0  0
  2  3  2  0  0  0  0
  2  4  1  0  0  0  0
  3  7  1  0  0  0  0
  3  9  1  0  0  0  0
  4  8  2  0  0  0  0
  4 10  1  0  0  0  0
  5 10  1  0  0  0  0
  6  9  1  0  0  0  0
  1 11  1  0  0  0  0
  5 12  1  0  0  0  0
  5 13  1  0  0  0  0
  5 14  1  0  0  0  0
  7 15  1  0  0  0  0
  7 16  1  0  0  0  0
M  END
> <id>
EN300-1699775

> <smiles>
COC(=O)C=1C=NOC1N

> <MDLNUMBER>
MFCD02936655

> <IUPAC Name>
methyl 5-amino-1,2-oxazole-4-carboxylate

> <CAS>
145798-74-9

> <Purity>
95

> <URL>
https://www.enaminestore.com/catalog/EN300-1699775

> <ROCS_ShapeQuery>
hit0

> <ROCS_TanimotoCombo>
1.047 

> <ROCS_ShapeTanimoto>
0.509 

> <ROCS_ColorTanimoto>
0.538 

> <ROCS_RefTversky>
1.489 

> <ROCS_RefColorTversky>
0.647 

> <ROCS_RefTverskyCombo>
2.136 

> <ROCS_FitTversky>
0.436 

> <ROCS_FitColorTversky>
0.762 

> <ROCS_FitTverskyCombo>
1.198 

> <ROCS_ColorScore>
-3.847

> <ROCS_Overlap>
186.544

> <ROCS_Rank>
146                 

$$$$
untitled-dbase-3911_5
  -OEChem-06232314393D

 15 15  0     0  0  0  0  0  0999 V2000
   -5.7186    6.0629  -38.1999 C   0  0  0  0  0  0  0  0  0  0  0  0
   -6.2495    5.9751  -36.8990 C   0  0  0  0  0  0  0  0  0  0  0  0
   -6.3814    4.6269  -36.6722 C   0  0  0  0  0  0  0  0  0  0  0  0
   -6.5876    7.0271  -35.9881 C   0  0  0  0  0  0  0  0  0  0  0  0
   -5.5263    4.8657  -38.7601 N   0  0  0  0  0  0  0  0  0  0  0  0
   -5.9384    4.0130  -37.8067 N   0  0  0  0  0  0  0  0  0  0  0  0
   -6.8263    3.8975  -35.6306 N   0  0  0  0  0  0  0  0  0  0  0  0
   -6.9967    8.2421  -36.5170 N   0  0  0  0  0  0  0  0  0  0  0  0
   -6.5273    6.8206  -34.3149 S   0  0  0  0  0  0  0  0  0  0  0  0
   -5.4624    6.9476  -38.7656 H   0  0  0  0  0  0  0  0  0  0  0  0
   -5.8903    3.0199  -37.9967 H   0  0  0  0  0  0  0  0  0  0  0  0
   -7.1235    4.3302  -34.7417 H   0  0  0  0  0  0  0  0  0  0  0  0
   -6.8048    2.8655  -35.6317 H   0  0  0  0  0  0  0  0  0  0  0  0
   -7.2548    9.0240  -35.9233 H   0  0  0  0  0  0  0  0  0  0  0  0
   -7.0644    8.3931  -37.5181 H   0  0  0  0  0  0  0  0  0  0  0  0
  1  2  1  0  0  0  0
  1  5  2  0  0  0  0
  2  3  2  0  0  0  0
  2  4  1  0  0  0  0
  3  6  1  0  0  0  0
  3  7  1  0  0  0  0
  4  8  1  0  0  0  0
  4  9  2  0  0  0  0
  5  6  1  0  0  0  0
  1 10  1  0  0  0  0
  6 11  1  0  0  0  0
  7 12  1  0  0  0  0
  7 13  1  0  0  0  0
  8 14  1  0  0  0  0
  8 15  1  0  0  0  0
M  END
> <id>
EN300-80541

> <smiles>
NC(=S)C=1C=NNC1N

> <MDLNUMBER>
MFCD07364430

> <IUPAC Name>
5-amino-1H-pyrazole-4-carbothioamide

> <CAS>
34954-13-7

> <Purity>
95

> <URL>
https://www.enaminestore.com/catalog/EN300-80541

> <ROCS_ShapeQuery>
hit0

> <ROCS_TanimotoCombo>
1.046 

> <ROCS_ShapeTanimoto>
0.525 

> <ROCS_ColorTanimoto>
0.521 

> <ROCS_RefTversky>
1.396 

> <ROCS_RefColorTversky>
0.685 

> <ROCS_RefTverskyCombo>
2.082 

> <ROCS_FitTversky>
0.457 

> <ROCS_FitColorTversky>
0.684 

> <ROCS_FitTverskyCombo>
1.142 

> <ROCS_ColorScore>
-4.112

> <ROCS_Overlap>
170.958

> <ROCS_Rank>
147                 

$$$$
untitled-dbase-2970_30
  -OEChem-06232314393D

 16 15  0     0  0  0  0  0  0999 V2000
   -4.7375    5.0780  -35.5653 C   0  0  0  0  0  0  0  0  0  0  0  0
   -6.1777    4.8488  -37.6089 C   0  0  0  0  0  0  0  0  0  0  0  0
   -6.8849    6.3779  -35.7100 C   0  0  0  0  0  0  0  0  0  0  0  0
   -6.1719    5.0762  -36.0969 C   0  0  0  0  0  0  0  0  0  0  0  0
   -6.5197    6.7713  -34.3919 O   0  0  0  0  0  0  0  0  0  0  0  0
   -6.8656    3.9772  -35.5002 O   0  0  0  0  0  0  0  0  0  0  0  0
   -4.7231    5.2404  -34.4815 H   0  0  0  0  0  0  0  0  0  0  0  0
   -4.2260    4.1346  -35.7823 H   0  0  0  0  0  0  0  0  0  0  0  0
   -4.1575    5.8960  -36.0077 H   0  0  0  0  0  0  0  0  0  0  0  0
   -7.1980    4.8444  -38.0081 H   0  0  0  0  0  0  0  0  0  0  0  0
   -5.7514    3.8694  -37.8557 H   0  0  0  0  0  0  0  0  0  0  0  0
   -5.6011    5.6179  -38.1331 H   0  0  0  0  0  0  0  0  0  0  0  0
   -6.6015    7.1920  -36.3860 H   0  0  0  0  0  0  0  0  0  0  0  0
   -7.9727    6.2534  -35.7403 H   0  0  0  0  0  0  0  0  0  0  0  0
   -5.5581    6.9005  -34.3965 H   0  0  0  0  0  0  0  0  0  0  0  0
   -6.8390    4.1266  -34.5437 H   0  0  0  0  0  0  0  0  0  0  0  0
  1  4  1  0  0  0  0
  2  4  1  0  0  0  0
  3  4  1  0  0  0  0
  3  5  1  0  0  0  0
  4  6  1  0  0  0  0
  1  7  1  0  0  0  0
  1  8  1  0  0  0  0
  1  9  1  0  0  0  0
  2 10  1  0  0  0  0
  2 11  1  0  0  0  0
  2 12  1  0  0  0  0
  3 13  1  0  0  0  0
  3 14  1  0  0  0  0
  5 15  1  0  0  0  0
  6 16  1  0  0  0  0
M  END
> <id>
EN300-65111

> <smiles>
CC(C)(O)CO

> <MDLNUMBER>
MFCD00971926

> <IUPAC Name>
2-methylpropane-1,2-diol

> <CAS>
558-43-0

> <Purity>
95

> <URL>
https://www.enaminestore.com/catalog/EN300-65111

> <ROCS_ShapeQuery>
hit0

> <ROCS_TanimotoCombo>
1.046 

> <ROCS_ShapeTanimoto>
0.499 

> <ROCS_ColorTanimoto>
0.547 

> <ROCS_RefTversky>
0.970 

> <ROCS_RefColorTversky>
0.654 

> <ROCS_RefTverskyCombo>
1.624 

> <ROCS_FitTversky>
0.506 

> <ROCS_FitColorTversky>
0.770 

> <ROCS_FitTverskyCombo>
1.277 

> <ROCS_ColorScore>
-3.891

> <ROCS_Overlap>
110.874

> <ROCS_Rank>
148                 

$$$$
untitled-dbase-5557_1
  -OEChem-06232314393D

 13 12  0     1  0  0  0  0  0999 V2000
   -6.0059    5.1267  -37.6452 C   0  0  0  0  0  0  0  0  0  0  0  0
   -6.5889    4.2103  -35.4403 C   0  0  0  0  0  0  0  0  0  0  0  0
   -5.9042    6.6166  -35.6761 C   0  0  0  0  0  0  0  0  0  0  0  0
   -6.6243    5.4419  -36.3421 C   0  0  1  0  0  0  0  0  0  0  0  0
   -5.5224    4.8801  -38.6709 N   0  0  0  0  0  0  0  0  0  0  0  0
   -6.4940    6.8792  -34.4074 O   0  0  0  0  0  0  0  0  0  0  0  0
   -5.5568    3.9035  -35.2404 H   0  0  0  0  0  0  0  0  0  0  0  0
   -7.1122    3.3626  -35.8977 H   0  0  0  0  0  0  0  0  0  0  0  0
   -7.0699    4.4152  -34.4770 H   0  0  0  0  0  0  0  0  0  0  0  0
   -4.8489    6.3767  -35.5077 H   0  0  0  0  0  0  0  0  0  0  0  0
   -5.9648    7.5269  -36.2833 H   0  0  0  0  0  0  0  0  0  0  0  0
   -7.6706    5.7203  -36.5208 H   0  0  0  0  0  0  0  0  0  0  0  0
   -6.0083    7.6267  -34.0245 H   0  0  0  0  0  0  0  0  0  0  0  0
  1  4  1  0  0  0  0
  1  5  3  0  0  0  0
  2  4  1  0  0  0  0
  3  4  1  0  0  0  0
  3  6  1  0  0  0  0
  2  7  1  0  0  0  0
  2  8  1  0  0  0  0
  2  9  1  0  0  0  0
  3 10  1  0  0  0  0
  3 11  1  0  0  0  0
  4 12  1  0  0  0  0
  6 13  1  0  0  0  0
M  END
> <id>
EN300-112802

> <smiles>
CC(CO)C#N

> <MDLNUMBER>
MFCD11653306

> <IUPAC Name>
3-hydroxy-2-methylpropanenitrile

> <CAS>
2567-01-3

> <Purity>
95

> <URL>
https://www.enaminestore.com/catalog/EN300-112802

> <ROCS_ShapeQuery>
hit0

> <ROCS_TanimotoCombo>
1.046 

> <ROCS_ShapeTanimoto>
0.624 

> <ROCS_ColorTanimoto>
0.421 

> <ROCS_RefTversky>
1.115 

> <ROCS_RefColorTversky>
0.503 

> <ROCS_RefTverskyCombo>
1.617 

> <ROCS_FitTversky>
0.587 

> <ROCS_FitColorTversky>
0.723 

> <ROCS_FitTverskyCombo>
1.310 

> <ROCS_ColorScore>
-2.965

> <ROCS_Overlap>
127.241

> <ROCS_Rank>
149                 

$$$$
untitled-dbase-13477_2
  -OEChem-06232314393D

 21 21  0     0  0  0  0  0  0999 V2000
   -6.3863    7.0121  -36.9313 C   0  0  0  0  0  0  0  0  0  0  0  0
   -6.5971    5.6475  -36.8411 C   0  0  0  0  0  0  0  0  0  0  0  0
   -6.3085    7.7328  -35.7566 C   0  0  0  0  0  0  0  0  0  0  0  0
   -6.7158    5.0938  -35.5822 C   0  0  0  0  0  0  0  0  0  0  0  0
   -6.2477    7.6821  -38.2569 C   0  0  0  0  0  0  0  0  0  0  0  0
   -6.0829    9.2073  -35.7736 C   0  0  0  0  0  0  0  0  0  0  0  0
   -6.6935    4.7978  -38.0632 C   0  0  0  0  0  0  0  0  0  0  0  0
   -6.4283    7.1647  -34.5379 N   0  0  0  0  0  0  0  0  0  0  0  0
   -6.6351    5.8234  -34.4494 N   0  0  0  0  0  0  0  0  0  0  0  0
   -6.9250    3.7499  -35.4328 O   0  0  0  0  0  0  0  0  0  0  0  0
   -5.4837    4.8974  -38.8043 O   0  0  0  0  0  0  0  0  0  0  0  0
   -7.2283    8.0086  -38.6238 H   0  0  0  0  0  0  0  0  0  0  0  0
   -5.5903    8.5587  -38.1932 H   0  0  0  0  0  0  0  0  0  0  0  0
   -5.8051    7.0062  -39.0001 H   0  0  0  0  0  0  0  0  0  0  0  0
   -7.0412    9.7396  -35.8058 H   0  0  0  0  0  0  0  0  0  0  0  0
   -5.5317    9.5361  -34.8832 H   0  0  0  0  0  0  0  0  0  0  0  0
   -5.4875    9.5089  -36.6452 H   0  0  0  0  0  0  0  0  0  0  0  0
   -6.8616    3.7431  -37.8057 H   0  0  0  0  0  0  0  0  0  0  0  0
   -7.5272    5.1170  -38.7035 H   0  0  0  0  0  0  0  0  0  0  0  0
   -6.9843    3.5285  -34.4923 H   0  0  0  0  0  0  0  0  0  0  0  0
   -5.5884    4.3326  -39.5867 H   0  0  0  0  0  0  0  0  0  0  0  0
  1  2  2  0  0  0  0
  1  3  1  0  0  0  0
  1  5  1  0  0  0  0
  2  4  1  0  0  0  0
  2  7  1  0  0  0  0
  3  6  1  0  0  0  0
  3  8  2  0  0  0  0
  4  9  2  0  0  0  0
  4 10  1  0  0  0  0
  7 11  1  0  0  0  0
  8  9  1  0  0  0  0
  5 12  1  0  0  0  0
  5 13  1  0  0  0  0
  5 14  1  0  0  0  0
  6 15  1  0  0  0  0
  6 16  1  0  0  0  0
  6 17  1  0  0  0  0
  7 18  1  0  0  0  0
  7 19  1  0  0  0  0
 10 20  1  0  0  0  0
 11 21  1  0  0  0  0
M  END
> <id>
EN300-202570

> <smiles>
CC=1N=NC(O)=C(CO)C1C

> <MDLNUMBER>
MFCD28505687

> <IUPAC Name>
4-(hydroxymethyl)-5,6-dimethylpyridazin-3-ol

> <CAS>
23372-17-0

> <Purity>
95

> <URL>
https://www.enaminestore.com/catalog/EN300-202570

> <ROCS_ShapeQuery>
hit0

> <ROCS_TanimotoCombo>
1.045 

> <ROCS_ShapeTanimoto>
0.415 

> <ROCS_ColorTanimoto>
0.630 

> <ROCS_RefTversky>
1.357 

> <ROCS_RefColorTversky>
0.849 

> <ROCS_RefTverskyCombo>
2.205 

> <ROCS_FitTversky>
0.374 

> <ROCS_FitColorTversky>
0.709 

> <ROCS_FitTverskyCombo>
1.083 

> <ROCS_ColorScore>
-5.147

> <ROCS_Overlap>
172.306

> <ROCS_Rank>
150                 

$$$$
untitled-dbase-171862_3
  -OEChem-06232314393D

 12 11  0     0  0  0  0  0  0999 V2000
   -6.4445    4.8673  -35.4159 C   0  0  0  0  0  0  0  0  0  0  0  0
   -5.8116    5.1195  -37.6809 C   0  0  0  0  0  0  0  0  0  0  0  0
   -6.4430    5.5896  -34.0944 C   0  0  0  0  0  0  0  0  0  0  0  0
   -6.8841    3.7402  -35.5984 O   0  0  0  0  0  0  0  0  0  0  0  0
   -6.5120    6.9811  -34.3344 O   0  0  0  0  0  0  0  0  0  0  0  0
   -5.8805    5.6732  -36.3629 O   0  0  0  0  0  0  0  0  0  0  0  0
   -5.3463    5.8416  -38.3564 H   0  0  0  0  0  0  0  0  0  0  0  0
   -6.8190    4.8764  -38.0281 H   0  0  0  0  0  0  0  0  0  0  0  0
   -5.2083    4.2090  -37.6529 H   0  0  0  0  0  0  0  0  0  0  0  0
   -5.5161    5.3687  -33.5583 H   0  0  0  0  0  0  0  0  0  0  0  0
   -7.3166    5.2867  -33.5109 H   0  0  0  0  0  0  0  0  0  0  0  0
   -5.7304    7.2212  -34.8620 H   0  0  0  0  0  0  0  0  0  0  0  0
  1  3  1  0  0  0  0
  1  4  2  0  0  0  0
  1  6  1  0  0  0  0
  2  6  1  0  0  0  0
  3  5  1  0  0  0  0
  2  7  1  0  0  0  0
  2  8  1  0  0  0  0
  2  9  1  0  0  0  0
  3 10  1  0  0  0  0
  3 11  1  0  0  0  0
  5 12  1  0  0  0  0
M  END
> <id>
EN300-42324

> <smiles>
COC(=O)CO

> <MDLNUMBER>
MFCD00004667

> <IUPAC Name>
methyl 2-hydroxyacetate

> <CAS>
96-35-5

> <Purity>
95

> <URL>
https://www.enaminestore.com/catalog/EN300-42324

> <MP>
268.5-269.5

> <ROCS_ShapeQuery>
hit0

> <ROCS_TanimotoCombo>
1.044 

> <ROCS_ShapeTanimoto>
0.549 

> <ROCS_ColorTanimoto>
0.496 

> <ROCS_RefTversky>
1.054 

> <ROCS_RefColorTversky>
0.510 

> <ROCS_RefTverskyCombo>
1.564 

> <ROCS_FitTversky>
0.533 

> <ROCS_FitColorTversky>
0.947 

> <ROCS_FitTverskyCombo>
1.480 

> <ROCS_ColorScore>
-2.983

> <ROCS_Overlap>
120.926

> <ROCS_Rank>
151                 

$$$$
untitled-dbase-100023_4
  -OEChem-06232314393D

 17 17  0     0  0  0  0  0  0999 V2000
   -5.8160    6.1322  -37.8872 C   0  0  0  0  0  0  0  0  0  0  0  0
   -5.9117    3.9601  -37.7375 C   0  0  0  0  0  0  0  0  0  0  0  0
   -6.3823    5.8582  -36.6640 C   0  0  0  0  0  0  0  0  0  0  0  0
   -6.4443    4.4475  -36.5667 C   0  0  0  0  0  0  0  0  0  0  0  0
   -6.8048    6.8494  -35.7184 C   0  0  0  0  0  0  0  0  0  0  0  0
   -8.2741    8.7201  -35.3804 C   0  0  0  0  0  0  0  0  0  0  0  0
   -6.9241    3.7142  -35.5418 N   0  0  0  0  0  0  0  0  0  0  0  0
   -6.3654    6.9689  -34.5543 O   0  0  0  0  0  0  0  0  0  0  0  0
   -5.5264    4.9806  -38.5479 O   0  0  0  0  0  0  0  0  0  0  0  0
   -7.7706    7.6846  -36.2312 O   0  0  0  0  0  0  0  0  0  0  0  0
   -5.5646    7.0437  -38.4103 H   0  0  0  0  0  0  0  0  0  0  0  0
   -5.7434    2.9669  -38.1290 H   0  0  0  0  0  0  0  0  0  0  0  0
   -9.0289    9.2994  -35.9178 H   0  0  0  0  0  0  0  0  0  0  0  0
   -7.4521    9.3706  -35.0710 H   0  0  0  0  0  0  0  0  0  0  0  0
   -8.7282    8.2649  -34.4970 H   0  0  0  0  0  0  0  0  0  0  0  0
   -7.2673    4.1461  -34.6701 H   0  0  0  0  0  0  0  0  0  0  0  0
   -6.8854    2.6834  -35.5382 H   0  0  0  0  0  0  0  0  0  0  0  0
  1  3  2  0  0  0  0
  1  9  1  0  0  0  0
  2  4  2  0  0  0  0
  2  9  1  0  0  0  0
  3  4  1  0  0  0  0
  3  5  1  0  0  0  0
  4  7  1  0  0  0  0
  5  8  2  0  0  0  0
  5 10  1  0  0  0  0
  6 10  1  0  0  0  0
  1 11  1  0  0  0  0
  2 12  1  0  0  0  0
  6 13  1  0  0  0  0
  6 14  1  0  0  0  0
  6 15  1  0  0  0  0
  7 16  1  0  0  0  0
  7 17  1  0  0  0  0
M  END
> <id>
EN300-6977698

> <smiles>
COC(=O)C1=COC=C1N

> <MDLNUMBER>
MFCD19215925

> <IUPAC Name>
methyl 4-aminofuran-3-carboxylate

> <CAS>
1082736-52-4

> <URL>
https://www.enaminestore.com/catalog/EN300-6977698

> <ROCS_ShapeQuery>
hit0

> <ROCS_TanimotoCombo>
1.044 

> <ROCS_ShapeTanimoto>
0.512 

> <ROCS_ColorTanimoto>
0.533 

> <ROCS_RefTversky>
1.491 

> <ROCS_RefColorTversky>
0.643 

> <ROCS_RefTverskyCombo>
2.133 

> <ROCS_FitTversky>
0.438 

> <ROCS_FitColorTversky>
0.757 

> <ROCS_FitTverskyCombo>
1.195 

> <ROCS_ColorScore>
-3.824

> <ROCS_Overlap>
186.593

> <ROCS_Rank>
152                 

$$$$
untitled-dbase-152222_2
  -OEChem-06232314393D

 11 10  0     0  0  0  0  0  0999 V2000
   -5.8385    5.1114  -37.6061 C   0  0  0  0  0  0  0  0  0  0  0  0
   -6.6628    4.4221  -35.4741 C   0  0  0  0  0  0  0  0  0  0  0  0
   -6.2106    5.4107  -36.2603 C   0  0  0  0  0  0  0  0  0  0  0  0
   -6.0582    6.8154  -35.7495 C   0  0  0  0  0  0  0  0  0  0  0  0
   -5.5354    4.8728  -38.7005 N   0  0  0  0  0  0  0  0  0  0  0  0
   -6.4966    6.8784  -34.3980 O   0  0  0  0  0  0  0  0  0  0  0  0
   -6.9452    4.6077  -34.4428 H   0  0  0  0  0  0  0  0  0  0  0  0
   -6.7645    3.4036  -35.8368 H   0  0  0  0  0  0  0  0  0  0  0  0
   -6.6634    7.5055  -36.3477 H   0  0  0  0  0  0  0  0  0  0  0  0
   -5.0173    7.1543  -35.7866 H   0  0  0  0  0  0  0  0  0  0  0  0
   -6.3814    7.7980  -34.1097 H   0  0  0  0  0  0  0  0  0  0  0  0
  1  3  1  0  0  0  0
  1  5  3  0  0  0  0
  2  3  2  0  0  0  0
  3  4  1  0  0  0  0
  4  6  1  0  0  0  0
  2  7  1  0  0  0  0
  2  8  1  0  0  0  0
  4  9  1  0  0  0  0
  4 10  1  0  0  0  0
  6 11  1  0  0  0  0
M  END
> <id>
EN300-118316

> <smiles>
OCC(=C)C#N

> <MDLNUMBER>
MFCD30334603

> <IUPAC Name>
2-(hydroxymethyl)prop-2-enenitrile

> <CAS>
23873-54-3

> <Purity>
95

> <URL>
https://www.enaminestore.com/catalog/EN300-118316

> <ROCS_ShapeQuery>
hit0

> <ROCS_TanimotoCombo>
1.044 

> <ROCS_ShapeTanimoto>
0.621 

> <ROCS_ColorTanimoto>
0.423 

> <ROCS_RefTversky>
1.127 

> <ROCS_RefColorTversky>
0.504 

> <ROCS_RefTverskyCombo>
1.631 

> <ROCS_FitTversky>
0.580 

> <ROCS_FitColorTversky>
0.726 

> <ROCS_FitTverskyCombo>
1.306 

> <ROCS_ColorScore>
-2.975

> <ROCS_Overlap>
129.003

> <ROCS_Rank>
153                 

$$$$
untitled-dbase-90430_1
  -OEChem-06232314393D

 20 20  0     0  0  0  0  0  0999 V2000
   -5.4941    6.0067  -38.1524 C   0  0  0  0  0  0  0  0  0  0  0  0
   -5.9722    5.9247  -36.8309 C   0  0  0  0  0  0  0  0  0  0  0  0
   -6.3123    4.6037  -36.6702 C   0  0  0  0  0  0  0  0  0  0  0  0
   -7.1929    8.5013  -36.3030 C   0  0  0  0  0  0  0  0  0  0  0  0
   -4.5206    8.0766  -35.5384 C   0  0  0  0  0  0  0  0  0  0  0  0
   -5.5259    4.8314  -38.7861 N   0  0  0  0  0  0  0  0  0  0  0  0
   -6.0280    3.9983  -37.8588 N   0  0  0  0  0  0  0  0  0  0  0  0
   -6.8233    3.8998  -35.6424 N   0  0  0  0  0  0  0  0  0  0  0  0
   -6.5605    6.8330  -34.2693 O   0  0  0  0  0  0  0  0  0  0  0  0
   -6.1027    7.2283  -35.6505 P   0  0  0  0  0  0  0  0  0  0  0  0
   -5.1254    6.8742  -38.6809 H   0  0  0  0  0  0  0  0  0  0  0  0
   -7.2867    9.3194  -35.5846 H   0  0  0  0  0  0  0  0  0  0  0  0
   -6.7895    8.8971  -37.2384 H   0  0  0  0  0  0  0  0  0  0  0  0
   -8.1845    8.0838  -36.4946 H   0  0  0  0  0  0  0  0  0  0  0  0
   -4.5813    8.8894  -34.8105 H   0  0  0  0  0  0  0  0  0  0  0  0
   -3.7418    7.3776  -35.2232 H   0  0  0  0  0  0  0  0  0  0  0  0
   -4.2487    8.4931  -36.5115 H   0  0  0  0  0  0  0  0  0  0  0  0
   -6.1521    3.0245  -38.1059 H   0  0  0  0  0  0  0  0  0  0  0  0
   -7.0039    4.3244  -34.7185 H   0  0  0  0  0  0  0  0  0  0  0  0
   -6.9733    2.8794  -35.6932 H   0  0  0  0  0  0  0  0  0  0  0  0
  1  2  1  0  0  0  0
  1  6  2  0  0  0  0
  2  3  2  0  0  0  0
  2 10  1  0  0  0  0
  3  7  1  0  0  0  0
  3  8  1  0  0  0  0
  4 10  1  0  0  0  0
  5 10  1  0  0  0  0
  6  7  1  0  0  0  0
  9 10  2  0  0  0  0
  1 11  1  0  0  0  0
  4 12  1  0  0  0  0
  4 13  1  0  0  0  0
  4 14  1  0  0  0  0
  5 15  1  0  0  0  0
  5 16  1  0  0  0  0
  5 17  1  0  0  0  0
  7 18  1  0  0  0  0
  8 19  1  0  0  0  0
  8 20  1  0  0  0  0
M  END
> <id>
EN300-6740397

> <smiles>
CP(=O)(C)C=1C=NNC1N

> <IUPAC Name>
4-(dimethylphosphoryl)-1H-pyrazol-5-amine

> <CAS>
2362008-00-0

> <URL>
https://www.enaminestore.com/catalog/EN300-6740397

> <ROCS_ShapeQuery>
hit0

> <ROCS_TanimotoCombo>
1.044 

> <ROCS_ShapeTanimoto>
0.524 

> <ROCS_ColorTanimoto>
0.519 

> <ROCS_RefTversky>
1.434 

> <ROCS_RefColorTversky>
0.684 

> <ROCS_RefTverskyCombo>
2.118 

> <ROCS_FitTversky>
0.453 

> <ROCS_FitColorTversky>
0.683 

> <ROCS_FitTverskyCombo>
1.136 

> <ROCS_ColorScore>
-4.105

> <ROCS_Overlap>
176.889

> <ROCS_Rank>
154                 

$$$$
untitled-dbase-7843_10
  -OEChem-06232314393D

 17 17  0     0  0  0  0  0  0999 V2000
   -7.3448    4.8441  -34.1507 C   0  0  0  0  0  0  0  0  0  0  0  0
   -6.0355    5.4400  -36.0781 C   0  0  0  0  0  0  0  0  0  0  0  0
   -7.4689    3.5757  -34.6942 C   0  0  0  0  0  0  0  0  0  0  0  0
   -6.6128    5.7882  -34.8621 C   0  0  0  0  0  0  0  0  0  0  0  0
   -6.2181    4.1448  -36.5353 C   0  0  0  0  0  0  0  0  0  0  0  0
   -5.6131    3.7360  -37.8368 C   0  0  0  0  0  0  0  0  0  0  0  0
   -6.9225    3.2003  -35.8723 N   0  0  0  0  0  0  0  0  0  0  0  0
   -6.4572    7.0931  -34.3521 N   0  0  0  0  0  0  0  0  0  0  0  0
   -5.5416    4.8649  -38.6986 O   0  0  0  0  0  0  0  0  0  0  0  0
   -7.8080    5.0829  -33.1992 H   0  0  0  0  0  0  0  0  0  0  0  0
   -5.4606    6.1604  -36.6516 H   0  0  0  0  0  0  0  0  0  0  0  0
   -8.0306    2.8036  -34.1787 H   0  0  0  0  0  0  0  0  0  0  0  0
   -4.6002    3.3347  -37.6985 H   0  0  0  0  0  0  0  0  0  0  0  0
   -6.2130    2.9561  -38.3246 H   0  0  0  0  0  0  0  0  0  0  0  0
   -6.9175    7.3427  -33.4997 H   0  0  0  0  0  0  0  0  0  0  0  0
   -5.9683    7.7752  -34.8965 H   0  0  0  0  0  0  0  0  0  0  0  0
   -4.9866    5.5235  -38.2509 H   0  0  0  0  0  0  0  0  0  0  0  0
  1  3  1  0  0  0  0
  1  4  2  0  0  0  0
  2  4  1  0  0  0  0
  2  5  2  0  0  0  0
  3  7  2  0  0  0  0
  4  8  1  0  0  0  0
  5  6  1  0  0  0  0
  5  7  1  0  0  0  0
  6  9  1  0  0  0  0
  1 10  1  0  0  0  0
  2 11  1  0  0  0  0
  3 12  1  0  0  0  0
  6 13  1  0  0  0  0
  6 14  1  0  0  0  0
  8 15  1  0  0  0  0
  8 16  1  0  0  0  0
  9 17  1  0  0  0  0
M  END
> <id>
EN300-116645

> <smiles>
NC=1C=CN=C(CO)C1

> <MDLNUMBER>
MFCD11100581

> <IUPAC Name>
(4-aminopyridin-2-yl)methanol

> <CAS>
100114-58-7

> <Purity>
95

> <URL>
https://www.enaminestore.com/catalog/EN300-116645

> <MP>
114-115

> <ROCS_ShapeQuery>
hit0

> <ROCS_TanimotoCombo>
1.041 

> <ROCS_ShapeTanimoto>
0.436 

> <ROCS_ColorTanimoto>
0.605 

> <ROCS_RefTversky>
1.231 

> <ROCS_RefColorTversky>
0.754 

> <ROCS_RefTverskyCombo>
1.985 

> <ROCS_FitTversky>
0.403 

> <ROCS_FitColorTversky>
0.754 

> <ROCS_FitTverskyCombo>
1.157 

> <ROCS_ColorScore>
-4.524

> <ROCS_Overlap>
150.642

> <ROCS_Rank>
155                 

$$$$
untitled-dbase-21872_10
  -OEChem-06232314393D

 17 17  0     0  0  0  0  0  0999 V2000
   -7.3448    4.8441  -34.1507 C   0  0  0  0  0  0  0  0  0  0  0  0
   -6.0355    5.4400  -36.0781 C   0  0  0  0  0  0  0  0  0  0  0  0
   -7.4689    3.5757  -34.6942 C   0  0  0  0  0  0  0  0  0  0  0  0
   -6.6128    5.7882  -34.8621 C   0  0  0  0  0  0  0  0  0  0  0  0
   -6.2181    4.1448  -36.5353 C   0  0  0  0  0  0  0  0  0  0  0  0
   -5.6131    3.7360  -37.8368 C   0  0  0  0  0  0  0  0  0  0  0  0
   -6.9225    3.2003  -35.8723 N   0  0  0  0  0  0  0  0  0  0  0  0
   -6.4572    7.0931  -34.3521 N   0  0  0  0  0  0  0  0  0  0  0  0
   -5.5416    4.8649  -38.6986 O   0  0  0  0  0  0  0  0  0  0  0  0
   -7.8080    5.0829  -33.1992 H   0  0  0  0  0  0  0  0  0  0  0  0
   -5.4606    6.1604  -36.6516 H   0  0  0  0  0  0  0  0  0  0  0  0
   -8.0306    2.8036  -34.1787 H   0  0  0  0  0  0  0  0  0  0  0  0
   -4.6002    3.3347  -37.6985 H   0  0  0  0  0  0  0  0  0  0  0  0
   -6.2130    2.9561  -38.3246 H   0  0  0  0  0  0  0  0  0  0  0  0
   -6.9175    7.3427  -33.4997 H   0  0  0  0  0  0  0  0  0  0  0  0
   -5.9683    7.7752  -34.8965 H   0  0  0  0  0  0  0  0  0  0  0  0
   -4.9866    5.5235  -38.2509 H   0  0  0  0  0  0  0  0  0  0  0  0
  1  3  1  0  0  0  0
  1  4  2  0  0  0  0
  2  4  1  0  0  0  0
  2  5  2  0  0  0  0
  3  7  2  0  0  0  0
  4  8  1  0  0  0  0
  5  6  1  0  0  0  0
  5  7  1  0  0  0  0
  6  9  1  0  0  0  0
  1 10  1  0  0  0  0
  2 11  1  0  0  0  0
  3 12  1  0  0  0  0
  6 13  1  0  0  0  0
  6 14  1  0  0  0  0
  8 15  1  0  0  0  0
  8 16  1  0  0  0  0
  9 17  1  0  0  0  0
M  END
> <id>
EN300-310829

> <smiles>
Cl.NC=1C=CN=C(CO)C1

> <MDLNUMBER>
MFCD16988749

> <IUPAC Name>
(4-aminopyridin-2-yl)methanol hydrochloride

> <CAS>
1354940-95-6

> <Purity>
95

> <URL>
https://www.enaminestore.com/catalog/EN300-310829

> <Saltdate>
Cl

> <ROCS_ShapeQuery>
hit0

> <ROCS_TanimotoCombo>
1.041 

> <ROCS_ShapeTanimoto>
0.436 

> <ROCS_ColorTanimoto>
0.605 

> <ROCS_RefTversky>
1.231 

> <ROCS_RefColorTversky>
0.754 

> <ROCS_RefTverskyCombo>
1.985 

> <ROCS_FitTversky>
0.403 

> <ROCS_FitColorTversky>
0.754 

> <ROCS_FitTverskyCombo>
1.157 

> <ROCS_ColorScore>
-4.524

> <ROCS_Overlap>
150.642

> <ROCS_Rank>
156                 

$$$$
untitled-dbase-106467_11
  -OEChem-06232314393D

 15 15  0     0  0  0  0  0  0999 V2000
   -6.2467    5.8334  -36.3632 C   0  0  0  0  0  0  0  0  0  0  0  0
   -6.4134    4.5396  -36.7930 C   0  0  0  0  0  0  0  0  0  0  0  0
   -6.5915    5.7982  -34.9988 C   0  0  0  0  0  0  0  0  0  0  0  0
   -6.2269    3.8886  -38.1023 C   0  0  0  0  0  0  0  0  0  0  0  0
   -6.9503    4.5786  -34.5890 N   0  0  0  0  0  0  0  0  0  0  0  0
   -6.8320    3.8355  -35.7025 N   0  0  0  0  0  0  0  0  0  0  0  0
   -6.5545    6.9023  -34.2059 N   0  0  0  0  0  0  0  0  0  0  0  0
   -5.4712    4.7369  -38.9678 O   0  0  0  0  0  0  0  0  0  0  0  0
   -5.6316    7.4233  -37.4931 I   0  0  0  0  0  0  0  0  0  0  0  0
   -5.6902    2.9262  -38.0182 H   0  0  0  0  0  0  0  0  0  0  0  0
   -7.1904    3.6689  -38.5966 H   0  0  0  0  0  0  0  0  0  0  0  0
   -7.0545    2.8494  -35.6451 H   0  0  0  0  0  0  0  0  0  0  0  0
   -6.2261    7.8076  -34.5586 H   0  0  0  0  0  0  0  0  0  0  0  0
   -6.7630    6.8520  -33.2030 H   0  0  0  0  0  0  0  0  0  0  0  0
   -5.3810    4.2606  -39.8067 H   0  0  0  0  0  0  0  0  0  0  0  0
  1  2  2  0  0  0  0
  1  3  1  0  0  0  0
  1  9  1  0  0  0  0
  2  4  1  0  0  0  0
  2  6  1  0  0  0  0
  3  5  2  0  0  0  0
  3  7  1  0  0  0  0
  4  8  1  0  0  0  0
  5  6  1  0  0  0  0
  4 10  1  0  0  0  0
  4 11  1  0  0  0  0
  6 12  1  0  0  0  0
  7 13  1  0  0  0  0
  7 14  1  0  0  0  0
  8 15  1  0  0  0  0
M  END
> <id>
EN300-37336330

> <smiles>
NC1=NNC(CO)=C1I

> <IUPAC Name>
(3-amino-4-iodo-1H-pyrazol-5-yl)methanol

> <URL>
https://www.enaminestore.com/catalog/EN300-37336330

> <ROCS_ShapeQuery>
hit0

> <ROCS_TanimotoCombo>
1.040 

> <ROCS_ShapeTanimoto>
0.470 

> <ROCS_ColorTanimoto>
0.570 

> <ROCS_RefTversky>
1.276 

> <ROCS_RefColorTversky>
0.834 

> <ROCS_RefTverskyCombo>
2.110 

> <ROCS_FitTversky>
0.427 

> <ROCS_FitColorTversky>
0.643 

> <ROCS_FitTverskyCombo>
1.070 

> <ROCS_ColorScore>
-5.088

> <ROCS_Overlap>
155.608

> <ROCS_Rank>
157                 

$$$$
untitled-dbase-88510_10
  -OEChem-06232314393D

 14 14  0     1  0  0  0  0  0999 V2000
   -5.6774    4.9444  -37.6866 C   0  0  0  0  0  0  0  0  0  0  0  0
   -6.4929    3.9391  -35.5116 C   0  0  0  0  0  0  0  0  0  0  0  0
   -5.8842    5.0880  -36.2757 C   0  0  2  0  0  0  0  0  0  0  0  0
   -7.2981    5.1840  -35.7571 C   0  0  2  0  0  0  0  0  0  0  0  0
   -7.6204    6.1006  -34.6273 C   0  0  0  0  0  0  0  0  0  0  0  0
   -5.5101    4.8281  -38.8288 N   0  0  0  0  0  0  0  0  0  0  0  0
   -6.4934    6.9268  -34.3349 O   0  0  0  0  0  0  0  0  0  0  0  0
   -6.7797    3.0430  -36.0499 H   0  0  0  0  0  0  0  0  0  0  0  0
   -6.1242    3.7506  -34.5100 H   0  0  0  0  0  0  0  0  0  0  0  0
   -5.1248    5.6618  -35.7541 H   0  0  0  0  0  0  0  0  0  0  0  0
   -8.1180    5.1162  -36.4631 H   0  0  0  0  0  0  0  0  0  0  0  0
   -7.8754    5.5435  -33.7106 H   0  0  0  0  0  0  0  0  0  0  0  0
   -8.4687    6.7624  -34.8684 H   0  0  0  0  0  0  0  0  0  0  0  0
   -6.3053    7.4289  -35.1421 H   0  0  0  0  0  0  0  0  0  0  0  0
  1  3  1  1  0  0  0
  1  6  3  0  0  0  0
  2  3  1  0  0  0  0
  2  4  1  0  0  0  0
  3  4  1  0  0  0  0
  4  5  1  6  0  0  0
  5  7  1  0  0  0  0
  2  8  1  0  0  0  0
  2  9  1  0  0  0  0
  3 10  1  0  0  0  0
  4 11  1  0  0  0  0
  5 12  1  0  0  0  0
  5 13  1  0  0  0  0
  7 14  1  0  0  0  0
M  END
> <id>
EN300-1720750

> <smiles>
OC[C@@H]1C[C@H]1C#N |&1:2,4,r|

> <MDLNUMBER>
MFCD31692524

> <IUPAC Name>
rac-(1R,2R)-2-(hydroxymethyl)cyclopropane-1-carbonitrile

> <CAS>
39891-85-5

> <Purity>
95

> <URL>
https://www.enaminestore.com/catalog/EN300-1720750

> <ROCS_ShapeQuery>
hit0

> <ROCS_TanimotoCombo>
1.040 

> <ROCS_ShapeTanimoto>
0.541 

> <ROCS_ColorTanimoto>
0.500 

> <ROCS_RefTversky>
1.155 

> <ROCS_RefColorTversky>
0.513 

> <ROCS_RefTverskyCombo>
1.668 

> <ROCS_FitTversky>
0.504 

> <ROCS_FitColorTversky>
0.952 

> <ROCS_FitTverskyCombo>
1.456 

> <ROCS_ColorScore>
-2.998

> <ROCS_Overlap>
134.960

> <ROCS_Rank>
158                 

$$$$
untitled-dbase-11137_59
  -OEChem-06232314393D

 23 23  0     0  0  0  0  0  0999 V2000
   -6.6621    4.2665  -35.4526 C   0  0  0  0  0  0  0  0  0  0  0  0
   -5.1015    5.9095  -36.5751 C   0  0  0  0  0  0  0  0  0  0  0  0
   -7.7653    5.3267  -35.4307 C   0  0  0  0  0  0  0  0  0  0  0  0
   -6.2022    6.9731  -36.5508 C   0  0  0  0  0  0  0  0  0  0  0  0
   -5.6502    4.4753  -36.5886 C   0  0  0  0  0  0  0  0  0  0  0  0
   -7.1991    6.7466  -35.4151 C   0  0  0  0  0  0  0  0  0  0  0  0
   -6.2470    4.1119  -37.9510 C   0  0  0  0  0  0  0  0  0  0  0  0
   -6.5381    6.9877  -34.1742 O   0  0  0  0  0  0  0  0  0  0  0  0
   -5.4855    4.7496  -38.9591 O   0  0  0  0  0  0  0  0  0  0  0  0
   -6.1407    4.2711  -34.4815 H   0  0  0  0  0  0  0  0  0  0  0  0
   -7.1259    3.2695  -35.5436 H   0  0  0  0  0  0  0  0  0  0  0  0
   -4.4645    6.0742  -37.4611 H   0  0  0  0  0  0  0  0  0  0  0  0
   -4.4467    6.0509  -35.6996 H   0  0  0  0  0  0  0  0  0  0  0  0
   -8.4229    5.2000  -36.3010 H   0  0  0  0  0  0  0  0  0  0  0  0
   -8.4092    5.1741  -34.5528 H   0  0  0  0  0  0  0  0  0  0  0  0
   -5.7519    7.9713  -36.4549 H   0  0  0  0  0  0  0  0  0  0  0  0
   -6.7311    6.9825  -37.5132 H   0  0  0  0  0  0  0  0  0  0  0  0
   -4.7963    3.7882  -36.4074 H   0  0  0  0  0  0  0  0  0  0  0  0
   -8.0207    7.4726  -35.4976 H   0  0  0  0  0  0  0  0  0  0  0  0
   -7.2795    4.4551  -38.0062 H   0  0  0  0  0  0  0  0  0  0  0  0
   -6.2081    3.0330  -38.0965 H   0  0  0  0  0  0  0  0  0  0  0  0
   -7.2044    6.8758  -33.4778 H   0  0  0  0  0  0  0  0  0  0  0  0
   -5.5407    5.7070  -38.7969 H   0  0  0  0  0  0  0  0  0  0  0  0
  1  3  1  0  0  0  0
  1  5  1  0  0  0  0
  2  4  1  0  0  0  0
  2  5  1  0  0  0  0
  3  6  1  0  0  0  0
  4  6  1  0  0  0  0
  5  7  1  0  0  0  0
  6  8  1  0  0  0  0
  7  9  1  0  0  0  0
  1 10  1  0  0  0  0
  1 11  1  0  0  0  0
  2 12  1  0  0  0  0
  2 13  1  0  0  0  0
  3 14  1  0  0  0  0
  3 15  1  0  0  0  0
  4 16  1  0  0  0  0
  4 17  1  0  0  0  0
  5 18  1  0  0  0  0
  6 19  1  0  0  0  0
  7 20  1  0  0  0  0
  7 21  1  0  0  0  0
  8 22  1  0  0  0  0
  9 23  1  0  0  0  0
M  END
> <id>
EN300-177180

> <smiles>
OCC1CCC(O)CC1

> <MDLNUMBER>
MFCD11036248

> <IUPAC Name>
4-(hydroxymethyl)cyclohexan-1-ol

> <CAS>
33893-85-5

> <Purity>
95

> <URL>
https://www.enaminestore.com/catalog/EN300-177180

> <MP>
27-28

> <ROCS_ShapeQuery>
hit0

> <ROCS_TanimotoCombo>
1.040 

> <ROCS_ShapeTanimoto>
0.495 

> <ROCS_ColorTanimoto>
0.545 

> <ROCS_RefTversky>
1.278 

> <ROCS_RefColorTversky>
0.652 

> <ROCS_RefTverskyCombo>
1.930 

> <ROCS_FitTversky>
0.447 

> <ROCS_FitColorTversky>
0.768 

> <ROCS_FitTverskyCombo>
1.215 

> <ROCS_ColorScore>
-3.878

> <ROCS_Overlap>
154.620

> <ROCS_Rank>
159                 

$$$$
untitled-dbase-6672_61
  -OEChem-06232314393D

 20 20  0     0  0  0  0  0  0999 V2000
   -6.7274    6.8224  -35.9509 C   0  0  0  0  0  0  0  0  0  0  0  0
   -5.4632    6.1818  -35.3744 C   0  0  0  0  0  0  0  0  0  0  0  0
   -6.8096    6.3628  -37.4027 C   0  0  0  0  0  0  0  0  0  0  0  0
   -4.8528    5.3576  -36.5038 C   0  0  0  0  0  0  0  0  0  0  0  0
   -6.0183    5.0564  -37.4440 C   0  0  0  0  0  0  0  0  0  0  0  0
   -6.8405    3.8516  -36.9886 C   0  0  0  0  0  0  0  0  0  0  0  0
   -5.5293    4.8092  -38.7543 O   0  0  0  0  0  0  0  0  0  0  0  0
   -6.8644    3.8254  -35.5715 O   0  0  0  0  0  0  0  0  0  0  0  0
   -7.6216    6.5340  -35.3894 H   0  0  0  0  0  0  0  0  0  0  0  0
   -6.6460    7.9143  -35.8982 H   0  0  0  0  0  0  0  0  0  0  0  0
   -4.7671    6.9629  -35.0483 H   0  0  0  0  0  0  0  0  0  0  0  0
   -5.6862    5.5578  -34.5032 H   0  0  0  0  0  0  0  0  0  0  0  0
   -7.8617    6.1923  -37.6732 H   0  0  0  0  0  0  0  0  0  0  0  0
   -6.4032    7.1272  -38.0780 H   0  0  0  0  0  0  0  0  0  0  0  0
   -4.0407    5.9089  -36.9947 H   0  0  0  0  0  0  0  0  0  0  0  0
   -4.4337    4.4286  -36.0919 H   0  0  0  0  0  0  0  0  0  0  0  0
   -6.3898    2.9272  -37.3551 H   0  0  0  0  0  0  0  0  0  0  0  0
   -7.8636    3.9302  -37.3615 H   0  0  0  0  0  0  0  0  0  0  0  0
   -6.3062    4.7525  -39.3312 H   0  0  0  0  0  0  0  0  0  0  0  0
   -7.2732    4.6573  -35.2791 H   0  0  0  0  0  0  0  0  0  0  0  0
  1  2  1  0  0  0  0
  1  3  1  0  0  0  0
  2  4  1  0  0  0  0
  3  5  1  0  0  0  0
  4  5  1  0  0  0  0
  5  6  1  0  0  0  0
  5  7  1  0  0  0  0
  6  8  1  0  0  0  0
  1  9  1  0  0  0  0
  1 10  1  0  0  0  0
  2 11  1  0  0  0  0
  2 12  1  0  0  0  0
  3 13  1  0  0  0  0
  3 14  1  0  0  0  0
  4 15  1  0  0  0  0
  4 16  1  0  0  0  0
  6 17  1  0  0  0  0
  6 18  1  0  0  0  0
  7 19  1  0  0  0  0
  8 20  1  0  0  0  0
M  END
> <id>
EN300-112405

> <smiles>
OCC1(O)CCCC1

> <MDLNUMBER>
MFCD21182574

> <IUPAC Name>
1-(hydroxymethyl)cyclopentan-1-ol

> <CAS>
74397-18-5

> <Purity>
95

> <URL>
https://www.enaminestore.com/catalog/EN300-112405

> <ROCS_ShapeQuery>
hit0

> <ROCS_TanimotoCombo>
1.039 

> <ROCS_ShapeTanimoto>
0.470 

> <ROCS_ColorTanimoto>
0.569 

> <ROCS_RefTversky>
1.168 

> <ROCS_RefColorTversky>
0.671 

> <ROCS_RefTverskyCombo>
1.839 

> <ROCS_FitTversky>
0.440 

> <ROCS_FitColorTversky>
0.790 

> <ROCS_FitTverskyCombo>
1.230 

> <ROCS_ColorScore>
-3.991

> <ROCS_Overlap>
139.490

> <ROCS_Rank>
160                 

$$$$
untitled-dbase-24084_6
  -OEChem-06232314393D

 18 18  0     0  0  0  0  0  0999 V2000
   -7.6604    6.0134  -34.9767 C   0  0  0  0  0  0  0  0  0  0  0  0
   -7.6226    7.3967  -35.1519 C   0  0  0  0  0  0  0  0  0  0  0  0
   -5.9034    7.1372  -36.8295 C   0  0  0  0  0  0  0  0  0  0  0  0
   -5.9412    5.7539  -36.6543 C   0  0  0  0  0  0  0  0  0  0  0  0
   -6.8197    5.1920  -35.7279 C   0  0  0  0  0  0  0  0  0  0  0  0
   -6.7441    7.9586  -36.0782 C   0  0  0  0  0  0  0  0  0  0  0  0
   -5.0299    4.8976  -37.4720 C   0  0  0  0  0  0  0  0  0  0  0  0
   -6.8717    3.7937  -35.5371 N   0  0  0  0  0  0  0  0  0  0  0  0
   -5.5271    4.8184  -38.8013 O   0  0  0  0  0  0  0  0  0  0  0  0
   -6.6979    9.6654  -36.2939 Cl  0  0  0  0  0  0  0  0  0  0  0  0
   -8.3491    5.5867  -34.2519 H   0  0  0  0  0  0  0  0  0  0  0  0
   -8.2834    8.0244  -34.5596 H   0  0  0  0  0  0  0  0  0  0  0  0
   -5.2169    7.5713  -37.5530 H   0  0  0  0  0  0  0  0  0  0  0  0
   -4.0135    5.3110  -37.4996 H   0  0  0  0  0  0  0  0  0  0  0  0
   -4.9640    3.8837  -37.0568 H   0  0  0  0  0  0  0  0  0  0  0  0
   -6.3033    3.2036  -36.1088 H   0  0  0  0  0  0  0  0  0  0  0  0
   -7.5430    3.4147  -34.9016 H   0  0  0  0  0  0  0  0  0  0  0  0
   -4.9105    4.2565  -39.2979 H   0  0  0  0  0  0  0  0  0  0  0  0
  1  2  1  0  0  0  0
  1  5  2  0  0  0  0
  2  6  2  0  0  0  0
  3  4  2  0  0  0  0
  3  6  1  0  0  0  0
  4  5  1  0  0  0  0
  4  7  1  0  0  0  0
  5  8  1  0  0  0  0
  6 10  1  0  0  0  0
  7  9  1  0  0  0  0
  1 11  1  0  0  0  0
  2 12  1  0  0  0  0
  3 13  1  0  0  0  0
  7 14  1  0  0  0  0
  7 15  1  0  0  0  0
  8 16  1  0  0  0  0
  8 17  1  0  0  0  0
  9 18  1  0  0  0  0
M  END
> <id>
EN300-256654

> <smiles>
NC=1C=CC(Cl)=CC1CO

> <MDLNUMBER>
MFCD00075163

> <IUPAC Name>
(2-amino-5-chlorophenyl)methanol

> <CAS>
37585-25-4

> <Purity>
95

> <URL>
https://www.enaminestore.com/catalog/EN300-256654

> <MP>
107-109

> <ROCS_ShapeQuery>
hit0

> <ROCS_TanimotoCombo>
1.038 

> <ROCS_ShapeTanimoto>
0.467 

> <ROCS_ColorTanimoto>
0.571 

> <ROCS_RefTversky>
1.353 

> <ROCS_RefColorTversky>
0.672 

> <ROCS_RefTverskyCombo>
2.025 

> <ROCS_FitTversky>
0.416 

> <ROCS_FitColorTversky>
0.792 

> <ROCS_FitTverskyCombo>
1.208 

> <ROCS_ColorScore>
-3.999

> <ROCS_Overlap>
167.732

> <ROCS_Rank>
161                 

$$$$
untitled-dbase-124199_9
  -OEChem-06232314393D

 17 17  0     0  0  0  0  0  0999 V2000
   -6.2623    5.9219  -36.8847 C   0  0  0  0  0  0  0  0  0  0  0  0
   -5.7346    5.9706  -38.1865 C   0  0  0  0  0  0  0  0  0  0  0  0
   -6.3990    4.5814  -36.6386 C   0  0  0  0  0  0  0  0  0  0  0  0
   -6.5943    6.9896  -35.9904 C   0  0  0  0  0  0  0  0  0  0  0  0
   -5.3819    7.1604  -38.9799 C   0  0  0  0  0  0  0  0  0  0  0  0
   -5.5575    4.7534  -38.7080 N   0  0  0  0  0  0  0  0  0  0  0  0
   -6.8483    3.8871  -35.5730 N   0  0  0  0  0  0  0  0  0  0  0  0
   -6.9997    8.1977  -36.5379 N   0  0  0  0  0  0  0  0  0  0  0  0
   -5.9816    3.8736  -37.7193 O   0  0  0  0  0  0  0  0  0  0  0  0
   -6.5317    6.8102  -34.3141 S   0  0  0  0  0  0  0  0  0  0  0  0
   -4.3330    7.4582  -38.8102 H   0  0  0  0  0  0  0  0  0  0  0  0
   -5.5082    6.9911  -40.0641 H   0  0  0  0  0  0  0  0  0  0  0  0
   -6.0182    8.0292  -38.7338 H   0  0  0  0  0  0  0  0  0  0  0  0
   -7.1371    4.3500  -34.6977 H   0  0  0  0  0  0  0  0  0  0  0  0
   -6.8370    2.8562  -35.5448 H   0  0  0  0  0  0  0  0  0  0  0  0
   -7.2533    8.9900  -35.9562 H   0  0  0  0  0  0  0  0  0  0  0  0
   -7.0688    8.3332  -37.5411 H   0  0  0  0  0  0  0  0  0  0  0  0
  1  2  1  0  0  0  0
  1  3  2  0  0  0  0
  1  4  1  0  0  0  0
  2  5  1  0  0  0  0
  2  6  2  0  0  0  0
  3  7  1  0  0  0  0
  3  9  1  0  0  0  0
  4  8  1  0  0  0  0
  4 10  2  0  0  0  0
  6  9  1  0  0  0  0
  5 11  1  0  0  0  0
  5 12  1  0  0  0  0
  5 13  1  0  0  0  0
  7 14  1  0  0  0  0
  7 15  1  0  0  0  0
  8 16  1  0  0  0  0
  8 17  1  0  0  0  0
M  END
> <id>
EN300-346003

> <smiles>
CC1=NOC(N)=C1C(=S)N

> <MDLNUMBER>
MFCD00662714

> <IUPAC Name>
5-amino-3-methyl-1,2-oxazole-4-carbothioamide

> <CAS>
130783-67-4

> <Purity>
95

> <URL>
https://www.enaminestore.com/catalog/EN300-346003

> <ROCS_ShapeQuery>
hit0

> <ROCS_TanimotoCombo>
1.038 

> <ROCS_ShapeTanimoto>
0.476 

> <ROCS_ColorTanimoto>
0.562 

> <ROCS_RefTversky>
1.393 

> <ROCS_RefColorTversky>
0.665 

> <ROCS_RefTverskyCombo>
2.058 

> <ROCS_FitTversky>
0.420 

> <ROCS_FitColorTversky>
0.783 

> <ROCS_FitTverskyCombo>
1.203 

> <ROCS_ColorScore>
-3.956

> <ROCS_Overlap>
173.462

> <ROCS_Rank>
162                 

$$$$
untitled-dbase-19454_3
  -OEChem-06232314393D

 15 15  0     0  0  0  0  0  0999 V2000
   -6.3439    7.2266  -36.6940 C   0  0  0  0  0  0  0  0  0  0  0  0
   -6.3228    7.8066  -35.4358 C   0  0  0  0  0  0  0  0  0  0  0  0
   -6.6449    5.7820  -34.3989 C   0  0  0  0  0  0  0  0  0  0  0  0
   -6.5271    5.8506  -36.7733 C   0  0  0  0  0  0  0  0  0  0  0  0
   -6.6813    5.1071  -35.6085 C   0  0  0  0  0  0  0  0  0  0  0  0
   -6.5521    5.2192  -38.0863 C   0  0  0  0  0  0  0  0  0  0  0  0
   -6.4691    7.1173  -34.2821 N   0  0  0  0  0  0  0  0  0  0  0  0
   -6.8681    3.7134  -35.6359 N   0  0  0  0  0  0  0  0  0  0  0  0
   -5.5400    4.7899  -38.6438 O   0  0  0  0  0  0  0  0  0  0  0  0
   -6.2187    7.8369  -37.5821 H   0  0  0  0  0  0  0  0  0  0  0  0
   -6.1795    8.8761  -35.3201 H   0  0  0  0  0  0  0  0  0  0  0  0
   -6.7589    5.2570  -33.4551 H   0  0  0  0  0  0  0  0  0  0  0  0
   -7.5380    5.1315  -38.5899 H   0  0  0  0  0  0  0  0  0  0  0  0
   -6.9271    3.2080  -34.7729 H   0  0  0  0  0  0  0  0  0  0  0  0
   -6.8453    3.2316  -36.5141 H   0  0  0  0  0  0  0  0  0  0  0  0
  1  2  1  0  0  0  0
  1  4  2  0  0  0  0
  2  7  2  0  0  0  0
  3  5  2  0  0  0  0
  3  7  1  0  0  0  0
  4  5  1  0  0  0  0
  4  6  1  0  0  0  0
  5  8  1  0  0  0  0
  6  9  2  0  0  0  0
  1 10  1  0  0  0  0
  2 11  1  0  0  0  0
  3 12  1  0  0  0  0
  6 13  1  0  0  0  0
  8 14  1  0  0  0  0
  8 15  1  0  0  0  0
M  END
> <id>
EN300-93349

> <smiles>
NC=1C=NC=CC1C=O

> <MDLNUMBER>
MFCD06410684

> <IUPAC Name>
3-aminopyridine-4-carbaldehyde

> <CAS>
55279-29-3

> <Purity>
95

> <URL>
https://www.enaminestore.com/catalog/EN300-93349

> <MP>
92-93

> <ROCS_ShapeQuery>
hit0

> <ROCS_TanimotoCombo>
1.038 

> <ROCS_ShapeTanimoto>
0.490 

> <ROCS_ColorTanimoto>
0.548 

> <ROCS_RefTversky>
1.347 

> <ROCS_RefColorTversky>
0.654 

> <ROCS_RefTverskyCombo>
2.001 

> <ROCS_FitTversky>
0.435 

> <ROCS_FitColorTversky>
0.771 

> <ROCS_FitTverskyCombo>
1.206 

> <ROCS_ColorScore>
-3.894

> <ROCS_Overlap>
165.360

> <ROCS_Rank>
163                 

$$$$
untitled-dbase-52174_6
  -OEChem-06232314393D

 21 21  0     0  0  0  0  0  0999 V2000
   -7.6840    7.3860  -35.1756 C   0  0  0  0  0  0  0  0  0  0  0  0
   -7.6999    6.0033  -34.9926 C   0  0  0  0  0  0  0  0  0  0  0  0
   -5.9525    7.1455  -36.8433 C   0  0  0  0  0  0  0  0  0  0  0  0
   -6.8104    7.9571  -36.1010 C   0  0  0  0  0  0  0  0  0  0  0  0
   -5.9684    5.7627  -36.6603 C   0  0  0  0  0  0  0  0  0  0  0  0
   -6.8421    5.1917  -35.7349 C   0  0  0  0  0  0  0  0  0  0  0  0
   -6.7938    9.4355  -36.2963 C   0  0  0  0  0  0  0  0  0  0  0  0
   -5.0389    4.9171  -37.4687 C   0  0  0  0  0  0  0  0  0  0  0  0
   -6.8719    3.7938  -35.5363 N   0  0  0  0  0  0  0  0  0  0  0  0
   -5.5281    4.8222  -38.7999 O   0  0  0  0  0  0  0  0  0  0  0  0
   -8.3559    8.0106  -34.5928 H   0  0  0  0  0  0  0  0  0  0  0  0
   -8.3851    5.5695  -34.2686 H   0  0  0  0  0  0  0  0  0  0  0  0
   -5.2717    7.5918  -37.5644 H   0  0  0  0  0  0  0  0  0  0  0  0
   -6.0725    9.9028  -35.6147 H   0  0  0  0  0  0  0  0  0  0  0  0
   -6.5198    9.6984  -37.3263 H   0  0  0  0  0  0  0  0  0  0  0  0
   -7.7831    9.8732  -36.1094 H   0  0  0  0  0  0  0  0  0  0  0  0
   -4.0294    5.3471  -37.4936 H   0  0  0  0  0  0  0  0  0  0  0  0
   -4.9582    3.9068  -37.0474 H   0  0  0  0  0  0  0  0  0  0  0  0
   -6.2910    3.2100  -36.1019 H   0  0  0  0  0  0  0  0  0  0  0  0
   -7.5400    3.4074  -34.9018 H   0  0  0  0  0  0  0  0  0  0  0  0
   -4.8998    4.2678  -39.2902 H   0  0  0  0  0  0  0  0  0  0  0  0
  1  2  1  0  0  0  0
  1  4  2  0  0  0  0
  2  6  2  0  0  0  0
  3  4  1  0  0  0  0
  3  5  2  0  0  0  0
  4  7  1  0  0  0  0
  5  6  1  0  0  0  0
  5  8  1  0  0  0  0
  6  9  1  0  0  0  0
  8 10  1  0  0  0  0
  1 11  1  0  0  0  0
  2 12  1  0  0  0  0
  3 13  1  0  0  0  0
  7 14  1  0  0  0  0
  7 15  1  0  0  0  0
  7 16  1  0  0  0  0
  8 17  1  0  0  0  0
  8 18  1  0  0  0  0
  9 19  1  0  0  0  0
  9 20  1  0  0  0  0
 10 21  1  0  0  0  0
M  END
> <id>
EN300-2991870

> <smiles>
CC=1C=CC(N)=C(CO)C1

> <MDLNUMBER>
MFCD00074995

> <IUPAC Name>
(2-amino-5-methylphenyl)methanol

> <CAS>
34897-84-2

> <Purity>
95

> <URL>
https://www.enaminestore.com/catalog/EN300-2991870

> <MP>
123-126

> <ROCS_ShapeQuery>
hit0

> <ROCS_TanimotoCombo>
1.037 

> <ROCS_ShapeTanimoto>
0.466 

> <ROCS_ColorTanimoto>
0.571 

> <ROCS_RefTversky>
1.364 

> <ROCS_RefColorTversky>
0.672 

> <ROCS_RefTverskyCombo>
2.036 

> <ROCS_FitTversky>
0.414 

> <ROCS_FitColorTversky>
0.792 

> <ROCS_FitTverskyCombo>
1.206 

> <ROCS_ColorScore>
-3.999

> <ROCS_Overlap>
169.500

> <ROCS_Rank>
164                 

$$$$
untitled-dbase-106270_1
  -OEChem-06232314393D

 13 13  0     0  0  0  0  0  0999 V2000
   -5.4674    6.0849  -37.9928 C   0  0  0  0  0  0  0  0  0  0  0  0
   -5.9509    5.9545  -36.6771 C   0  0  0  0  0  0  0  0  0  0  0  0
   -6.3204    4.6355  -36.5762 C   0  0  0  0  0  0  0  0  0  0  0  0
   -6.0503    6.9459  -35.6485 C   0  0  0  0  0  0  0  0  0  0  0  0
   -5.5233    4.9401  -38.6785 N   0  0  0  0  0  0  0  0  0  0  0  0
   -6.0462    4.0777  -37.7902 N   0  0  0  0  0  0  0  0  0  0  0  0
   -6.8489    3.8902  -35.5862 N   0  0  0  0  0  0  0  0  0  0  0  0
   -6.4984    6.7222  -34.5070 O   0  0  0  0  0  0  0  0  0  0  0  0
   -5.0757    6.9649  -38.4834 H   0  0  0  0  0  0  0  0  0  0  0  0
   -5.7062    7.9892  -35.8776 H   0  0  0  0  0  0  0  0  0  0  0  0
   -6.1905    3.1185  -38.0794 H   0  0  0  0  0  0  0  0  0  0  0  0
   -7.1065    2.8995  -35.7197 H   0  0  0  0  0  0  0  0  0  0  0  0
   -7.1112    4.2936  -34.6730 H   0  0  0  0  0  0  0  0  0  0  0  0
  1  2  1  0  0  0  0
  1  5  2  0  0  0  0
  2  3  2  0  0  0  0
  2  4  1  0  0  0  0
  3  6  1  0  0  0  0
  3  7  1  0  0  0  0
  4  8  2  0  0  0  0
  5  6  1  0  0  0  0
  1  9  1  0  0  0  0
  4 10  1  0  0  0  0
  6 11  1  0  0  0  0
  7 12  1  0  0  0  0
  7 13  1  0  0  0  0
M  END
> <id>
EN300-108293

> <smiles>
NC=1NN=CC1C=O

> <MDLNUMBER>
MFCD19210794

> <IUPAC Name>
5-amino-1H-pyrazole-4-carbaldehyde

> <CAS>
2284110-65-0

> <Purity>
95

> <URL>
https://www.enaminestore.com/catalog/EN300-108293

> <ROCS_ShapeQuery>
hit0

> <ROCS_TanimotoCombo>
1.036 

> <ROCS_ShapeTanimoto>
0.528 

> <ROCS_ColorTanimoto>
0.508 

> <ROCS_RefTversky>
1.323 

> <ROCS_RefColorTversky>
0.674 

> <ROCS_RefTverskyCombo>
1.997 

> <ROCS_FitTversky>
0.468 

> <ROCS_FitColorTversky>
0.673 

> <ROCS_FitTverskyCombo>
1.141 

> <ROCS_ColorScore>
-4.044

> <ROCS_Overlap>
159.653

> <ROCS_Rank>
165                 

$$$$
untitled-dbase-8110_6
  -OEChem-06232314393D

 18 18  0     0  0  0  0  0  0999 V2000
   -5.5037    7.0463  -36.7069 C   0  0  0  0  0  0  0  0  0  0  0  0
   -6.1948    7.9323  -35.8805 C   0  0  0  0  0  0  0  0  0  0  0  0
   -7.3318    6.0729  -34.8378 C   0  0  0  0  0  0  0  0  0  0  0  0
   -5.7267    5.6736  -36.5989 C   0  0  0  0  0  0  0  0  0  0  0  0
   -6.6407    5.1869  -35.6643 C   0  0  0  0  0  0  0  0  0  0  0  0
   -7.1088    7.4456  -34.9459 C   0  0  0  0  0  0  0  0  0  0  0  0
   -4.9740    4.7476  -37.4982 C   0  0  0  0  0  0  0  0  0  0  0  0
   -6.8792    3.8002  -35.5417 N   0  0  0  0  0  0  0  0  0  0  0  0
   -5.5268    4.8109  -38.8062 O   0  0  0  0  0  0  0  0  0  0  0  0
   -7.9612    8.5390  -33.9259 Cl  0  0  0  0  0  0  0  0  0  0  0  0
   -4.7942    7.4358  -37.4323 H   0  0  0  0  0  0  0  0  0  0  0  0
   -6.0106    8.9992  -35.9755 H   0  0  0  0  0  0  0  0  0  0  0  0
   -8.0442    5.6911  -34.1095 H   0  0  0  0  0  0  0  0  0  0  0  0
   -3.9119    5.0194  -37.5505 H   0  0  0  0  0  0  0  0  0  0  0  0
   -5.0338    3.7128  -37.1373 H   0  0  0  0  0  0  0  0  0  0  0  0
   -6.4188    3.1709  -36.1661 H   0  0  0  0  0  0  0  0  0  0  0  0
   -7.5734    3.4819  -34.8976 H   0  0  0  0  0  0  0  0  0  0  0  0
   -5.0131    4.1986  -39.3572 H   0  0  0  0  0  0  0  0  0  0  0  0
  1  2  1  0  0  0  0
  1  4  2  0  0  0  0
  2  6  2  0  0  0  0
  3  5  2  0  0  0  0
  3  6  1  0  0  0  0
  4  5  1  0  0  0  0
  4  7  1  0  0  0  0
  5  8  1  0  0  0  0
  6 10  1  0  0  0  0
  7  9  1  0  0  0  0
  1 11  1  0  0  0  0
  2 12  1  0  0  0  0
  3 13  1  0  0  0  0
  7 14  1  0  0  0  0
  7 15  1  0  0  0  0
  8 16  1  0  0  0  0
  8 17  1  0  0  0  0
  9 18  1  0  0  0  0
M  END
> <id>
EN300-132736

> <smiles>
NC=1C=C(Cl)C=CC1CO

> <MDLNUMBER>
MFCD04037367

> <IUPAC Name>
(2-amino-4-chlorophenyl)methanol

> <CAS>
37585-16-3

> <Purity>
95

> <URL>
https://www.enaminestore.com/catalog/EN300-132736

> <MP>
138-142

> <ROCS_ShapeQuery>
hit0

> <ROCS_TanimotoCombo>
1.035 

> <ROCS_ShapeTanimoto>
0.464 

> <ROCS_ColorTanimoto>
0.571 

> <ROCS_RefTversky>
1.346 

> <ROCS_RefColorTversky>
0.672 

> <ROCS_RefTverskyCombo>
2.019 

> <ROCS_FitTversky>
0.414 

> <ROCS_FitColorTversky>
0.792 

> <ROCS_FitTverskyCombo>
1.206 

> <ROCS_ColorScore>
-4.000

> <ROCS_Overlap>
166.890

> <ROCS_Rank>
166                 

$$$$
untitled-dbase-75573_0
  -OEChem-06232314393D

 14 14  0     1  0  0  0  0  0999 V2000
   -6.4540    5.8628  -34.6878 C   0  0  0  0  0  0  0  0  0  0  0  0
   -7.3050    4.0552  -36.2418 C   0  0  0  0  0  0  0  0  0  0  0  0
   -6.3695    4.5085  -35.1489 C   0  0  1  0  0  0  0  0  0  0  0  0
   -5.8358    4.1936  -36.5271 C   0  0  2  0  0  0  0  0  0  0  0  0
   -5.3544    5.2478  -37.4655 C   0  0  0  0  0  0  0  0  0  0  0  0
   -6.5223    6.9592  -34.3144 N   0  0  0  0  0  0  0  0  0  0  0  0
   -5.5239    4.8112  -38.8137 O   0  0  0  0  0  0  0  0  0  0  0  0
   -7.7108    3.0525  -36.1725 H   0  0  0  0  0  0  0  0  0  0  0  0
   -7.9867    4.7750  -36.6799 H   0  0  0  0  0  0  0  0  0  0  0  0
   -6.1486    3.7780  -34.3763 H   0  0  0  0  0  0  0  0  0  0  0  0
   -5.2586    3.2812  -36.6317 H   0  0  0  0  0  0  0  0  0  0  0  0
   -4.2851    5.4685  -37.3148 H   0  0  0  0  0  0  0  0  0  0  0  0
   -5.9158    6.1884  -37.3429 H   0  0  0  0  0  0  0  0  0  0  0  0
   -6.4723    4.6516  -38.9330 H   0  0  0  0  0  0  0  0  0  0  0  0
  1  3  1  6  0  0  0
  1  6  3  0  0  0  0
  2  3  1  0  0  0  0
  2  4  1  0  0  0  0
  3  4  1  0  0  0  0
  4  5  1  6  0  0  0
  5  7  1  0  0  0  0
  2  8  1  0  0  0  0
  2  9  1  0  0  0  0
  3 10  1  0  0  0  0
  4 11  1  0  0  0  0
  5 12  1  0  0  0  0
  5 13  1  0  0  0  0
  7 14  1  0  0  0  0
M  END
> <id>
EN300-1608545

> <smiles>
OC[C@@H]1C[C@@H]1C#N |&1:2,4,r|

> <IUPAC Name>
2-(hydroxymethyl)cyclopropane-1-carbonitrile

> <CAS>
156742-97-1

> <Purity>
95

> <URL>
https://www.enaminestore.com/catalog/EN300-1608545

> <ROCS_ShapeQuery>
hit0

> <ROCS_TanimotoCombo>
1.035 

> <ROCS_ShapeTanimoto>
0.535 

> <ROCS_ColorTanimoto>
0.499 

> <ROCS_RefTversky>
1.149 

> <ROCS_RefColorTversky>
0.512 

> <ROCS_RefTverskyCombo>
1.661 

> <ROCS_FitTversky>
0.501 

> <ROCS_FitColorTversky>
0.951 

> <ROCS_FitTverskyCombo>
1.452 

> <ROCS_ColorScore>
-2.997

> <ROCS_Overlap>
134.260

> <ROCS_Rank>
167                 

$$$$
untitled-dbase-106873_6
  -OEChem-06232314393D

 18 18  0     0  0  0  0  0  0999 V2000
   -7.6919    6.0055  -34.9876 C   0  0  0  0  0  0  0  0  0  0  0  0
   -7.6705    7.3883  -35.1686 C   0  0  0  0  0  0  0  0  0  0  0  0
   -5.9413    7.1431  -36.8380 C   0  0  0  0  0  0  0  0  0  0  0  0
   -5.9627    5.7602  -36.6570 C   0  0  0  0  0  0  0  0  0  0  0  0
   -6.8380    5.1914  -35.7318 C   0  0  0  0  0  0  0  0  0  0  0  0
   -6.7952    7.9572  -36.0938 C   0  0  0  0  0  0  0  0  0  0  0  0
   -5.0369    4.9124  -37.4673 C   0  0  0  0  0  0  0  0  0  0  0  0
   -6.8726    3.7935  -35.5345 N   0  0  0  0  0  0  0  0  0  0  0  0
   -5.5271    4.8216  -38.7984 O   0  0  0  0  0  0  0  0  0  0  0  0
   -6.7748    9.2852  -36.2678 F   0  0  0  0  0  0  0  0  0  0  0  0
   -8.3779    5.5735  -34.2632 H   0  0  0  0  0  0  0  0  0  0  0  0
   -8.3357    8.0222  -34.5897 H   0  0  0  0  0  0  0  0  0  0  0  0
   -5.2633    7.5965  -37.5561 H   0  0  0  0  0  0  0  0  0  0  0  0
   -4.0257    5.3386  -37.4920 H   0  0  0  0  0  0  0  0  0  0  0  0
   -4.9599    3.9011  -37.0477 H   0  0  0  0  0  0  0  0  0  0  0  0
   -6.2945    3.2081  -36.1013 H   0  0  0  0  0  0  0  0  0  0  0  0
   -7.5413    3.4089  -34.8995 H   0  0  0  0  0  0  0  0  0  0  0  0
   -4.9012    4.2657  -39.2900 H   0  0  0  0  0  0  0  0  0  0  0  0
  1  2  1  0  0  0  0
  1  5  2  0  0  0  0
  2  6  2  0  0  0  0
  3  4  2  0  0  0  0
  3  6  1  0  0  0  0
  4  5  1  0  0  0  0
  4  7  1  0  0  0  0
  5  8  1  0  0  0  0
  6 10  1  0  0  0  0
  7  9  1  0  0  0  0
  1 11  1  0  0  0  0
  2 12  1  0  0  0  0
  3 13  1  0  0  0  0
  7 14  1  0  0  0  0
  7 15  1  0  0  0  0
  8 16  1  0  0  0  0
  8 17  1  0  0  0  0
  9 18  1  0  0  0  0
M  END
> <id>
EN300-217196

> <smiles>
NC=1C=CC(F)=CC1CO

> <MDLNUMBER>
MFCD08234510

> <IUPAC Name>
(2-amino-5-fluorophenyl)methanol

> <CAS>
748805-85-8

> <Purity>
95

> <URL>
https://www.enaminestore.com/catalog/EN300-217196

> <MP>
103-108

> <ROCS_ShapeQuery>
hit0

> <ROCS_TanimotoCombo>
1.034 

> <ROCS_ShapeTanimoto>
0.463 

> <ROCS_ColorTanimoto>
0.571 

> <ROCS_RefTversky>
1.369 

> <ROCS_RefColorTversky>
0.672 

> <ROCS_RefTverskyCombo>
2.041 

> <ROCS_FitTversky>
0.412 

> <ROCS_FitColorTversky>
0.792 

> <ROCS_FitTverskyCombo>
1.204 

> <ROCS_ColorScore>
-3.999

> <ROCS_Overlap>
170.446

> <ROCS_Rank>
168                 

$$$$
untitled-dbase-152044_6
  -OEChem-06232314393D

 21 21  0     0  0  0  0  0  0999 V2000
   -6.0599    7.9137  -35.8382 C   0  0  0  0  0  0  0  0  0  0  0  0
   -5.4067    7.0163  -36.6829 C   0  0  0  0  0  0  0  0  0  0  0  0
   -7.2468    6.0793  -34.8070 C   0  0  0  0  0  0  0  0  0  0  0  0
   -6.9799    7.4452  -34.9002 C   0  0  0  0  0  0  0  0  0  0  0  0
   -5.6736    5.6504  -36.5897 C   0  0  0  0  0  0  0  0  0  0  0  0
   -6.5936    5.1818  -35.6518 C   0  0  0  0  0  0  0  0  0  0  0  0
   -7.6780    8.4051  -33.9974 C   0  0  0  0  0  0  0  0  0  0  0  0
   -4.9609    4.7119  -37.5083 C   0  0  0  0  0  0  0  0  0  0  0  0
   -6.8774    3.8027  -35.5446 N   0  0  0  0  0  0  0  0  0  0  0  0
   -5.5243    4.8100  -38.8096 O   0  0  0  0  0  0  0  0  0  0  0  0
   -5.8455    8.9763  -35.9177 H   0  0  0  0  0  0  0  0  0  0  0  0
   -4.6920    7.3916  -37.4107 H   0  0  0  0  0  0  0  0  0  0  0  0
   -7.9639    5.7169  -34.0738 H   0  0  0  0  0  0  0  0  0  0  0  0
   -8.6120    8.7514  -34.4566 H   0  0  0  0  0  0  0  0  0  0  0  0
   -7.9163    7.9421  -33.0310 H   0  0  0  0  0  0  0  0  0  0  0  0
   -7.0500    9.2800  -33.7838 H   0  0  0  0  0  0  0  0  0  0  0  0
   -3.8909    4.9493  -37.5683 H   0  0  0  0  0  0  0  0  0  0  0  0
   -5.0510    3.6750  -37.1598 H   0  0  0  0  0  0  0  0  0  0  0  0
   -6.4444    3.1663  -36.1816 H   0  0  0  0  0  0  0  0  0  0  0  0
   -7.5759    3.4992  -34.8978 H   0  0  0  0  0  0  0  0  0  0  0  0
   -5.0365    4.1882  -39.3735 H   0  0  0  0  0  0  0  0  0  0  0  0
  1  2  1  0  0  0  0
  1  4  2  0  0  0  0
  2  5  2  0  0  0  0
  3  4  1  0  0  0  0
  3  6  2  0  0  0  0
  4  7  1  0  0  0  0
  5  6  1  0  0  0  0
  5  8  1  0  0  0  0
  6  9  1  0  0  0  0
  8 10  1  0  0  0  0
  1 11  1  0  0  0  0
  2 12  1  0  0  0  0
  3 13  1  0  0  0  0
  7 14  1  0  0  0  0
  7 15  1  0  0  0  0
  7 16  1  0  0  0  0
  8 17  1  0  0  0  0
  8 18  1  0  0  0  0
  9 19  1  0  0  0  0
  9 20  1  0  0  0  0
 10 21  1  0  0  0  0
M  END
> <id>
EN300-7055766

> <smiles>
CC=1C=CC(CO)=C(N)C1

> <MDLNUMBER>
MFCD08275453

> <IUPAC Name>
(2-amino-4-methylphenyl)methanol

> <CAS>
81335-87-7

> <Purity>
95

> <URL>
https://www.enaminestore.com/catalog/EN300-7055766

> <MP>
138-139

> <ROCS_ShapeQuery>
hit0

> <ROCS_TanimotoCombo>
1.034 

> <ROCS_ShapeTanimoto>
0.463 

> <ROCS_ColorTanimoto>
0.571 

> <ROCS_RefTversky>
1.358 

> <ROCS_RefColorTversky>
0.672 

> <ROCS_RefTverskyCombo>
2.030 

> <ROCS_FitTversky>
0.412 

> <ROCS_FitColorTversky>
0.792 

> <ROCS_FitTverskyCombo>
1.204 

> <ROCS_ColorScore>
-4.000

> <ROCS_Overlap>
168.733

> <ROCS_Rank>
169                 

$$$$
untitled-dbase-22241_10
  -OEChem-06232314393D

 14 14  0     1  0  0  0  0  0999 V2000
   -5.9867    5.0121  -37.7832 C   0  0  0  0  0  0  0  0  0  0  0  0
   -7.0356    4.0546  -35.6879 C   0  0  0  0  0  0  0  0  0  0  0  0
   -6.5869    5.2419  -36.5021 C   0  0  1  0  0  0  0  0  0  0  0  0
   -5.8258    4.8384  -35.2630 C   0  0  1  0  0  0  0  0  0  0  0  0
   -5.8782    5.6902  -34.0414 C   0  0  0  0  0  0  0  0  0  0  0  0
   -5.5009    4.8260  -38.8203 N   0  0  0  0  0  0  0  0  0  0  0  0
   -6.5136    6.9327  -34.3421 O   0  0  0  0  0  0  0  0  0  0  0  0
   -7.9473    4.1569  -35.1107 H   0  0  0  0  0  0  0  0  0  0  0  0
   -6.8736    3.0570  -36.0798 H   0  0  0  0  0  0  0  0  0  0  0  0
   -7.2067    6.1304  -36.4357 H   0  0  0  0  0  0  0  0  0  0  0  0
   -4.8583    4.3629  -35.3775 H   0  0  0  0  0  0  0  0  0  0  0  0
   -4.8693    5.9131  -33.6565 H   0  0  0  0  0  0  0  0  0  0  0  0
   -6.4504    5.2073  -33.2319 H   0  0  0  0  0  0  0  0  0  0  0  0
   -5.9789    7.3537  -35.0321 H   0  0  0  0  0  0  0  0  0  0  0  0
  1  3  1  0  0  0  0
  1  6  3  0  0  0  0
  2  3  1  0  0  0  0
  2  4  1  0  0  0  0
  3  4  1  0  0  0  0
  4  5  1  0  0  0  0
  5  7  1  0  0  0  0
  2  8  1  0  0  0  0
  2  9  1  0  0  0  0
  3 10  1  0  0  0  0
  4 11  1  0  0  0  0
  5 12  1  0  0  0  0
  5 13  1  0  0  0  0
  7 14  1  0  0  0  0
M  END
> <id>
EN300-225091

> <smiles>
OCC1CC1C#N

> <MDLNUMBER>
MFCD24529321

> <IUPAC Name>
2-(hydroxymethyl)cyclopropane-1-carbonitrile

> <CAS>
30491-95-3

> <URL>
https://www.enaminestore.com/catalog/EN300-225091

> <ROCS_ShapeQuery>
hit0

> <ROCS_TanimotoCombo>
1.034 

> <ROCS_ShapeTanimoto>
0.534 

> <ROCS_ColorTanimoto>
0.500 

> <ROCS_RefTversky>
1.146 

> <ROCS_RefColorTversky>
0.513 

> <ROCS_RefTverskyCombo>
1.659 

> <ROCS_FitTversky>
0.500 

> <ROCS_FitColorTversky>
0.952 

> <ROCS_FitTverskyCombo>
1.452 

> <ROCS_ColorScore>
-2.998

> <ROCS_Overlap>
133.945

> <ROCS_Rank>
170                 

$$$$
untitled-dbase-85461_1
  -OEChem-06232314393D

 23 23  0     0  0  0  0  0  0999 V2000
   -5.5106    5.9257  -38.1443 C   0  0  0  0  0  0  0  0  0  0  0  0
   -5.9857    5.8686  -36.8204 C   0  0  0  0  0  0  0  0  0  0  0  0
   -6.3375    4.5535  -36.6382 C   0  0  0  0  0  0  0  0  0  0  0  0
   -6.2561    2.5296  -38.1321 C   0  0  0  0  0  0  0  0  0  0  0  0
   -7.1799    8.4651  -36.3305 C   0  0  0  0  0  0  0  0  0  0  0  0
   -4.5096    8.0267  -35.5666 C   0  0  0  0  0  0  0  0  0  0  0  0
   -5.5550    4.7410  -38.7596 N   0  0  0  0  0  0  0  0  0  0  0  0
   -6.0622    3.9271  -37.8180 N   0  0  0  0  0  0  0  0  0  0  0  0
   -6.8515    3.8901  -35.5822 N   0  0  0  0  0  0  0  0  0  0  0  0
   -6.5577    6.8235  -34.2721 O   0  0  0  0  0  0  0  0  0  0  0  0
   -6.1001    7.1922  -35.6607 P   0  0  0  0  0  0  0  0  0  0  0  0
   -5.1328    6.7803  -38.6871 H   0  0  0  0  0  0  0  0  0  0  0  0
   -7.2632    2.4123  -38.5407 H   0  0  0  0  0  0  0  0  0  0  0  0
   -5.5074    2.2135  -38.8638 H   0  0  0  0  0  0  0  0  0  0  0  0
   -6.1402    1.9351  -37.2215 H   0  0  0  0  0  0  0  0  0  0  0  0
   -7.2637    9.2954  -35.6250 H   0  0  0  0  0  0  0  0  0  0  0  0
   -6.7755    8.8419  -37.2732 H   0  0  0  0  0  0  0  0  0  0  0  0
   -8.1761    8.0541  -36.5125 H   0  0  0  0  0  0  0  0  0  0  0  0
   -4.5604    8.8517  -34.8517 H   0  0  0  0  0  0  0  0  0  0  0  0
   -3.7367    7.3254  -35.2425 H   0  0  0  0  0  0  0  0  0  0  0  0
   -4.2366    8.4250  -36.5470 H   0  0  0  0  0  0  0  0  0  0  0  0
   -7.1049    2.8915  -35.6311 H   0  0  0  0  0  0  0  0  0  0  0  0
   -7.1048    4.3678  -34.7039 H   0  0  0  0  0  0  0  0  0  0  0  0
  1  2  1  0  0  0  0
  1  7  2  0  0  0  0
  2  3  2  0  0  0  0
  2 11  1  0  0  0  0
  3  8  1  0  0  0  0
  3  9  1  0  0  0  0
  4  8  1  0  0  0  0
  5 11  1  0  0  0  0
  6 11  1  0  0  0  0
  7  8  1  0  0  0  0
 10 11  2  0  0  0  0
  1 12  1  0  0  0  0
  4 13  1  0  0  0  0
  4 14  1  0  0  0  0
  4 15  1  0  0  0  0
  5 16  1  0  0  0  0
  5 17  1  0  0  0  0
  5 18  1  0  0  0  0
  6 19  1  0  0  0  0
  6 20  1  0  0  0  0
  6 21  1  0  0  0  0
  9 22  1  0  0  0  0
  9 23  1  0  0  0  0
M  END
> <id>
EN300-1703181

> <smiles>
CN1N=CC(=C1N)P(=O)(C)C

> <MDLNUMBER>
MFCD31718943

> <IUPAC Name>
4-(dimethylphosphoryl)-1-methyl-1H-pyrazol-5-amine

> <CAS>
2248401-83-2

> <Purity>
95

> <URL>
https://www.enaminestore.com/catalog/EN300-1703181

> <ROCS_ShapeQuery>
hit0

> <ROCS_TanimotoCombo>
1.034 

> <ROCS_ShapeTanimoto>
0.472 

> <ROCS_ColorTanimoto>
0.562 

> <ROCS_RefTversky>
1.428 

> <ROCS_RefColorTversky>
0.665 

> <ROCS_RefTverskyCombo>
2.093 

> <ROCS_FitTversky>
0.414 

> <ROCS_FitColorTversky>
0.784 

> <ROCS_FitTverskyCombo>
1.197 

> <ROCS_ColorScore>
-3.957

> <ROCS_Overlap>
179.278

> <ROCS_Rank>
171                 

$$$$
untitled-dbase-156187_67
  -OEChem-06232314393D

 22 22  0     1  0  0  0  0  0999 V2000
   -6.9723    7.7674  -36.5539 C   0  0  0  0  0  0  0  0  0  0  0  0
   -6.8519    6.8675  -37.7824 C   0  0  0  0  0  0  0  0  0  0  0  0
   -5.2841    6.0197  -36.1971 C   0  0  0  0  0  0  0  0  0  0  0  0
   -5.8940    7.2832  -35.5796 C   0  0  2  0  0  0  0  0  0  0  0  0
   -6.3150    5.5425  -37.2322 C   0  0  1  0  0  0  0  0  0  0  0  0
   -7.4245    4.6978  -36.5904 C   0  0  0  0  0  0  0  0  0  0  0  0
   -5.6967    4.7410  -38.2860 N   0  0  0  0  0  0  0  0  0  0  0  0
   -6.4910    6.9898  -34.3234 O   0  0  0  0  0  0  0  0  0  0  0  0
   -6.8257    3.7468  -35.7292 O   0  0  0  0  0  0  0  0  0  0  0  0
   -6.7664    8.8065  -36.8405 H   0  0  0  0  0  0  0  0  0  0  0  0
   -7.9826    7.7355  -36.1315 H   0  0  0  0  0  0  0  0  0  0  0  0
   -7.8455    6.7245  -38.2229 H   0  0  0  0  0  0  0  0  0  0  0  0
   -6.2120    7.3096  -38.5514 H   0  0  0  0  0  0  0  0  0  0  0  0
   -4.3005    6.2250  -36.6381 H   0  0  0  0  0  0  0  0  0  0  0  0
   -5.1225    5.2565  -35.4228 H   0  0  0  0  0  0  0  0  0  0  0  0
   -5.1437    8.0612  -35.4279 H   0  0  0  0  0  0  0  0  0  0  0  0
   -7.9905    4.1780  -37.3634 H   0  0  0  0  0  0  0  0  0  0  0  0
   -8.0920    5.3372  -36.0127 H   0  0  0  0  0  0  0  0  0  0  0  0
   -4.7494    4.5918  -38.0383 H   0  0  0  0  0  0  0  0  0  0  0  0
   -6.1887    3.8832  -38.3430 H   0  0  0  0  0  0  0  0  0  0  0  0
   -7.1517    6.2944  -34.4794 H   0  0  0  0  0  0  0  0  0  0  0  0
   -6.2389    3.1965  -36.2756 H   0  0  0  0  0  0  0  0  0  0  0  0
  1  2  1  0  0  0  0
  1  4  1  0  0  0  0
  2  5  1  0  0  0  0
  3  4  1  0  0  0  0
  3  5  1  0  0  0  0
  4  8  1  0  0  0  0
  5  6  1  0  0  0  0
  5  7  1  0  0  0  0
  6  9  1  0  0  0  0
  1 10  1  0  0  0  0
  1 11  1  0  0  0  0
  2 12  1  0  0  0  0
  2 13  1  0  0  0  0
  3 14  1  0  0  0  0
  3 15  1  0  0  0  0
  4 16  1  0  0  0  0
  6 17  1  0  0  0  0
  6 18  1  0  0  0  0
  7 19  1  0  0  0  0
  7 20  1  0  0  0  0
  8 21  1  0  0  0  0
  9 22  1  0  0  0  0
M  END
> <id>
EN300-3140296

> <smiles>
NC1(CO)CCC(O)C1

> <IUPAC Name>
3-amino-3-(hydroxymethyl)cyclopentan-1-ol

> <CAS>
2004085-81-6

> <URL>
https://www.enaminestore.com/catalog/EN300-3140296

> <ROCS_ShapeQuery>
hit0

> <ROCS_TanimotoCombo>
1.034 

> <ROCS_ShapeTanimoto>
0.478 

> <ROCS_ColorTanimoto>
0.555 

> <ROCS_RefTversky>
1.274 

> <ROCS_RefColorTversky>
0.767 

> <ROCS_RefTverskyCombo>
2.041 

> <ROCS_FitTversky>
0.434 

> <ROCS_FitColorTversky>
0.668 

> <ROCS_FitTverskyCombo>
1.102 

> <ROCS_ColorScore>
-4.642

> <ROCS_Overlap>
154.767

> <ROCS_Rank>
172                 

$$$$
untitled-dbase-29536_6
  -OEChem-06232314393D

 17 17  0     0  0  0  0  0  0999 V2000
   -7.6943    5.9482  -34.9608 C   0  0  0  0  0  0  0  0  0  0  0  0
   -7.6756    7.3337  -35.1204 C   0  0  0  0  0  0  0  0  0  0  0  0
   -5.9476    7.1175  -36.7950 C   0  0  0  0  0  0  0  0  0  0  0  0
   -5.9663    5.7319  -36.6354 C   0  0  0  0  0  0  0  0  0  0  0  0
   -6.8396    5.1473  -35.7183 C   0  0  0  0  0  0  0  0  0  0  0  0
   -6.8023    7.9184  -36.0375 C   0  0  0  0  0  0  0  0  0  0  0  0
   -5.0431    4.8901  -37.4529 C   0  0  0  0  0  0  0  0  0  0  0  0
   -6.8702    3.7956  -35.5501 O   0  0  0  0  0  0  0  0  0  0  0  0
   -5.5316    4.8141  -38.7859 O   0  0  0  0  0  0  0  0  0  0  0  0
   -6.7787    9.6277  -36.2348 Cl  0  0  0  0  0  0  0  0  0  0  0  0
   -8.3770    5.4984  -34.2451 H   0  0  0  0  0  0  0  0  0  0  0  0
   -8.3461    7.9456  -34.5226 H   0  0  0  0  0  0  0  0  0  0  0  0
   -5.2646    7.5687  -37.5114 H   0  0  0  0  0  0  0  0  0  0  0  0
   -4.0298    5.3127  -37.4728 H   0  0  0  0  0  0  0  0  0  0  0  0
   -4.9691    3.8737  -37.0443 H   0  0  0  0  0  0  0  0  0  0  0  0
   -7.5287    3.5564  -34.8791 H   0  0  0  0  0  0  0  0  0  0  0  0
   -6.4143    4.4130  -38.7378 H   0  0  0  0  0  0  0  0  0  0  0  0
  1  2  1  0  0  0  0
  1  5  2  0  0  0  0
  2  6  2  0  0  0  0
  3  4  2  0  0  0  0
  3  6  1  0  0  0  0
  4  5  1  0  0  0  0
  4  7  1  0  0  0  0
  5  8  1  0  0  0  0
  6 10  1  0  0  0  0
  7  9  1  0  0  0  0
  1 11  1  0  0  0  0
  2 12  1  0  0  0  0
  3 13  1  0  0  0  0
  7 14  1  0  0  0  0
  7 15  1  0  0  0  0
  8 16  1  0  0  0  0
  9 17  1  0  0  0  0
M  END
> <id>
EN300-698224

> <smiles>
OCC=1C=C(Cl)C=CC1O

> <MDLNUMBER>
MFCD00021967

> <IUPAC Name>
4-chloro-2-(hydroxymethyl)phenol

> <CAS>
5330-38-1

> <URL>
https://www.enaminestore.com/catalog/EN300-698224

> <ROCS_ShapeQuery>
hit0

> <ROCS_TanimotoCombo>
1.034 

> <ROCS_ShapeTanimoto>
0.464 

> <ROCS_ColorTanimoto>
0.570 

> <ROCS_RefTversky>
1.357 

> <ROCS_RefColorTversky>
0.672 

> <ROCS_RefTverskyCombo>
2.029 

> <ROCS_FitTversky>
0.413 

> <ROCS_FitColorTversky>
0.790 

> <ROCS_FitTverskyCombo>
1.203 

> <ROCS_ColorScore>
-3.998

> <ROCS_Overlap>
168.577

> <ROCS_Rank>
173                 

$$$$
untitled-dbase-176765_27
  -OEChem-06232314393D

 23 23  0     1  0  0  0  0  0999 V2000
   -6.4306    4.9871  -38.2869 C   0  0  0  0  0  0  0  0  0  0  0  0
   -5.6480    6.2412  -37.9051 C   0  0  0  0  0  0  0  0  0  0  0  0
   -5.7959    3.7300  -37.6953 C   0  0  0  0  0  0  0  0  0  0  0  0
   -4.8880    5.1070  -35.7689 C   0  0  0  0  0  0  0  0  0  0  0  0
   -5.4597    6.3946  -36.3895 C   0  0  2  0  0  0  0  0  0  0  0  0
   -5.6187    3.8258  -36.1814 C   0  0  1  0  0  0  0  0  0  0  0  0
   -6.7484    6.8563  -35.7043 C   0  0  0  0  0  0  0  0  0  0  0  0
   -6.8985    3.7562  -35.5610 O   0  0  0  0  0  0  0  0  0  0  0  0
   -6.5038    6.9647  -34.3146 O   0  0  0  0  0  0  0  0  0  0  0  0
   -7.4644    5.0761  -37.9371 H   0  0  0  0  0  0  0  0  0  0  0  0
   -6.4674    4.8971  -39.3788 H   0  0  0  0  0  0  0  0  0  0  0  0
   -4.6644    6.2176  -38.4026 H   0  0  0  0  0  0  0  0  0  0  0  0
   -6.1703    7.1266  -38.3066 H   0  0  0  0  0  0  0  0  0  0  0  0
   -6.4125    2.8519  -37.9413 H   0  0  0  0  0  0  0  0  0  0  0  0
   -4.8226    3.5425  -38.1712 H   0  0  0  0  0  0  0  0  0  0  0  0
   -3.8138    5.0106  -36.0269 H   0  0  0  0  0  0  0  0  0  0  0  0
   -4.8915    5.1870  -34.6617 H   0  0  0  0  0  0  0  0  0  0  0  0
   -4.7001    7.2016  -36.2330 H   0  0  0  0  0  0  0  0  0  0  0  0
   -5.0402    2.9464  -35.8341 H   0  0  0  0  0  0  0  0  0  0  0  0
   -7.5404    6.1282  -35.8763 H   0  0  0  0  0  0  0  0  0  0  0  0
   -7.0485    7.8277  -36.0956 H   0  0  0  0  0  0  0  0  0  0  0  0
   -6.7474    3.8199  -34.6047 H   0  0  0  0  0  0  0  0  0  0  0  0
   -7.3333    7.2584  -33.9001 H   0  0  0  0  0  0  0  0  0  0  0  0
  1  2  1  0  0  0  0
  1  3  1  0  0  0  0
  2  5  1  0  0  0  0
  3  6  1  0  0  0  0
  4  5  1  0  0  0  0
  4  6  1  0  0  0  0
  5  7  1  6  0  0  0
  6  8  1  6  0  0  0
  7  9  1  0  0  0  0
  1 10  1  0  0  0  0
  1 11  1  0  0  0  0
  2 12  1  0  0  0  0
  2 13  1  0  0  0  0
  3 14  1  0  0  0  0
  3 15  1  0  0  0  0
  4 16  1  0  0  0  0
  4 17  1  0  0  0  0
  5 18  1  0  0  0  0
  6 19  1  0  0  0  0
  7 20  1  0  0  0  0
  7 21  1  0  0  0  0
  8 22  1  0  0  0  0
  9 23  1  0  0  0  0
M  END
> <id>
EN300-6952625

> <smiles>
OC[C@@H]1CCC[C@H](O)C1

> <IUPAC Name>
(1S,3R)-3-(hydroxymethyl)cyclohexan-1-ol

> <Purity>
95

> <URL>
https://www.enaminestore.com/catalog/EN300-6952625

> <ROCS_ShapeQuery>
hit0

> <ROCS_TanimotoCombo>
1.034 

> <ROCS_ShapeTanimoto>
0.465 

> <ROCS_ColorTanimoto>
0.569 

> <ROCS_RefTversky>
1.225 

> <ROCS_RefColorTversky>
0.670 

> <ROCS_RefTverskyCombo>
1.895 

> <ROCS_FitTversky>
0.428 

> <ROCS_FitColorTversky>
0.790 

> <ROCS_FitTverskyCombo>
1.218 

> <ROCS_ColorScore>
-3.988

> <ROCS_Overlap>
148.199

> <ROCS_Rank>
174                 

$$$$
untitled-dbase-42262_27
  -OEChem-06232314393D

 23 23  0     1  0  0  0  0  0999 V2000
   -6.4306    4.9871  -38.2869 C   0  0  0  0  0  0  0  0  0  0  0  0
   -5.6480    6.2412  -37.9051 C   0  0  0  0  0  0  0  0  0  0  0  0
   -5.7959    3.7300  -37.6953 C   0  0  0  0  0  0  0  0  0  0  0  0
   -4.8880    5.1070  -35.7689 C   0  0  0  0  0  0  0  0  0  0  0  0
   -5.4597    6.3946  -36.3895 C   0  0  2  0  0  0  0  0  0  0  0  0
   -5.6187    3.8258  -36.1814 C   0  0  1  0  0  0  0  0  0  0  0  0
   -6.7484    6.8563  -35.7043 C   0  0  0  0  0  0  0  0  0  0  0  0
   -6.8985    3.7562  -35.5610 O   0  0  0  0  0  0  0  0  0  0  0  0
   -6.5038    6.9647  -34.3146 O   0  0  0  0  0  0  0  0  0  0  0  0
   -7.4644    5.0761  -37.9371 H   0  0  0  0  0  0  0  0  0  0  0  0
   -6.4674    4.8971  -39.3788 H   0  0  0  0  0  0  0  0  0  0  0  0
   -4.6644    6.2176  -38.4026 H   0  0  0  0  0  0  0  0  0  0  0  0
   -6.1703    7.1266  -38.3066 H   0  0  0  0  0  0  0  0  0  0  0  0
   -6.4125    2.8519  -37.9413 H   0  0  0  0  0  0  0  0  0  0  0  0
   -4.8226    3.5425  -38.1712 H   0  0  0  0  0  0  0  0  0  0  0  0
   -3.8138    5.0106  -36.0269 H   0  0  0  0  0  0  0  0  0  0  0  0
   -4.8915    5.1870  -34.6617 H   0  0  0  0  0  0  0  0  0  0  0  0
   -4.7001    7.2016  -36.2330 H   0  0  0  0  0  0  0  0  0  0  0  0
   -5.0402    2.9464  -35.8341 H   0  0  0  0  0  0  0  0  0  0  0  0
   -7.5404    6.1282  -35.8763 H   0  0  0  0  0  0  0  0  0  0  0  0
   -7.0485    7.8277  -36.0956 H   0  0  0  0  0  0  0  0  0  0  0  0
   -6.7474    3.8199  -34.6047 H   0  0  0  0  0  0  0  0  0  0  0  0
   -7.3333    7.2584  -33.9001 H   0  0  0  0  0  0  0  0  0  0  0  0
  1  2  1  0  0  0  0
  1  3  1  0  0  0  0
  2  5  1  0  0  0  0
  3  6  1  0  0  0  0
  4  5  1  0  0  0  0
  4  6  1  0  0  0  0
  5  7  1  6  0  0  0
  6  8  1  6  0  0  0
  7  9  1  0  0  0  0
  1 10  1  0  0  0  0
  1 11  1  0  0  0  0
  2 12  1  0  0  0  0
  2 13  1  0  0  0  0
  3 14  1  0  0  0  0
  3 15  1  0  0  0  0
  4 16  1  0  0  0  0
  4 17  1  0  0  0  0
  5 18  1  0  0  0  0
  6 19  1  0  0  0  0
  7 20  1  0  0  0  0
  7 21  1  0  0  0  0
  8 22  1  0  0  0  0
  9 23  1  0  0  0  0
M  END
> <id>
EN300-1074358

> <smiles>
OC[C@@H]1CCC[C@H](O)C1 |&1:2,6,r|

> <MDLNUMBER>
MFCD31559764

> <IUPAC Name>
rac-(1R,3S)-3-(hydroxymethyl)cyclohexan-1-ol

> <CAS>
15753-48-7

> <Purity>
95

> <URL>
https://www.enaminestore.com/catalog/EN300-1074358

> <ROCS_ShapeQuery>
hit0

> <ROCS_TanimotoCombo>
1.034 

> <ROCS_ShapeTanimoto>
0.465 

> <ROCS_ColorTanimoto>
0.569 

> <ROCS_RefTversky>
1.225 

> <ROCS_RefColorTversky>
0.670 

> <ROCS_RefTverskyCombo>
1.895 

> <ROCS_FitTversky>
0.428 

> <ROCS_FitColorTversky>
0.790 

> <ROCS_FitTverskyCombo>
1.218 

> <ROCS_ColorScore>
-3.988

> <ROCS_Overlap>
148.199

> <ROCS_Rank>
175                 

$$$$
untitled-dbase-57219_6
  -OEChem-06232314393D

 18 18  0     0  0  0  0  0  0999 V2000
   -5.4059    7.0118  -36.6695 C   0  0  0  0  0  0  0  0  0  0  0  0
   -6.0582    7.9068  -35.8217 C   0  0  0  0  0  0  0  0  0  0  0  0
   -7.2475    6.0700  -34.7975 C   0  0  0  0  0  0  0  0  0  0  0  0
   -5.6744    5.6458  -36.5815 C   0  0  0  0  0  0  0  0  0  0  0  0
   -6.5951    5.1749  -35.6455 C   0  0  0  0  0  0  0  0  0  0  0  0
   -6.9790    7.4360  -34.8856 C   0  0  0  0  0  0  0  0  0  0  0  0
   -4.9633    4.7099  -37.5039 C   0  0  0  0  0  0  0  0  0  0  0  0
   -6.8803    3.7958  -35.5429 N   0  0  0  0  0  0  0  0  0  0  0  0
   -5.5272    4.8137  -38.8046 O   0  0  0  0  0  0  0  0  0  0  0  0
   -7.6051    8.2955  -34.0711 F   0  0  0  0  0  0  0  0  0  0  0  0
   -4.6910    7.3891  -37.3959 H   0  0  0  0  0  0  0  0  0  0  0  0
   -5.8485    8.9701  -35.8904 H   0  0  0  0  0  0  0  0  0  0  0  0
   -7.9683    5.7155  -34.0652 H   0  0  0  0  0  0  0  0  0  0  0  0
   -3.8931    4.9462  -37.5635 H   0  0  0  0  0  0  0  0  0  0  0  0
   -5.0545    3.6718  -37.1594 H   0  0  0  0  0  0  0  0  0  0  0  0
   -6.4481    3.1610  -36.1820 H   0  0  0  0  0  0  0  0  0  0  0  0
   -7.5790    3.4907  -34.8970 H   0  0  0  0  0  0  0  0  0  0  0  0
   -5.0404    4.1934  -39.3710 H   0  0  0  0  0  0  0  0  0  0  0  0
  1  2  1  0  0  0  0
  1  4  2  0  0  0  0
  2  6  2  0  0  0  0
  3  5  2  0  0  0  0
  3  6  1  0  0  0  0
  4  5  1  0  0  0  0
  4  7  1  0  0  0  0
  5  8  1  0  0  0  0
  6 10  1  0  0  0  0
  7  9  1  0  0  0  0
  1 11  1  0  0  0  0
  2 12  1  0  0  0  0
  3 13  1  0  0  0  0
  7 14  1  0  0  0  0
  7 15  1  0  0  0  0
  8 16  1  0  0  0  0
  8 17  1  0  0  0  0
  9 18  1  0  0  0  0
M  END
> <id>
EN300-1719297

> <smiles>
NC=1C=C(F)C=CC1CO

> <MDLNUMBER>
MFCD02181036

> <IUPAC Name>
(2-amino-4-fluorophenyl)methanol

> <CAS>
197783-88-3

> <Purity>
95

> <URL>
https://www.enaminestore.com/catalog/EN300-1719297

> <MP>
101-103

> <ROCS_ShapeQuery>
hit0

> <ROCS_TanimotoCombo>
1.033 

> <ROCS_ShapeTanimoto>
0.462 

> <ROCS_ColorTanimoto>
0.571 

> <ROCS_RefTversky>
1.366 

> <ROCS_RefColorTversky>
0.672 

> <ROCS_RefTverskyCombo>
2.038 

> <ROCS_FitTversky>
0.411 

> <ROCS_FitColorTversky>
0.792 

> <ROCS_FitTverskyCombo>
1.203 

> <ROCS_ColorScore>
-3.999

> <ROCS_Overlap>
170.090

> <ROCS_Rank>
176                 

$$$$
untitled-dbase-96147_0
  -OEChem-06232314393D

 11 10  0     1  0  0  0  0  0999 V2000
   -6.6102    6.1182  -35.1471 C   0  0  0  0  0  0  0  0  0  0  0  0
   -5.5854    5.2049  -38.3749 C   0  0  0  0  0  0  0  0  0  0  0  0
   -5.5460    5.0436  -37.0469 C   0  0  0  0  0  0  0  0  0  0  0  0
   -6.7575    5.0718  -36.1657 C   0  0  1  0  0  0  0  0  0  0  0  0
   -6.4990    6.9453  -34.3407 N   0  0  0  0  0  0  0  0  0  0  0  0
   -6.8777    3.7971  -35.5401 O   0  0  0  0  0  0  0  0  0  0  0  0
   -4.6727    5.1697  -38.9596 H   0  0  0  0  0  0  0  0  0  0  0  0
   -6.5196    5.3742  -38.8987 H   0  0  0  0  0  0  0  0  0  0  0  0
   -4.5794    4.8730  -36.5776 H   0  0  0  0  0  0  0  0  0  0  0  0
   -7.6672    5.2405  -36.7529 H   0  0  0  0  0  0  0  0  0  0  0  0
   -7.6654    3.8392  -34.9760 H   0  0  0  0  0  0  0  0  0  0  0  0
  1  4  1  0  0  0  0
  1  5  3  0  0  0  0
  2  3  2  0  0  0  0
  3  4  1  0  0  0  0
  4  6  1  0  0  0  0
  2  7  1  0  0  0  0
  2  8  1  0  0  0  0
  3  9  1  0  0  0  0
  4 10  1  0  0  0  0
  6 11  1  0  0  0  0
M  END
> <id>
EN300-115246

> <smiles>
OC(C=C)C#N

> <MDLNUMBER>
MFCD01656473

> <IUPAC Name>
2-hydroxybut-3-enenitrile

> <CAS>
5809-59-6

> <Purity>
95

> <URL>
https://www.enaminestore.com/catalog/EN300-115246

> <ROCS_ShapeQuery>
hit0

> <ROCS_TanimotoCombo>
1.033 

> <ROCS_ShapeTanimoto>
0.605 

> <ROCS_ColorTanimoto>
0.428 

> <ROCS_RefTversky>
1.107 

> <ROCS_RefColorTversky>
0.508 

> <ROCS_RefTverskyCombo>
1.615 

> <ROCS_FitTversky>
0.571 

> <ROCS_FitColorTversky>
0.731 

> <ROCS_FitTverskyCombo>
1.303 

> <ROCS_ColorScore>
-2.999

> <ROCS_Overlap>
126.617

> <ROCS_Rank>
177                 

$$$$
untitled-dbase-60484_6
  -OEChem-06232314393D

 20 20  0     0  0  0  0  0  0999 V2000
   -7.7758    7.3170  -35.1691 C   0  0  0  0  0  0  0  0  0  0  0  0
   -7.7575    5.9333  -34.9939 C   0  0  0  0  0  0  0  0  0  0  0  0
   -6.0260    7.1305  -36.8245 C   0  0  0  0  0  0  0  0  0  0  0  0
   -6.9101    7.9156  -36.0844 C   0  0  0  0  0  0  0  0  0  0  0  0
   -6.0077    5.7468  -36.6493 C   0  0  0  0  0  0  0  0  0  0  0  0
   -6.8734    5.1482  -35.7339 C   0  0  0  0  0  0  0  0  0  0  0  0
   -6.9311    9.3948  -36.2724 C   0  0  0  0  0  0  0  0  0  0  0  0
   -5.0557    4.9215  -37.4507 C   0  0  0  0  0  0  0  0  0  0  0  0
   -6.8678    3.7983  -35.5489 O   0  0  0  0  0  0  0  0  0  0  0  0
   -5.5325    4.8170  -38.7861 O   0  0  0  0  0  0  0  0  0  0  0  0
   -8.4683    7.9211  -34.5888 H   0  0  0  0  0  0  0  0  0  0  0  0
   -8.4362    5.4737  -34.2803 H   0  0  0  0  0  0  0  0  0  0  0  0
   -5.3517    7.5981  -37.5382 H   0  0  0  0  0  0  0  0  0  0  0  0
   -6.2281    9.8777  -35.5826 H   0  0  0  0  0  0  0  0  0  0  0  0
   -6.6559    9.6702  -37.2988 H   0  0  0  0  0  0  0  0  0  0  0  0
   -7.9333    9.8053  -36.0915 H   0  0  0  0  0  0  0  0  0  0  0  0
   -4.0544    5.3716  -37.4685 H   0  0  0  0  0  0  0  0  0  0  0  0
   -4.9569    3.9122  -37.0299 H   0  0  0  0  0  0  0  0  0  0  0  0
   -7.5255    3.5491  -34.8808 H   0  0  0  0  0  0  0  0  0  0  0  0
   -6.4042    4.3924  -38.7394 H   0  0  0  0  0  0  0  0  0  0  0  0
  1  2  1  0  0  0  0
  1  4  2  0  0  0  0
  2  6  2  0  0  0  0
  3  4  1  0  0  0  0
  3  5  2  0  0  0  0
  4  7  1  0  0  0  0
  5  6  1  0  0  0  0
  5  8  1  0  0  0  0
  6  9  1  0  0  0  0
  8 10  1  0  0  0  0
  1 11  1  0  0  0  0
  2 12  1  0  0  0  0
  3 13  1  0  0  0  0
  7 14  1  0  0  0  0
  7 15  1  0  0  0  0
  7 16  1  0  0  0  0
  8 17  1  0  0  0  0
  8 18  1  0  0  0  0
  9 19  1  0  0  0  0
 10 20  1  0  0  0  0
M  END
> <id>
EN300-1848629

> <smiles>
CC=1C=CC(O)=C(CO)C1

> <MDLNUMBER>
MFCD06202805

> <IUPAC Name>
2-(hydroxymethyl)-4-methylphenol

> <CAS>
4383-07-7

> <URL>
https://www.enaminestore.com/catalog/EN300-1848629

> <ROCS_ShapeQuery>
hit0

> <ROCS_TanimotoCombo>
1.033 

> <ROCS_ShapeTanimoto>
0.463 

> <ROCS_ColorTanimoto>
0.570 

> <ROCS_RefTversky>
1.368 

> <ROCS_RefColorTversky>
0.672 

> <ROCS_RefTverskyCombo>
2.040 

> <ROCS_FitTversky>
0.411 

> <ROCS_FitColorTversky>
0.790 

> <ROCS_FitTverskyCombo>
1.202 

> <ROCS_ColorScore>
-3.998

> <ROCS_Overlap>
170.401

> <ROCS_Rank>
178                 

$$$$
untitled-dbase-42267_54
  -OEChem-06232314393D

 23 23  0     1  0  0  0  0  0999 V2000
   -5.1449    6.0297  -36.6212 C   0  0  0  0  0  0  0  0  0  0  0  0
   -6.4844    4.2603  -35.4094 C   0  0  0  0  0  0  0  0  0  0  0  0
   -6.3362    6.9875  -36.5422 C   0  0  0  0  0  0  0  0  0  0  0  0
   -7.6779    5.2150  -35.3310 C   0  0  0  0  0  0  0  0  0  0  0  0
   -5.5590    4.5512  -36.5997 C   0  0  1  0  0  0  0  0  0  0  0  0
   -7.2454    6.6812  -35.3531 C   0  0  1  0  0  0  0  0  0  0  0  0
   -6.1927    4.1228  -37.9261 C   0  0  0  0  0  0  0  0  0  0  0  0
   -6.5441    6.9943  -34.1509 O   0  0  0  0  0  0  0  0  0  0  0  0
   -5.4779    4.7347  -38.9832 O   0  0  0  0  0  0  0  0  0  0  0  0
   -4.5737    6.2449  -37.5405 H   0  0  0  0  0  0  0  0  0  0  0  0
   -4.4609    6.2386  -35.7822 H   0  0  0  0  0  0  0  0  0  0  0  0
   -5.9141    4.3202  -34.4681 H   0  0  0  0  0  0  0  0  0  0  0  0
   -6.8594    3.2247  -35.4726 H   0  0  0  0  0  0  0  0  0  0  0  0
   -5.9745    8.0235  -36.4752 H   0  0  0  0  0  0  0  0  0  0  0  0
   -6.9158    6.9402  -37.4739 H   0  0  0  0  0  0  0  0  0  0  0  0
   -8.3656    5.0189  -36.1644 H   0  0  0  0  0  0  0  0  0  0  0  0
   -8.2574    5.0127  -34.4192 H   0  0  0  0  0  0  0  0  0  0  0  0
   -4.6372    3.9470  -36.4628 H   0  0  0  0  0  0  0  0  0  0  0  0
   -8.1318    7.3303  -35.3965 H   0  0  0  0  0  0  0  0  0  0  0  0
   -7.2332    4.4437  -37.9598 H   0  0  0  0  0  0  0  0  0  0  0  0
   -6.1365    3.0400  -38.0307 H   0  0  0  0  0  0  0  0  0  0  0  0
   -7.1452    6.7899  -33.4171 H   0  0  0  0  0  0  0  0  0  0  0  0
   -5.5474    5.6966  -38.8565 H   0  0  0  0  0  0  0  0  0  0  0  0
  1  3  1  0  0  0  0
  1  5  1  0  0  0  0
  2  4  1  0  0  0  0
  2  5  1  0  0  0  0
  3  6  1  0  0  0  0
  4  6  1  0  0  0  0
  5  7  1  1  0  0  0
  6  8  1  6  0  0  0
  7  9  1  0  0  0  0
  1 10  1  0  0  0  0
  1 11  1  0  0  0  0
  2 12  1  0  0  0  0
  2 13  1  0  0  0  0
  3 14  1  0  0  0  0
  3 15  1  0  0  0  0
  4 16  1  0  0  0  0
  4 17  1  0  0  0  0
  5 18  1  0  0  0  0
  6 19  1  0  0  0  0
  7 20  1  0  0  0  0
  7 21  1  0  0  0  0
  8 22  1  0  0  0  0
  9 23  1  0  0  0  0
M  END
> <id>
EN300-7076406

> <smiles>
OC[C@H]1CC[C@H](O)CC1

> <MDLNUMBER>
MFCD09866846

> <IUPAC Name>
(1r,4r)-4-(hydroxymethyl)cyclohexan-1-ol

> <CAS>
3685-27-6

> <Purity>
95

> <URL>
https://www.enaminestore.com/catalog/EN300-7076406

> <MP>
103-104

> <ROCS_ShapeQuery>
hit0

> <ROCS_TanimotoCombo>
1.033 

> <ROCS_ShapeTanimoto>
0.497 

> <ROCS_ColorTanimoto>
0.536 

> <ROCS_RefTversky>
1.281 

> <ROCS_RefColorTversky>
0.645 

> <ROCS_RefTverskyCombo>
1.927 

> <ROCS_FitTversky>
0.448 

> <ROCS_FitColorTversky>
0.760 

> <ROCS_FitTverskyCombo>
1.208 

> <ROCS_ColorScore>
-3.839

> <ROCS_Overlap>
155.005

> <ROCS_Rank>
179                 

$$$$
untitled-dbase-10763_126
  -OEChem-06232314393D

 22 22  0     1  0  0  0  0  0999 V2000
   -4.8289    5.4847  -36.7397 C   0  0  0  0  0  0  0  0  0  0  0  0
   -4.9061    5.1595  -35.2523 C   0  0  0  0  0  0  0  0  0  0  0  0
   -6.8503    4.0197  -37.0788 C   0  0  0  0  0  0  0  0  0  0  0  0
   -5.4412    4.3552  -37.5630 C   0  0  1  0  0  0  0  0  0  0  0  0
   -6.3250    4.7744  -34.8067 C   0  0  1  0  0  0  0  0  0  0  0  0
   -7.2577    5.9864  -34.7202 C   0  0  0  0  0  0  0  0  0  0  0  0
   -6.8803    3.7088  -35.6515 N   0  0  0  0  0  0  0  0  0  0  0  0
   -5.5087    4.7439  -38.9306 O   0  0  0  0  0  0  0  0  0  0  0  0
   -6.5373    7.0677  -34.1591 O   0  0  0  0  0  0  0  0  0  0  0  0
   -5.3552    6.4242  -36.9299 H   0  0  0  0  0  0  0  0  0  0  0  0
   -3.7814    5.6193  -37.0264 H   0  0  0  0  0  0  0  0  0  0  0  0
   -4.2080    4.3364  -35.0250 H   0  0  0  0  0  0  0  0  0  0  0  0
   -4.5488    6.0259  -34.6678 H   0  0  0  0  0  0  0  0  0  0  0  0
   -7.5190    4.8702  -37.2549 H   0  0  0  0  0  0  0  0  0  0  0  0
   -7.2528    3.1713  -37.6457 H   0  0  0  0  0  0  0  0  0  0  0  0
   -4.8077    3.4702  -37.5045 H   0  0  0  0  0  0  0  0  0  0  0  0
   -6.2461    4.3593  -33.7547 H   0  0  0  0  0  0  0  0  0  0  0  0
   -8.1110    5.7520  -34.0849 H   0  0  0  0  0  0  0  0  0  0  0  0
   -7.6028    6.2599  -35.7165 H   0  0  0  0  0  0  0  0  0  0  0  0
   -7.8536    3.5354  -35.3706 H   0  0  0  0  0  0  0  0  0  0  0  0
   -4.5980    4.9219  -39.2113 H   0  0  0  0  0  0  0  0  0  0  0  0
   -5.7846    7.2466  -34.7485 H   0  0  0  0  0  0  0  0  0  0  0  0
  1  2  1  0  0  0  0
  1  4  1  0  0  0  0
  2  5  1  0  0  0  0
  3  4  1  0  0  0  0
  3  7  1  0  0  0  0
  4  8  1  0  0  0  0
  5  6  1  0  0  0  0
  5  7  1  0  0  0  0
  6  9  1  0  0  0  0
  1 10  1  0  0  0  0
  1 11  1  0  0  0  0
  2 12  1  0  0  0  0
  2 13  1  0  0  0  0
  3 14  1  0  0  0  0
  3 15  1  0  0  0  0
  4 16  1  0  0  0  0
  5 17  1  0  0  0  0
  6 18  1  0  0  0  0
  6 19  1  0  0  0  0
  7 20  1  0  0  0  0
  8 21  1  0  0  0  0
  9 22  1  0  0  0  0
M  END
> <id>
EN300-179301

> <smiles>
OCC1CCC(O)CN1

> <MDLNUMBER>
MFCD08694811

> <IUPAC Name>
6-(hydroxymethyl)piperidin-3-ol

> <CAS>
857238-95-0

> <URL>
https://www.enaminestore.com/catalog/EN300-179301

> <ROCS_ShapeQuery>
hit0

> <ROCS_TanimotoCombo>
1.033 

> <ROCS_ShapeTanimoto>
0.442 

> <ROCS_ColorTanimoto>
0.591 

> <ROCS_RefTversky>
1.197 

> <ROCS_RefColorTversky>
0.798 

> <ROCS_RefTverskyCombo>
1.995 

> <ROCS_FitTversky>
0.412 

> <ROCS_FitColorTversky>
0.695 

> <ROCS_FitTverskyCombo>
1.107 

> <ROCS_ColorScore>
-4.829

> <ROCS_Overlap>
145.201

> <ROCS_Rank>
180                 

$$$$
untitled-dbase-41901_21
  -OEChem-06232314393D

 18 18  0     1  0  0  0  0  0999 V2000
   -5.5909    6.1806  -37.9150 C   0  0  0  0  0  0  0  0  0  0  0  0
   -6.1273    3.9155  -37.8005 C   0  0  0  0  0  0  0  0  0  0  0  0
   -5.9500    5.8466  -36.4780 C   0  0  2  0  0  0  0  0  0  0  0  0
   -6.8336    4.6294  -36.6644 C   0  0  2  0  0  0  0  0  0  0  0  0
   -6.4570    6.7407  -34.3855 N   0  0  0  0  0  0  0  0  0  0  0  0
   -6.6064    6.9455  -35.7887 N   0  0  0  0  0  0  0  0  0  0  0  0
   -5.5321    4.9302  -38.6209 O   0  0  0  0  0  0  0  0  0  0  0  0
   -6.8837    3.8319  -35.4990 O   0  0  0  0  0  0  0  0  0  0  0  0
   -6.2942    6.8495  -38.4123 H   0  0  0  0  0  0  0  0  0  0  0  0
   -4.5966    6.6294  -37.9690 H   0  0  0  0  0  0  0  0  0  0  0  0
   -5.3432    3.2307  -37.4618 H   0  0  0  0  0  0  0  0  0  0  0  0
   -6.8375    3.3644  -38.4272 H   0  0  0  0  0  0  0  0  0  0  0  0
   -5.0071    5.5885  -35.9126 H   0  0  0  0  0  0  0  0  0  0  0  0
   -7.8841    4.8836  -36.9408 H   0  0  0  0  0  0  0  0  0  0  0  0
   -5.4670    6.7574  -34.1416 H   0  0  0  0  0  0  0  0  0  0  0  0
   -6.8776    7.5294  -33.8957 H   0  0  0  0  0  0  0  0  0  0  0  0
   -6.1596    7.8210  -36.0521 H   0  0  0  0  0  0  0  0  0  0  0  0
   -5.9646    3.6469  -35.2525 H   0  0  0  0  0  0  0  0  0  0  0  0
  1  3  1  0  0  0  0
  1  7  1  0  0  0  0
  2  4  1  0  0  0  0
  2  7  1  0  0  0  0
  3  4  1  0  0  0  0
  3  6  1  6  0  0  0
  4  8  1  1  0  0  0
  5  6  1  0  0  0  0
  1  9  1  0  0  0  0
  1 10  1  0  0  0  0
  2 11  1  0  0  0  0
  2 12  1  0  0  0  0
  3 13  1  0  0  0  0
  4 14  1  0  0  0  0
  5 15  1  0  0  0  0
  5 16  1  0  0  0  0
  6 17  1  0  0  0  0
  8 18  1  0  0  0  0
M  END
> <id>
EN300-1179962

> <smiles>
Cl.Cl.NN[C@@H]1COC[C@H]1O |&1:4,8,r|

> <MDLNUMBER>
MFCD31559282

> <IUPAC Name>
rac-(3R,4S)-4-hydrazinyloxolan-3-ol dihydrochloride

> <CAS>
2138115-25-8

> <Purity>
75

> <URL>
https://www.enaminestore.com/catalog/EN300-1179962

> <Saltdate>
Cl

> <ROCS_ShapeQuery>
hit0

> <ROCS_TanimotoCombo>
1.032 

> <ROCS_ShapeTanimoto>
0.542 

> <ROCS_ColorTanimoto>
0.490 

> <ROCS_RefTversky>
1.294 

> <ROCS_RefColorTversky>
0.671 

> <ROCS_RefTverskyCombo>
1.965 

> <ROCS_FitTversky>
0.483 

> <ROCS_FitColorTversky>
0.646 

> <ROCS_FitTverskyCombo>
1.128 

> <ROCS_ColorScore>
-4.034

> <ROCS_Overlap>
154.852

> <ROCS_Rank>
181                 

$$$$
untitled-dbase-84160_21
  -OEChem-06232314393D

 18 18  0     1  0  0  0  0  0999 V2000
   -5.5921    6.1807  -37.9153 C   0  0  0  0  0  0  0  0  0  0  0  0
   -6.1284    3.9155  -37.8011 C   0  0  0  0  0  0  0  0  0  0  0  0
   -5.9506    5.8466  -36.4782 C   0  0  2  0  0  0  0  0  0  0  0  0
   -6.8342    4.6294  -36.6645 C   0  0  2  0  0  0  0  0  0  0  0  0
   -6.4569    6.7409  -34.3852 N   0  0  0  0  0  0  0  0  0  0  0  0
   -6.6067    6.9454  -35.7886 N   0  0  0  0  0  0  0  0  0  0  0  0
   -5.5320    4.9302  -38.6207 O   0  0  0  0  0  0  0  0  0  0  0  0
   -6.8838    3.8318  -35.4991 O   0  0  0  0  0  0  0  0  0  0  0  0
   -6.2990    6.8482  -38.4111 H   0  0  0  0  0  0  0  0  0  0  0  0
   -4.5994    6.6341  -37.9727 H   0  0  0  0  0  0  0  0  0  0  0  0
   -5.3437    3.2315  -37.4614 H   0  0  0  0  0  0  0  0  0  0  0  0
   -6.8377    3.3646  -38.4292 H   0  0  0  0  0  0  0  0  0  0  0  0
   -5.0078    5.5887  -35.9140 H   0  0  0  0  0  0  0  0  0  0  0  0
   -7.8845    4.8844  -36.9401 H   0  0  0  0  0  0  0  0  0  0  0  0
   -5.4669    6.7577  -34.1417 H   0  0  0  0  0  0  0  0  0  0  0  0
   -6.8775    7.5295  -33.8952 H   0  0  0  0  0  0  0  0  0  0  0  0
   -6.1602    7.8212  -36.0519 H   0  0  0  0  0  0  0  0  0  0  0  0
   -5.9645    3.6465  -35.2529 H   0  0  0  0  0  0  0  0  0  0  0  0
  1  3  1  0  0  0  0
  1  7  1  0  0  0  0
  2  4  1  0  0  0  0
  2  7  1  0  0  0  0
  3  4  1  0  0  0  0
  3  6  1  0  0  0  0
  4  8  1  0  0  0  0
  5  6  1  0  0  0  0
  1  9  1  0  0  0  0
  1 10  1  0  0  0  0
  2 11  1  0  0  0  0
  2 12  1  0  0  0  0
  3 13  1  0  0  0  0
  4 14  1  0  0  0  0
  5 15  1  0  0  0  0
  5 16  1  0  0  0  0
  6 17  1  0  0  0  0
  8 18  1  0  0  0  0
M  END
> <id>
EN300-294350

> <smiles>
NNC1COCC1O

> <MDLNUMBER>
MFCD31420962

> <IUPAC Name>
4-hydrazinyloxolan-3-ol

> <CAS>
1865649-76-8

> <URL>
https://www.enaminestore.com/catalog/EN300-294350

> <ROCS_ShapeQuery>
hit0

> <ROCS_TanimotoCombo>
1.032 

> <ROCS_ShapeTanimoto>
0.542 

> <ROCS_ColorTanimoto>
0.490 

> <ROCS_RefTversky>
1.294 

> <ROCS_RefColorTversky>
0.671 

> <ROCS_RefTverskyCombo>
1.965 

> <ROCS_FitTversky>
0.483 

> <ROCS_FitColorTversky>
0.646 

> <ROCS_FitTverskyCombo>
1.128 

> <ROCS_ColorScore>
-4.034

> <ROCS_Overlap>
154.842

> <ROCS_Rank>
182                 

$$$$
untitled-dbase-84426_21
  -OEChem-06232314393D

 18 18  0     1  0  0  0  0  0999 V2000
   -5.5921    6.1807  -37.9153 C   0  0  0  0  0  0  0  0  0  0  0  0
   -6.1284    3.9155  -37.8011 C   0  0  0  0  0  0  0  0  0  0  0  0
   -5.9506    5.8466  -36.4782 C   0  0  2  0  0  0  0  0  0  0  0  0
   -6.8342    4.6294  -36.6645 C   0  0  2  0  0  0  0  0  0  0  0  0
   -6.4569    6.7409  -34.3852 N   0  0  0  0  0  0  0  0  0  0  0  0
   -6.6067    6.9454  -35.7886 N   0  0  0  0  0  0  0  0  0  0  0  0
   -5.5320    4.9302  -38.6207 O   0  0  0  0  0  0  0  0  0  0  0  0
   -6.8838    3.8318  -35.4991 O   0  0  0  0  0  0  0  0  0  0  0  0
   -6.2990    6.8482  -38.4111 H   0  0  0  0  0  0  0  0  0  0  0  0
   -4.5994    6.6341  -37.9727 H   0  0  0  0  0  0  0  0  0  0  0  0
   -5.3437    3.2315  -37.4614 H   0  0  0  0  0  0  0  0  0  0  0  0
   -6.8377    3.3646  -38.4292 H   0  0  0  0  0  0  0  0  0  0  0  0
   -5.0078    5.5887  -35.9140 H   0  0  0  0  0  0  0  0  0  0  0  0
   -7.8845    4.8844  -36.9401 H   0  0  0  0  0  0  0  0  0  0  0  0
   -5.4669    6.7577  -34.1417 H   0  0  0  0  0  0  0  0  0  0  0  0
   -6.8775    7.5295  -33.8952 H   0  0  0  0  0  0  0  0  0  0  0  0
   -6.1602    7.8212  -36.0519 H   0  0  0  0  0  0  0  0  0  0  0  0
   -5.9645    3.6465  -35.2529 H   0  0  0  0  0  0  0  0  0  0  0  0
  1  3  1  0  0  0  0
  1  7  1  0  0  0  0
  2  4  1  0  0  0  0
  2  7  1  0  0  0  0
  3  4  1  0  0  0  0
  3  6  1  0  0  0  0
  4  8  1  0  0  0  0
  5  6  1  0  0  0  0
  1  9  1  0  0  0  0
  1 10  1  0  0  0  0
  2 11  1  0  0  0  0
  2 12  1  0  0  0  0
  3 13  1  0  0  0  0
  4 14  1  0  0  0  0
  5 15  1  0  0  0  0
  5 16  1  0  0  0  0
  6 17  1  0  0  0  0
  8 18  1  0  0  0  0
M  END
> <id>
EN300-1073516

> <smiles>
Cl.Cl.NNC1COCC1O

> <IUPAC Name>
4-hydrazinyloxolan-3-ol dihydrochloride

> <CAS>
2138087-95-1

> <URL>
https://www.enaminestore.com/catalog/EN300-1073516

> <Saltdate>
Cl

> <ROCS_ShapeQuery>
hit0

> <ROCS_TanimotoCombo>
1.032 

> <ROCS_ShapeTanimoto>
0.542 

> <ROCS_ColorTanimoto>
0.490 

> <ROCS_RefTversky>
1.294 

> <ROCS_RefColorTversky>
0.671 

> <ROCS_RefTverskyCombo>
1.965 

> <ROCS_FitTversky>
0.483 

> <ROCS_FitColorTversky>
0.646 

> <ROCS_FitTverskyCombo>
1.128 

> <ROCS_ColorScore>
-4.034

> <ROCS_Overlap>
154.842

> <ROCS_Rank>
183                 

$$$$
untitled-dbase-7442_0
  -OEChem-06232314393D

 12 11  0     0  0  0  0  0  0999 V2000
   -6.3741    5.6177  -36.5186 C   0  0  0  0  0  0  0  0  0  0  0  0
   -6.6737    6.9239  -35.8045 C   0  0  0  0  0  0  0  0  0  0  0  0
   -5.5786    4.6049  -38.5601 N   0  0  0  0  0  0  0  0  0  0  0  0
   -5.8901    5.7183  -37.8063 N   0  0  0  0  0  0  0  0  0  0  0  0
   -6.5541    4.5276  -35.9728 O   0  0  0  0  0  0  0  0  0  0  0  0
   -6.4965    6.7763  -34.4098 O   0  0  0  0  0  0  0  0  0  0  0  0
   -6.0083    7.7152  -36.1625 H   0  0  0  0  0  0  0  0  0  0  0  0
   -7.7136    7.2105  -35.9860 H   0  0  0  0  0  0  0  0  0  0  0  0
   -4.7878    4.8592  -39.1505 H   0  0  0  0  0  0  0  0  0  0  0  0
   -5.2317    3.8975  -37.9137 H   0  0  0  0  0  0  0  0  0  0  0  0
   -5.7590    6.6395  -38.2121 H   0  0  0  0  0  0  0  0  0  0  0  0
   -7.1122    6.0836  -34.1132 H   0  0  0  0  0  0  0  0  0  0  0  0
  1  2  1  0  0  0  0
  1  4  1  0  0  0  0
  1  5  2  0  0  0  0
  2  6  1  0  0  0  0
  3  4  1  0  0  0  0
  2  7  1  0  0  0  0
  2  8  1  0  0  0  0
  3  9  1  0  0  0  0
  3 10  1  0  0  0  0
  4 11  1  0  0  0  0
  6 12  1  0  0  0  0
M  END
> <id>
EN300-100149

> <smiles>
NNC(=O)CO

> <MDLNUMBER>
MFCD09840691

> <IUPAC Name>
2-hydroxyacetohydrazide

> <CAS>
3530-14-1

> <Purity>
95

> <URL>
https://www.enaminestore.com/catalog/EN300-100149

> <MP>
90-93

> <ROCS_ShapeQuery>
hit0

> <ROCS_TanimotoCombo>
1.032 

> <ROCS_ShapeTanimoto>
0.596 

> <ROCS_ColorTanimoto>
0.437 

> <ROCS_RefTversky>
1.107 

> <ROCS_RefColorTversky>
0.576 

> <ROCS_RefTverskyCombo>
1.683 

> <ROCS_FitTversky>
0.563 

> <ROCS_FitColorTversky>
0.644 

> <ROCS_FitTverskyCombo>
1.207 

> <ROCS_ColorScore>
-3.434

> <ROCS_Overlap>
126.923

> <ROCS_Rank>
184                 

$$$$
untitled-dbase-82226_12
  -OEChem-06232314393D

 20 20  0     0  0  0  0  0  0999 V2000
   -6.7720    4.7201  -35.8624 C   0  0  0  0  0  0  0  0  0  0  0  0
   -6.9504    7.0826  -35.2499 C   0  0  0  0  0  0  0  0  0  0  0  0
   -5.0939    6.2756  -36.9324 C   0  0  0  0  0  0  0  0  0  0  0  0
   -7.0701    6.3446  -37.7736 C   0  0  0  0  0  0  0  0  0  0  0  0
   -5.6662    6.0745  -38.3484 C   0  0  0  0  0  0  0  0  0  0  0  0
   -6.5212    6.0710  -36.3409 C   0  0  0  0  0  0  0  0  0  0  0  0
   -8.4134    8.8912  -34.8350 C   0  0  0  0  0  0  0  0  0  0  0  0
   -6.9721    3.6428  -35.4808 N   0  0  0  0  0  0  0  0  0  0  0  0
   -6.4740    7.1186  -34.1235 O   0  0  0  0  0  0  0  0  0  0  0  0
   -5.4603    4.7709  -38.9259 O   0  0  0  0  0  0  0  0  0  0  0  0
   -7.9216    7.9018  -35.7445 O   0  0  0  0  0  0  0  0  0  0  0  0
   -4.3526    5.5150  -36.6400 H   0  0  0  0  0  0  0  0  0  0  0  0
   -4.6438    7.2626  -36.7558 H   0  0  0  0  0  0  0  0  0  0  0  0
   -7.4501    7.3605  -37.9508 H   0  0  0  0  0  0  0  0  0  0  0  0
   -7.8377    5.6366  -38.1241 H   0  0  0  0  0  0  0  0  0  0  0  0
   -5.3363    6.8538  -39.0509 H   0  0  0  0  0  0  0  0  0  0  0  0
   -9.1829    9.4901  -35.3282 H   0  0  0  0  0  0  0  0  0  0  0  0
   -7.5892    9.5321  -34.5118 H   0  0  0  0  0  0  0  0  0  0  0  0
   -8.8459    8.3910  -33.9653 H   0  0  0  0  0  0  0  0  0  0  0  0
   -5.8698    4.8021  -39.8007 H   0  0  0  0  0  0  0  0  0  0  0  0
  1  6  1  0  0  0  0
  1  8  3  0  0  0  0
  2  6  1  0  0  0  0
  2  9  2  0  0  0  0
  2 11  1  0  0  0  0
  3  5  1  0  0  0  0
  3  6  1  0  0  0  0
  4  5  1  0  0  0  0
  4  6  1  0  0  0  0
  5 10  1  0  0  0  0
  7 11  1  0  0  0  0
  3 12  1  0  0  0  0
  3 13  1  0  0  0  0
  4 14  1  0  0  0  0
  4 15  1  0  0  0  0
  5 16  1  0  0  0  0
  7 17  1  0  0  0  0
  7 18  1  0  0  0  0
  7 19  1  0  0  0  0
 10 20  1  0  0  0  0
M  END
> <id>
EN300-2926565

> <smiles>
COC(=O)C1(CC(O)C1)C#N

> <MDLNUMBER>
MFCD21659912

> <IUPAC Name>
methyl 1-cyano-3-hydroxycyclobutane-1-carboxylate

> <CAS>
1497856-61-7

> <Purity>
95

> <URL>
https://www.enaminestore.com/catalog/EN300-2926565

> <ROCS_ShapeQuery>
hit0

> <ROCS_TanimotoCombo>
1.032 

> <ROCS_ShapeTanimoto>
0.496 

> <ROCS_ColorTanimoto>
0.536 

> <ROCS_RefTversky>
1.502 

> <ROCS_RefColorTversky>
0.645 

> <ROCS_RefTverskyCombo>
2.148 

> <ROCS_FitTversky>
0.426 

> <ROCS_FitColorTversky>
0.760 

> <ROCS_FitTverskyCombo>
1.186 

> <ROCS_ColorScore>
-3.840

> <ROCS_Overlap>
189.565

> <ROCS_Rank>
185                 

$$$$
untitled-dbase-154612_4
  -OEChem-06232314393D

 18 18  0     1  0  0  0  0  0999 V2000
   -6.0245    4.6844  -36.1688 C   0  0  0  0  0  0  0  0  0  0  0  0
   -6.5751    6.0097  -36.6199 C   0  0  2  0  0  0  0  0  0  0  0  0
   -5.3953    5.4016  -37.3353 C   0  0  2  0  0  0  0  0  0  0  0  0
   -7.4162    8.3232  -36.0793 C   0  0  0  0  0  0  0  0  0  0  0  0
   -6.3935    7.2226  -35.7741 C   0  0  1  0  0  0  0  0  0  0  0  0
   -5.5584    4.8736  -38.6925 N   0  0  0  0  0  0  0  0  0  0  0  0
   -6.5071    6.8847  -34.3841 O   0  0  0  0  0  0  0  0  0  0  0  0
   -5.4642    4.6441  -35.2424 H   0  0  0  0  0  0  0  0  0  0  0  0
   -6.6207    3.8006  -36.3638 H   0  0  0  0  0  0  0  0  0  0  0  0
   -7.5381    6.0072  -37.1173 H   0  0  0  0  0  0  0  0  0  0  0  0
   -4.4222    5.8481  -37.1571 H   0  0  0  0  0  0  0  0  0  0  0  0
   -8.4371    7.9468  -35.9634 H   0  0  0  0  0  0  0  0  0  0  0  0
   -7.2985    8.7078  -37.0981 H   0  0  0  0  0  0  0  0  0  0  0  0
   -7.2779    9.1747  -35.4039 H   0  0  0  0  0  0  0  0  0  0  0  0
   -5.3816    7.6491  -35.9042 H   0  0  0  0  0  0  0  0  0  0  0  0
   -5.4404    5.6242  -39.3286 H   0  0  0  0  0  0  0  0  0  0  0  0
   -4.8677    4.1772  -38.8340 H   0  0  0  0  0  0  0  0  0  0  0  0
   -7.3946    6.5175  -34.2709 H   0  0  0  0  0  0  0  0  0  0  0  0
  1  2  1  6  0  0  0
  1  3  1  0  0  0  0
  2  3  1  0  0  0  0
  2  5  1  0  0  0  0
  3  6  1  1  0  0  0
  4  5  1  6  0  0  0
  5  7  1  0  0  0  0
  1  8  1  0  0  0  0
  1  9  1  0  0  0  0
  2 10  1  0  0  0  0
  3 11  1  0  0  0  0
  4 12  1  0  0  0  0
  4 13  1  0  0  0  0
  4 14  1  0  0  0  0
  5 15  1  0  0  0  0
  6 16  1  0  0  0  0
  6 17  1  0  0  0  0
  7 18  1  0  0  0  0
M  END
> <id>
EN300-7536821

> <smiles>
C[C@@H](O)[C@@H]1C[C@H]1N |&1:1,3,5,r|

> <IUPAC Name>
rac-(1R)-1-[(1R,2R)-2-aminocyclopropyl]ethan-1-ol

> <CAS>
2679811-78-8

> <URL>
https://www.enaminestore.com/catalog/EN300-7536821

> <ROCS_ShapeQuery>
hit0

> <ROCS_TanimotoCombo>
1.032 

> <ROCS_ShapeTanimoto>
0.609 

> <ROCS_ColorTanimoto>
0.424 

> <ROCS_RefTversky>
1.232 

> <ROCS_RefColorTversky>
0.504 

> <ROCS_RefTverskyCombo>
1.737 

> <ROCS_FitTversky>
0.546 

> <ROCS_FitColorTversky>
0.726 

> <ROCS_FitTverskyCombo>
1.272 

> <ROCS_ColorScore>
-2.976

> <ROCS_Overlap>
143.704

> <ROCS_Rank>
186                 

$$$$
untitled-dbase-94750_4
  -OEChem-06232314393D

 18 18  0     1  0  0  0  0  0999 V2000
   -6.0245    4.6844  -36.1688 C   0  0  0  0  0  0  0  0  0  0  0  0
   -6.5751    6.0097  -36.6199 C   0  0  2  0  0  0  0  0  0  0  0  0
   -5.3953    5.4016  -37.3353 C   0  0  2  0  0  0  0  0  0  0  0  0
   -7.4162    8.3232  -36.0793 C   0  0  0  0  0  0  0  0  0  0  0  0
   -6.3935    7.2226  -35.7741 C   0  0  1  0  0  0  0  0  0  0  0  0
   -5.5584    4.8736  -38.6925 N   0  0  0  0  0  0  0  0  0  0  0  0
   -6.5071    6.8847  -34.3841 O   0  0  0  0  0  0  0  0  0  0  0  0
   -5.4642    4.6441  -35.2424 H   0  0  0  0  0  0  0  0  0  0  0  0
   -6.6207    3.8006  -36.3638 H   0  0  0  0  0  0  0  0  0  0  0  0
   -7.5381    6.0072  -37.1173 H   0  0  0  0  0  0  0  0  0  0  0  0
   -4.4222    5.8481  -37.1571 H   0  0  0  0  0  0  0  0  0  0  0  0
   -8.4371    7.9468  -35.9634 H   0  0  0  0  0  0  0  0  0  0  0  0
   -7.2985    8.7078  -37.0981 H   0  0  0  0  0  0  0  0  0  0  0  0
   -7.2779    9.1747  -35.4039 H   0  0  0  0  0  0  0  0  0  0  0  0
   -5.3816    7.6491  -35.9042 H   0  0  0  0  0  0  0  0  0  0  0  0
   -5.4404    5.6242  -39.3286 H   0  0  0  0  0  0  0  0  0  0  0  0
   -4.8677    4.1772  -38.8340 H   0  0  0  0  0  0  0  0  0  0  0  0
   -7.3946    6.5175  -34.2709 H   0  0  0  0  0  0  0  0  0  0  0  0
  1  2  1  0  0  0  0
  1  3  1  0  0  0  0
  2  3  1  0  0  0  0
  2  5  1  6  0  0  0
  3  6  1  1  0  0  0
  4  5  1  0  0  0  0
  5  7  1  0  0  0  0
  1  8  1  0  0  0  0
  1  9  1  0  0  0  0
  2 10  1  0  0  0  0
  3 11  1  0  0  0  0
  4 12  1  0  0  0  0
  4 13  1  0  0  0  0
  4 14  1  0  0  0  0
  5 15  1  0  0  0  0
  6 16  1  0  0  0  0
  6 17  1  0  0  0  0
  7 18  1  0  0  0  0
M  END
> <id>
EN300-7340151

> <smiles>
CC(O)[C@@H]1C[C@H]1N |&1:3,5,r|

> <IUPAC Name>
rac-1-[(1R,2R)-2-aminocyclopropyl]ethan-1-ol

> <CAS>
2351689-53-5

> <URL>
https://www.enaminestore.com/catalog/EN300-7340151

> <ROCS_ShapeQuery>
hit0

> <ROCS_TanimotoCombo>
1.032 

> <ROCS_ShapeTanimoto>
0.609 

> <ROCS_ColorTanimoto>
0.424 

> <ROCS_RefTversky>
1.232 

> <ROCS_RefColorTversky>
0.504 

> <ROCS_RefTverskyCombo>
1.737 

> <ROCS_FitTversky>
0.546 

> <ROCS_FitColorTversky>
0.726 

> <ROCS_FitTverskyCombo>
1.272 

> <ROCS_ColorScore>
-2.976

> <ROCS_Overlap>
143.704

> <ROCS_Rank>
187                 

$$$$
untitled-dbase-101010_4
  -OEChem-06232314393D

 18 18  0     1  0  0  0  0  0999 V2000
   -6.0245    4.6844  -36.1688 C   0  0  0  0  0  0  0  0  0  0  0  0
   -6.5751    6.0097  -36.6199 C   0  0  2  0  0  0  0  0  0  0  0  0
   -5.3953    5.4016  -37.3353 C   0  0  2  0  0  0  0  0  0  0  0  0
   -7.4162    8.3232  -36.0793 C   0  0  0  0  0  0  0  0  0  0  0  0
   -6.3935    7.2226  -35.7741 C   0  0  1  0  0  0  0  0  0  0  0  0
   -5.5584    4.8736  -38.6925 N   0  0  0  0  0  0  0  0  0  0  0  0
   -6.5071    6.8847  -34.3841 O   0  0  0  0  0  0  0  0  0  0  0  0
   -5.4642    4.6441  -35.2424 H   0  0  0  0  0  0  0  0  0  0  0  0
   -6.6207    3.8006  -36.3638 H   0  0  0  0  0  0  0  0  0  0  0  0
   -7.5381    6.0072  -37.1173 H   0  0  0  0  0  0  0  0  0  0  0  0
   -4.4222    5.8481  -37.1571 H   0  0  0  0  0  0  0  0  0  0  0  0
   -8.4371    7.9468  -35.9634 H   0  0  0  0  0  0  0  0  0  0  0  0
   -7.2985    8.7078  -37.0981 H   0  0  0  0  0  0  0  0  0  0  0  0
   -7.2779    9.1747  -35.4039 H   0  0  0  0  0  0  0  0  0  0  0  0
   -5.3816    7.6491  -35.9042 H   0  0  0  0  0  0  0  0  0  0  0  0
   -5.4404    5.6242  -39.3286 H   0  0  0  0  0  0  0  0  0  0  0  0
   -4.8677    4.1772  -38.8340 H   0  0  0  0  0  0  0  0  0  0  0  0
   -7.3946    6.5175  -34.2709 H   0  0  0  0  0  0  0  0  0  0  0  0
  1  2  1  0  0  0  0
  1  3  1  0  0  0  0
  2  3  1  0  0  0  0
  2  5  1  6  0  0  0
  3  6  1  1  0  0  0
  4  5  1  0  0  0  0
  5  7  1  0  0  0  0
  1  8  1  0  0  0  0
  1  9  1  0  0  0  0
  2 10  1  0  0  0  0
  3 11  1  0  0  0  0
  4 12  1  0  0  0  0
  4 13  1  0  0  0  0
  4 14  1  0  0  0  0
  5 15  1  0  0  0  0
  6 16  1  0  0  0  0
  6 17  1  0  0  0  0
  7 18  1  0  0  0  0
M  END
> <id>
EN300-7463275

> <smiles>
Cl.CC(O)[C@@H]1C[C@H]1N |&1:4,6,r|

> <IUPAC Name>
rac-1-[(1R,2R)-2-aminocyclopropyl]ethan-1-ol hydrochloride

> <CAS>
2378496-93-4

> <Purity>
95

> <URL>
https://www.enaminestore.com/catalog/EN300-7463275

> <Saltdate>
Cl

> <ROCS_ShapeQuery>
hit0

> <ROCS_TanimotoCombo>
1.032 

> <ROCS_ShapeTanimoto>
0.609 

> <ROCS_ColorTanimoto>
0.424 

> <ROCS_RefTversky>
1.232 

> <ROCS_RefColorTversky>
0.504 

> <ROCS_RefTverskyCombo>
1.737 

> <ROCS_FitTversky>
0.546 

> <ROCS_FitColorTversky>
0.726 

> <ROCS_FitTverskyCombo>
1.272 

> <ROCS_ColorScore>
-2.976

> <ROCS_Overlap>
143.704

> <ROCS_Rank>
188                 

$$$$
untitled-dbase-69898_70
  -OEChem-06232314393D

 19 19  0     0  0  0  0  0  0999 V2000
   -6.0708    4.2417  -37.7359 C   0  0  0  0  0  0  0  0  0  0  0  0
   -5.0272    5.4084  -35.8275 C   0  0  0  0  0  0  0  0  0  0  0  0
   -7.3583    6.0512  -36.5618 C   0  0  0  0  0  0  0  0  0  0  0  0
   -5.2498    6.1503  -34.5072 C   0  0  0  0  0  0  0  0  0  0  0  0
   -7.0092    7.2429  -35.6699 C   0  0  0  0  0  0  0  0  0  0  0  0
   -6.3426    4.9082  -36.4185 C   0  0  0  0  0  0  0  0  0  0  0  0
   -5.5576    4.8156  -38.6907 O   0  0  0  0  0  0  0  0  0  0  0  0
   -6.5253    6.7863  -34.4128 O   0  0  0  0  0  0  0  0  0  0  0  0
   -6.8604    3.8940  -35.5641 O   0  0  0  0  0  0  0  0  0  0  0  0
   -6.3649    3.1806  -37.8029 H   0  0  0  0  0  0  0  0  0  0  0  0
   -4.4902    6.0528  -36.5333 H   0  0  0  0  0  0  0  0  0  0  0  0
   -4.3729    4.5467  -35.6412 H   0  0  0  0  0  0  0  0  0  0  0  0
   -8.3503    5.6735  -36.2778 H   0  0  0  0  0  0  0  0  0  0  0  0
   -7.4449    6.3745  -37.6068 H   0  0  0  0  0  0  0  0  0  0  0  0
   -5.1739    5.4354  -33.6669 H   0  0  0  0  0  0  0  0  0  0  0  0
   -4.4556    6.9040  -34.3344 H   0  0  0  0  0  0  0  0  0  0  0  0
   -6.2643    7.8901  -36.1402 H   0  0  0  0  0  0  0  0  0  0  0  0
   -7.9050    7.8405  -35.4890 H   0  0  0  0  0  0  0  0  0  0  0  0
   -6.1756    3.2097  -35.4981 H   0  0  0  0  0  0  0  0  0  0  0  0
  1  6  1  0  0  0  0
  1  7  2  0  0  0  0
  2  4  1  0  0  0  0
  2  6  1  0  0  0  0
  3  5  1  0  0  0  0
  3  6  1  0  0  0  0
  4  8  1  0  0  0  0
  5  8  1  0  0  0  0
  6  9  1  0  0  0  0
  1 10  1  0  0  0  0
  2 11  1  0  0  0  0
  2 12  1  0  0  0  0
  3 13  1  0  0  0  0
  3 14  1  0  0  0  0
  4 15  1  0  0  0  0
  4 16  1  0  0  0  0
  5 17  1  0  0  0  0
  5 18  1  0  0  0  0
  9 19  1  0  0  0  0
M  END
> <id>
EN300-640644

> <smiles>
OC1(CCOCC1)C=O

> <MDLNUMBER>
MFCD28129588

> <IUPAC Name>
4-hydroxyoxane-4-carbaldehyde

> <CAS>
1383482-51-6

> <URL>
https://www.enaminestore.com/catalog/EN300-640644

> <ROCS_ShapeQuery>
hit0

> <ROCS_TanimotoCombo>
1.032 

> <ROCS_ShapeTanimoto>
0.473 

> <ROCS_ColorTanimoto>
0.559 

> <ROCS_RefTversky>
1.281 

> <ROCS_RefColorTversky>
0.663 

> <ROCS_RefTverskyCombo>
1.944 

> <ROCS_FitTversky>
0.429 

> <ROCS_FitColorTversky>
0.781 

> <ROCS_FitTverskyCombo>
1.210 

> <ROCS_ColorScore>
-3.945

> <ROCS_Overlap>
156.189

> <ROCS_Rank>
189                 

$$$$
untitled-dbase-90308_5
  -OEChem-06232314393D

 20 20  0     1  0  0  0  0  0999 V2000
   -6.5708    6.2900  -37.1463 C   0  0  1  0  0  0  0  0  0  0  0  0
   -6.4369    4.8710  -37.6633 C   0  0  2  0  0  0  0  0  0  0  0  0
   -5.3088    6.4470  -36.3129 C   0  0  1  0  0  0  0  0  0  0  0  0
   -5.8397    4.1661  -36.4542 C   0  0  1  0  0  0  0  0  0  0  0  0
   -5.4665    7.4296  -35.1654 C   0  0  0  0  0  0  0  0  0  0  0  0
   -5.0099    5.1398  -35.7916 O   0  0  0  0  0  0  0  0  0  0  0  0
   -6.6492    7.2546  -38.1741 O   0  0  0  0  0  0  0  0  0  0  0  0
   -5.5295    4.8061  -38.7592 O   0  0  0  0  0  0  0  0  0  0  0  0
   -6.8917    3.7423  -35.5954 O   0  0  0  0  0  0  0  0  0  0  0  0
   -6.5075    6.9771  -34.3153 O   0  0  0  0  0  0  0  0  0  0  0  0
   -7.4646    6.3706  -36.5170 H   0  0  0  0  0  0  0  0  0  0  0  0
   -7.4070    4.4554  -37.9915 H   0  0  0  0  0  0  0  0  0  0  0  0
   -4.4633    6.7620  -36.9355 H   0  0  0  0  0  0  0  0  0  0  0  0
   -5.2244    3.3024  -36.7276 H   0  0  0  0  0  0  0  0  0  0  0  0
   -5.7244    8.4201  -35.5473 H   0  0  0  0  0  0  0  0  0  0  0  0
   -4.5399    7.4930  -34.5904 H   0  0  0  0  0  0  0  0  0  0  0  0
   -6.7324    8.1259  -37.7475 H   0  0  0  0  0  0  0  0  0  0  0  0
   -5.8907    5.3807  -39.4521 H   0  0  0  0  0  0  0  0  0  0  0  0
   -6.4734    3.2995  -34.8399 H   0  0  0  0  0  0  0  0  0  0  0  0
   -6.2459    6.0997  -33.9894 H   0  0  0  0  0  0  0  0  0  0  0  0
  1  2  1  0  0  0  0
  1  3  1  0  0  0  0
  1  7  1  6  0  0  0
  2  4  1  0  0  0  0
  2  8  1  6  0  0  0
  3  5  1  1  0  0  0
  3  6  1  0  0  0  0
  4  6  1  0  0  0  0
  4  9  1  0  0  0  0
  5 10  1  0  0  0  0
  1 11  1  0  0  0  0
  2 12  1  0  0  0  0
  3 13  1  0  0  0  0
  4 14  1  0  0  0  0
  5 15  1  0  0  0  0
  5 16  1  0  0  0  0
  7 17  1  0  0  0  0
  8 18  1  0  0  0  0
  9 19  1  0  0  0  0
 10 20  1  0  0  0  0
M  END
> <id>
EN300-365473

> <smiles>
OC[C@H]1OC(O)[C@H](O)[C@@H]1O

> <MDLNUMBER>
MFCD00005363

> <IUPAC Name>
(3R,4S,5R)-5-(hydroxymethyl)oxolane-2,3,4-triol

> <CAS>
15761-67-8

> <Purity>
95

> <URL>
https://www.enaminestore.com/catalog/EN300-365473

> <MP>
85-86

> <ROCS_ShapeQuery>
hit0

> <ROCS_TanimotoCombo>
1.032 

> <ROCS_ShapeTanimoto>
0.436 

> <ROCS_ColorTanimoto>
0.596 

> <ROCS_RefTversky>
1.301 

> <ROCS_RefColorTversky>
0.964 

> <ROCS_RefTverskyCombo>
2.265 

> <ROCS_FitTversky>
0.396 

> <ROCS_FitColorTversky>
0.610 

> <ROCS_FitTverskyCombo>
1.006 

> <ROCS_ColorScore>
-5.980

> <ROCS_Overlap>
161.547

> <ROCS_Rank>
190                 

$$$$
untitled-dbase-5341_17
  -OEChem-06232314393D

 18 18  0     1  0  0  0  0  0999 V2000
   -6.2536    6.0010  -34.6625 C   0  0  0  0  0  0  0  0  0  0  0  0
   -6.2204    6.2107  -37.5005 C   0  0  0  0  0  0  0  0  0  0  0  0
   -5.8296    6.0140  -38.9503 C   0  0  0  0  0  0  0  0  0  0  0  0
   -5.3680    4.0450  -37.7936 C   0  0  0  0  0  0  0  0  0  0  0  0
   -5.3380    5.1973  -36.8047 C   0  0  2  0  0  0  0  0  0  0  0  0
   -5.8038    4.8200  -35.4115 C   0  0  2  0  0  0  0  0  0  0  0  0
   -6.6076    6.9347  -34.0714 N   0  0  0  0  0  0  0  0  0  0  0  0
   -5.4678    4.6331  -39.0997 O   0  0  0  0  0  0  0  0  0  0  0  0
   -6.8761    3.8883  -35.5356 O   0  0  0  0  0  0  0  0  0  0  0  0
   -6.0656    7.2374  -37.1575 H   0  0  0  0  0  0  0  0  0  0  0  0
   -7.2794    5.9604  -37.3629 H   0  0  0  0  0  0  0  0  0  0  0  0
   -6.6412    6.2594  -39.6411 H   0  0  0  0  0  0  0  0  0  0  0  0
   -4.9540    6.6181  -39.2108 H   0  0  0  0  0  0  0  0  0  0  0  0
   -4.4678    3.4255  -37.7416 H   0  0  0  0  0  0  0  0  0  0  0  0
   -6.2427    3.4006  -37.6520 H   0  0  0  0  0  0  0  0  0  0  0  0
   -4.3166    5.5967  -36.7508 H   0  0  0  0  0  0  0  0  0  0  0  0
   -4.9883    4.3202  -34.8753 H   0  0  0  0  0  0  0  0  0  0  0  0
   -6.5284    3.1330  -36.0343 H   0  0  0  0  0  0  0  0  0  0  0  0
  1  6  1  0  0  0  0
  1  7  3  0  0  0  0
  2  3  1  0  0  0  0
  2  5  1  0  0  0  0
  3  8  1  0  0  0  0
  4  5  1  0  0  0  0
  4  8  1  0  0  0  0
  5  6  1  0  0  0  0
  6  9  1  0  0  0  0
  2 10  1  0  0  0  0
  2 11  1  0  0  0  0
  3 12  1  0  0  0  0
  3 13  1  0  0  0  0
  4 14  1  0  0  0  0
  4 15  1  0  0  0  0
  5 16  1  0  0  0  0
  6 17  1  0  0  0  0
  9 18  1  0  0  0  0
M  END
> <id>
EN300-109944

> <smiles>
OC(C#N)C1CCOC1

> <MDLNUMBER>
MFCD12169349

> <IUPAC Name>
2-hydroxy-2-(oxolan-3-yl)acetonitrile

> <CAS>
1155915-36-8

> <Purity>
95

> <URL>
https://www.enaminestore.com/catalog/EN300-109944

> <ROCS_ShapeQuery>
hit0

> <ROCS_TanimotoCombo>
1.032 

> <ROCS_ShapeTanimoto>
0.506 

> <ROCS_ColorTanimoto>
0.526 

> <ROCS_RefTversky>
1.328 

> <ROCS_RefColorTversky>
0.638 

> <ROCS_RefTverskyCombo>
1.966 

> <ROCS_FitTversky>
0.449 

> <ROCS_FitColorTversky>
0.751 

> <ROCS_FitTverskyCombo>
1.201 

> <ROCS_ColorScore>
-3.793

> <ROCS_Overlap>
161.611

> <ROCS_Rank>
191                 

$$$$
untitled-dbase-143572_128
  -OEChem-06232314393D

 23 23  0     1  0  0  0  0  0999 V2000
   -6.6425    6.7420  -37.3639 C   0  0  0  0  0  0  0  0  0  0  0  0
   -8.4098    6.6416  -35.6509 C   0  0  0  0  0  0  0  0  0  0  0  0
   -6.5119    5.2432  -37.0762 C   0  0  2  0  0  0  0  0  0  0  0  0
   -7.3398    5.9908  -34.7731 C   0  0  1  0  0  0  0  0  0  0  0  0
   -6.4873    4.9828  -35.5557 C   0  0  1  0  0  0  0  0  0  0  0  0
   -5.2606    4.6727  -37.7490 C   0  0  0  0  0  0  0  0  0  0  0  0
   -7.8807    7.3183  -36.8364 N   0  0  0  0  0  0  0  0  0  0  0  0
   -6.4878    7.0055  -34.2400 O   0  0  0  0  0  0  0  0  0  0  0  0
   -7.0065    3.6744  -35.3098 O   0  0  0  0  0  0  0  0  0  0  0  0
   -5.3775    4.8673  -39.1448 O   0  0  0  0  0  0  0  0  0  0  0  0
   -5.7745    7.2929  -36.9597 H   0  0  0  0  0  0  0  0  0  0  0  0
   -6.6241    6.9078  -38.4539 H   0  0  0  0  0  0  0  0  0  0  0  0
   -9.1289    5.8651  -35.9733 H   0  0  0  0  0  0  0  0  0  0  0  0
   -9.0204    7.3461  -35.0514 H   0  0  0  0  0  0  0  0  0  0  0  0
   -7.3745    4.7178  -37.5042 H   0  0  0  0  0  0  0  0  0  0  0  0
   -7.8130    5.4874  -33.9097 H   0  0  0  0  0  0  0  0  0  0  0  0
   -5.4536    4.9880  -35.1790 H   0  0  0  0  0  0  0  0  0  0  0  0
   -5.1823    3.6085  -37.5353 H   0  0  0  0  0  0  0  0  0  0  0  0
   -4.3776    5.1919  -37.3818 H   0  0  0  0  0  0  0  0  0  0  0  0
   -7.7156    8.3121  -36.6067 H   0  0  0  0  0  0  0  0  0  0  0  0
   -7.0546    7.5947  -33.7191 H   0  0  0  0  0  0  0  0  0  0  0  0
   -6.9771    3.5435  -34.3499 H   0  0  0  0  0  0  0  0  0  0  0  0
   -4.5752    4.4994  -39.5542 H   0  0  0  0  0  0  0  0  0  0  0  0
  1  3  1  0  0  0  0
  1  7  1  0  0  0  0
  2  4  1  0  0  0  0
  2  7  1  0  0  0  0
  3  5  1  0  0  0  0
  3  6  1  0  0  0  0
  4  5  1  0  0  0  0
  4  8  1  0  0  0  0
  5  9  1  0  0  0  0
  6 10  1  0  0  0  0
  1 11  1  0  0  0  0
  1 12  1  0  0  0  0
  2 13  1  0  0  0  0
  2 14  1  0  0  0  0
  3 15  1  0  0  0  0
  4 16  1  0  0  0  0
  5 17  1  0  0  0  0
  6 18  1  0  0  0  0
  6 19  1  0  0  0  0
  7 20  1  0  0  0  0
  8 21  1  0  0  0  0
  9 22  1  0  0  0  0
 10 23  1  0  0  0  0
M  END
> <id>
EN300-7734132

> <smiles>
Cl.OCC1CNCC(O)C1O

> <MDLNUMBER>
MFCD33020035

> <IUPAC Name>
5-(hydroxymethyl)piperidine-3,4-diol hydrochloride

> <CAS>
2580234-21-3

> <Purity>
95

> <URL>
https://www.enaminestore.com/catalog/EN300-7734132

> <ROCS_ShapeQuery>
hit0

> <ROCS_TanimotoCombo>
1.032 

> <ROCS_ShapeTanimoto>
0.446 

> <ROCS_ColorTanimoto>
0.586 

> <ROCS_RefTversky>
1.300 

> <ROCS_RefColorTversky>
0.901 

> <ROCS_RefTverskyCombo>
2.201 

> <ROCS_FitTversky>
0.405 

> <ROCS_FitColorTversky>
0.626 

> <ROCS_FitTverskyCombo>
1.030 

> <ROCS_ColorScore>
-5.542

> <ROCS_Overlap>
160.695

> <ROCS_Rank>
192                 

$$$$
untitled-dbase-145187_128
  -OEChem-06232314393D

 23 23  0     1  0  0  0  0  0999 V2000
   -6.6425    6.7420  -37.3639 C   0  0  0  0  0  0  0  0  0  0  0  0
   -8.4098    6.6416  -35.6509 C   0  0  0  0  0  0  0  0  0  0  0  0
   -6.5119    5.2432  -37.0762 C   0  0  2  0  0  0  0  0  0  0  0  0
   -7.3398    5.9908  -34.7731 C   0  0  1  0  0  0  0  0  0  0  0  0
   -6.4873    4.9828  -35.5557 C   0  0  1  0  0  0  0  0  0  0  0  0
   -5.2606    4.6727  -37.7490 C   0  0  0  0  0  0  0  0  0  0  0  0
   -7.8807    7.3183  -36.8364 N   0  0  0  0  0  0  0  0  0  0  0  0
   -6.4878    7.0055  -34.2400 O   0  0  0  0  0  0  0  0  0  0  0  0
   -7.0065    3.6744  -35.3098 O   0  0  0  0  0  0  0  0  0  0  0  0
   -5.3775    4.8673  -39.1448 O   0  0  0  0  0  0  0  0  0  0  0  0
   -5.7745    7.2929  -36.9597 H   0  0  0  0  0  0  0  0  0  0  0  0
   -6.6241    6.9078  -38.4539 H   0  0  0  0  0  0  0  0  0  0  0  0
   -9.1289    5.8651  -35.9733 H   0  0  0  0  0  0  0  0  0  0  0  0
   -9.0204    7.3461  -35.0514 H   0  0  0  0  0  0  0  0  0  0  0  0
   -7.3745    4.7178  -37.5042 H   0  0  0  0  0  0  0  0  0  0  0  0
   -7.8130    5.4874  -33.9097 H   0  0  0  0  0  0  0  0  0  0  0  0
   -5.4536    4.9880  -35.1790 H   0  0  0  0  0  0  0  0  0  0  0  0
   -5.1823    3.6085  -37.5353 H   0  0  0  0  0  0  0  0  0  0  0  0
   -4.3776    5.1919  -37.3818 H   0  0  0  0  0  0  0  0  0  0  0  0
   -7.7156    8.3121  -36.6067 H   0  0  0  0  0  0  0  0  0  0  0  0
   -7.0546    7.5947  -33.7191 H   0  0  0  0  0  0  0  0  0  0  0  0
   -6.9771    3.5435  -34.3499 H   0  0  0  0  0  0  0  0  0  0  0  0
   -4.5752    4.4994  -39.5542 H   0  0  0  0  0  0  0  0  0  0  0  0
  1  3  1  0  0  0  0
  1  7  1  0  0  0  0
  2  4  1  0  0  0  0
  2  7  1  0  0  0  0
  3  5  1  0  0  0  0
  3  6  1  0  0  0  0
  4  5  1  0  0  0  0
  4  8  1  0  0  0  0
  5  9  1  0  0  0  0
  6 10  1  0  0  0  0
  1 11  1  0  0  0  0
  1 12  1  0  0  0  0
  2 13  1  0  0  0  0
  2 14  1  0  0  0  0
  3 15  1  0  0  0  0
  4 16  1  0  0  0  0
  5 17  1  0  0  0  0
  6 18  1  0  0  0  0
  6 19  1  0  0  0  0
  7 20  1  0  0  0  0
  8 21  1  0  0  0  0
  9 22  1  0  0  0  0
 10 23  1  0  0  0  0
M  END
> <id>
EN300-7512963

> <smiles>
OCC1CNCC(O)C1O

> <MDLNUMBER>
MFCD24494690

> <IUPAC Name>
5-(hydroxymethyl)piperidine-3,4-diol

> <CAS>
173008-84-9

> <URL>
https://www.enaminestore.com/catalog/EN300-7512963

> <ROCS_ShapeQuery>
hit0

> <ROCS_TanimotoCombo>
1.032 

> <ROCS_ShapeTanimoto>
0.446 

> <ROCS_ColorTanimoto>
0.586 

> <ROCS_RefTversky>
1.300 

> <ROCS_RefColorTversky>
0.901 

> <ROCS_RefTverskyCombo>
2.201 

> <ROCS_FitTversky>
0.405 

> <ROCS_FitColorTversky>
0.626 

> <ROCS_FitTverskyCombo>
1.030 

> <ROCS_ColorScore>
-5.542

> <ROCS_Overlap>
160.695

> <ROCS_Rank>
193                 

$$$$
untitled-dbase-20255_8
  -OEChem-06232314393D

 17 17  0     0  0  0  0  0  0999 V2000
   -5.1532    7.7785  -35.6581 C   0  0  0  0  0  0  0  0  0  0  0  0
   -4.7767    6.8164  -36.5886 C   0  0  0  0  0  0  0  0  0  0  0  0
   -6.0937    7.4249  -34.7040 C   0  0  0  0  0  0  0  0  0  0  0  0
   -5.3441    5.5480  -36.5373 C   0  0  0  0  0  0  0  0  0  0  0  0
   -6.2758    5.2942  -35.5436 C   0  0  0  0  0  0  0  0  0  0  0  0
   -4.9374    4.5192  -37.5368 C   0  0  0  0  0  0  0  0  0  0  0  0
   -6.6667    6.2032  -34.6225 N   0  0  0  0  0  0  0  0  0  0  0  0
   -6.8559    4.0025  -35.4870 N   0  0  0  0  0  0  0  0  0  0  0  0
   -5.5429    4.8122  -38.7901 O   0  0  0  0  0  0  0  0  0  0  0  0
   -4.7237    8.7735  -35.6788 H   0  0  0  0  0  0  0  0  0  0  0  0
   -4.0412    7.0645  -37.3488 H   0  0  0  0  0  0  0  0  0  0  0  0
   -6.4222    8.1390  -33.9559 H   0  0  0  0  0  0  0  0  0  0  0  0
   -3.8470    4.4985  -37.6705 H   0  0  0  0  0  0  0  0  0  0  0  0
   -5.2488    3.5138  -37.2212 H   0  0  0  0  0  0  0  0  0  0  0  0
   -6.6139    3.3352  -36.1866 H   0  0  0  0  0  0  0  0  0  0  0  0
   -7.5617    3.8217  -34.8068 H   0  0  0  0  0  0  0  0  0  0  0  0
   -5.2533    4.1220  -39.4080 H   0  0  0  0  0  0  0  0  0  0  0  0
  1  2  1  0  0  0  0
  1  3  2  0  0  0  0
  2  4  2  0  0  0  0
  3  7  1  0  0  0  0
  4  5  1  0  0  0  0
  4  6  1  0  0  0  0
  5  7  2  0  0  0  0
  5  8  1  0  0  0  0
  6  9  1  0  0  0  0
  1 10  1  0  0  0  0
  2 11  1  0  0  0  0
  3 12  1  0  0  0  0
  6 13  1  0  0  0  0
  6 14  1  0  0  0  0
  8 15  1  0  0  0  0
  8 16  1  0  0  0  0
  9 17  1  0  0  0  0
M  END
> <id>
EN300-195227

> <smiles>
NC=1N=CC=CC1CO

> <MDLNUMBER>
MFCD05663510

> <IUPAC Name>
(2-aminopyridin-3-yl)methanol

> <CAS>
23612-57-9

> <Purity>
95

> <URL>
https://www.enaminestore.com/catalog/EN300-195227

> <MP>
68-70

> <ROCS_ShapeQuery>
hit0

> <ROCS_TanimotoCombo>
1.031 

> <ROCS_ShapeTanimoto>
0.441 

> <ROCS_ColorTanimoto>
0.590 

> <ROCS_RefTversky>
1.241 

> <ROCS_RefColorTversky>
0.743 

> <ROCS_RefTverskyCombo>
1.984 

> <ROCS_FitTversky>
0.406 

> <ROCS_FitColorTversky>
0.742 

> <ROCS_FitTverskyCombo>
1.148 

> <ROCS_ColorScore>
-4.457

> <ROCS_Overlap>
151.926

> <ROCS_Rank>
194                 

$$$$
untitled-dbase-87767_5
  -OEChem-06232314393D

 19 19  0     0  0  0  0  0  0999 V2000
   -6.4487    4.5156  -36.5628 C   0  0  0  0  0  0  0  0  0  0  0  0
   -6.4336    5.8935  -36.5765 C   0  0  0  0  0  0  0  0  0  0  0  0
   -5.9073    4.0083  -37.7785 C   0  0  0  0  0  0  0  0  0  0  0  0
   -6.8613    6.8470  -35.6077 C   0  0  0  0  0  0  0  0  0  0  0  0
   -5.7628    2.5756  -38.1212 C   0  0  0  0  0  0  0  0  0  0  0  0
   -8.3623    8.6878  -35.2021 C   0  0  0  0  0  0  0  0  0  0  0  0
   -5.4981    4.8969  -38.6807 N   0  0  0  0  0  0  0  0  0  0  0  0
   -6.9112    3.7588  -35.5408 N   0  0  0  0  0  0  0  0  0  0  0  0
   -6.4150    6.9505  -34.4394 O   0  0  0  0  0  0  0  0  0  0  0  0
   -7.8493    7.6834  -36.0839 O   0  0  0  0  0  0  0  0  0  0  0  0
   -5.7646    6.4169  -38.0638 S   0  0  0  0  0  0  0  0  0  0  0  0
   -6.6628    2.2009  -38.6325 H   0  0  0  0  0  0  0  0  0  0  0  0
   -4.8992    2.3974  -38.7818 H   0  0  0  0  0  0  0  0  0  0  0  0
   -5.5990    1.9547  -37.2256 H   0  0  0  0  0  0  0  0  0  0  0  0
   -9.1324    9.2672  -35.7172 H   0  0  0  0  0  0  0  0  0  0  0  0
   -7.5487    9.3448  -34.8841 H   0  0  0  0  0  0  0  0  0  0  0  0
   -8.7994    8.2024  -34.3263 H   0  0  0  0  0  0  0  0  0  0  0  0
   -7.2493    4.1760  -34.6630 H   0  0  0  0  0  0  0  0  0  0  0  0
   -6.8586    2.7311  -35.5567 H   0  0  0  0  0  0  0  0  0  0  0  0
  1  2  2  0  0  0  0
  1  3  1  0  0  0  0
  1  8  1  0  0  0  0
  2  4  1  0  0  0  0
  2 11  1  0  0  0  0
  3  5  1  0  0  0  0
  3  7  2  0  0  0  0
  4  9  2  0  0  0  0
  4 10  1  0  0  0  0
  6 10  1  0  0  0  0
  7 11  1  0  0  0  0
  5 12  1  0  0  0  0
  5 13  1  0  0  0  0
  5 14  1  0  0  0  0
  6 15  1  0  0  0  0
  6 16  1  0  0  0  0
  6 17  1  0  0  0  0
  8 18  1  0  0  0  0
  8 19  1  0  0  0  0
M  END
> <id>
EN300-3968730

> <smiles>
COC(=O)C=1SN=C(C)C1N

> <MDLNUMBER>
MFCD33542596

> <IUPAC Name>
methyl 4-amino-3-methyl-1,2-thiazole-5-carboxylate

> <CAS>
65237-26-5

> <URL>
https://www.enaminestore.com/catalog/EN300-3968730

> <ROCS_ShapeQuery>
hit0

> <ROCS_TanimotoCombo>
1.031 

> <ROCS_ShapeTanimoto>
0.470 

> <ROCS_ColorTanimoto>
0.561 

> <ROCS_RefTversky>
1.454 

> <ROCS_RefColorTversky>
0.664 

> <ROCS_RefTverskyCombo>
2.118 

> <ROCS_FitTversky>
0.410 

> <ROCS_FitColorTversky>
0.783 

> <ROCS_FitTverskyCombo>
1.193 

> <ROCS_ColorScore>
-3.952

> <ROCS_Overlap>
183.688

> <ROCS_Rank>
195                 

$$$$
untitled-dbase-74803_574
  -OEChem-06232314393D

 27 27  0     1  0  0  0  0  0999 V2000
   -8.1393    6.3598  -35.5262 C   0  0  0  0  0  0  0  0  0  0  0  0
   -5.6134    6.8789  -35.5851 C   0  0  0  0  0  0  0  0  0  0  0  0
   -8.1211    5.4990  -36.7931 C   0  0  0  0  0  0  0  0  0  0  0  0
   -5.2725    6.4108  -36.9954 C   0  0  0  0  0  0  0  0  0  0  0  0
   -7.0396    7.4208  -35.3988 C   0  0  0  0  0  0  0  0  0  0  0  0
   -7.0060    4.4492  -36.8571 C   0  0  1  0  0  0  0  0  0  0  0  0
   -5.6358    4.9601  -37.3150 C   0  0  1  0  0  0  0  0  0  0  0  0
   -7.3311    8.6331  -36.2910 C   0  0  0  0  0  0  0  0  0  0  0  0
   -6.8533    3.8083  -35.5909 O   0  0  0  0  0  0  0  0  0  0  0  0
   -5.5387    4.8011  -38.7354 O   0  0  0  0  0  0  0  0  0  0  0  0
   -8.5300    9.7212  -35.4869 S   0  0  0  0  0  0  0  0  0  0  0  0
   -9.1380    6.8222  -35.4162 H   0  0  0  0  0  0  0  0  0  0  0  0
   -8.0514    5.6847  -34.6547 H   0  0  0  0  0  0  0  0  0  0  0  0
   -5.4481    6.0549  -34.8788 H   0  0  0  0  0  0  0  0  0  0  0  0
   -4.8981    7.6577  -35.2901 H   0  0  0  0  0  0  0  0  0  0  0  0
   -9.1088    5.0314  -36.9704 H   0  0  0  0  0  0  0  0  0  0  0  0
   -7.9908    6.1764  -37.6593 H   0  0  0  0  0  0  0  0  0  0  0  0
   -5.6940    7.0943  -37.7609 H   0  0  0  0  0  0  0  0  0  0  0  0
   -4.1763    6.5156  -37.1316 H   0  0  0  0  0  0  0  0  0  0  0  0
   -7.0792    7.7923  -34.3466 H   0  0  0  0  0  0  0  0  0  0  0  0
   -7.3276    3.6350  -37.5656 H   0  0  0  0  0  0  0  0  0  0  0  0
   -4.8394    4.2920  -36.8963 H   0  0  0  0  0  0  0  0  0  0  0  0
   -7.7317    8.2936  -37.2446 H   0  0  0  0  0  0  0  0  0  0  0  0
   -6.4079    9.1810  -36.4709 H   0  0  0  0  0  0  0  0  0  0  0  0
   -7.7049    3.3922  -35.3974 H   0  0  0  0  0  0  0  0  0  0  0  0
   -4.6218    5.0065  -38.9656 H   0  0  0  0  0  0  0  0  0  0  0  0
   -7.7934    9.9749  -34.3957 H   0  0  0  0  0  0  0  0  0  0  0  0
  1  3  1  0  0  0  0
  1  5  1  0  0  0  0
  2  4  1  0  0  0  0
  2  5  1  0  0  0  0
  3  6  1  0  0  0  0
  4  7  1  0  0  0  0
  5  8  1  0  0  0  0
  6  7  1  0  0  0  0
  6  9  1  0  0  0  0
  7 10  1  0  0  0  0
  8 11  1  0  0  0  0
  1 12  1  0  0  0  0
  1 13  1  0  0  0  0
  2 14  1  0  0  0  0
  2 15  1  0  0  0  0
  3 16  1  0  0  0  0
  3 17  1  0  0  0  0
  4 18  1  0  0  0  0
  4 19  1  0  0  0  0
  5 20  1  0  0  0  0
  6 21  1  0  0  0  0
  7 22  1  0  0  0  0
  8 23  1  0  0  0  0
  8 24  1  0  0  0  0
  9 25  1  0  0  0  0
 10 26  1  0  0  0  0
 11 27  1  0  0  0  0
M  END
> <id>
EN300-37453920

> <smiles>
OC1CCC(CS)CCC1O

> <IUPAC Name>
5-(sulfanylmethyl)cycloheptane-1,2-diol

> <URL>
https://www.enaminestore.com/catalog/EN300-37453920

> <ROCS_ShapeQuery>
hit0

> <ROCS_TanimotoCombo>
1.031 

> <ROCS_ShapeTanimoto>
0.463 

> <ROCS_ColorTanimoto>
0.567 

> <ROCS_RefTversky>
1.373 

> <ROCS_RefColorTversky>
0.669 

> <ROCS_RefTverskyCombo>
2.043 

> <ROCS_FitTversky>
0.411 

> <ROCS_FitColorTversky>
0.788 

> <ROCS_FitTverskyCombo>
1.200 

> <ROCS_ColorScore>
-3.983

> <ROCS_Overlap>
171.169

> <ROCS_Rank>
196                 

$$$$
untitled-dbase-30015_6
  -OEChem-06232314393D

 17 17  0     0  0  0  0  0  0999 V2000
   -7.7022    5.9508  -34.9679 C   0  0  0  0  0  0  0  0  0  0  0  0
   -7.6893    7.3360  -35.1310 C   0  0  0  0  0  0  0  0  0  0  0  0
   -5.9578    7.1232  -36.8024 C   0  0  0  0  0  0  0  0  0  0  0  0
   -5.9707    5.7379  -36.6393 C   0  0  0  0  0  0  0  0  0  0  0  0
   -6.8428    5.1517  -35.7221 C   0  0  0  0  0  0  0  0  0  0  0  0
   -6.8172    7.9222  -36.0483 C   0  0  0  0  0  0  0  0  0  0  0  0
   -5.0437    4.8983  -37.4551 C   0  0  0  0  0  0  0  0  0  0  0  0
   -6.8673    3.8005  -35.5489 O   0  0  0  0  0  0  0  0  0  0  0  0
   -5.5320    4.8171  -38.7878 O   0  0  0  0  0  0  0  0  0  0  0  0
   -6.8044    9.2525  -36.2051 F   0  0  0  0  0  0  0  0  0  0  0  0
   -8.3833    5.5007  -34.2508 H   0  0  0  0  0  0  0  0  0  0  0  0
   -8.3582    7.9577  -34.5435 H   0  0  0  0  0  0  0  0  0  0  0  0
   -5.2816    7.5903  -37.5132 H   0  0  0  0  0  0  0  0  0  0  0  0
   -4.0324    5.3254  -37.4760 H   0  0  0  0  0  0  0  0  0  0  0  0
   -4.9652    3.8832  -37.0441 H   0  0  0  0  0  0  0  0  0  0  0  0
   -7.5251    3.5607  -34.8776 H   0  0  0  0  0  0  0  0  0  0  0  0
   -6.4130    4.4123  -38.7387 H   0  0  0  0  0  0  0  0  0  0  0  0
  1  2  1  0  0  0  0
  1  5  2  0  0  0  0
  2  6  2  0  0  0  0
  3  4  2  0  0  0  0
  3  6  1  0  0  0  0
  4  5  1  0  0  0  0
  4  7  1  0  0  0  0
  5  8  1  0  0  0  0
  6 10  1  0  0  0  0
  7  9  1  0  0  0  0
  1 11  1  0  0  0  0
  2 12  1  0  0  0  0
  3 13  1  0  0  0  0
  7 14  1  0  0  0  0
  7 15  1  0  0  0  0
  8 16  1  0  0  0  0
  9 17  1  0  0  0  0
M  END
> <id>
EN300-698228

> <smiles>
OCC=1C=C(F)C=CC1O

> <MDLNUMBER>
MFCD03412237

> <IUPAC Name>
4-fluoro-2-(hydroxymethyl)phenol

> <CAS>
2357-33-7

> <URL>
https://www.enaminestore.com/catalog/EN300-698228

> <ROCS_ShapeQuery>
hit0

> <ROCS_TanimotoCombo>
1.030 

> <ROCS_ShapeTanimoto>
0.460 

> <ROCS_ColorTanimoto>
0.570 

> <ROCS_RefTversky>
1.372 

> <ROCS_RefColorTversky>
0.672 

> <ROCS_RefTverskyCombo>
2.044 

> <ROCS_FitTversky>
0.409 

> <ROCS_FitColorTversky>
0.790 

> <ROCS_FitTverskyCombo>
1.199 

> <ROCS_ColorScore>
-3.998

> <ROCS_Overlap>
171.264

> <ROCS_Rank>
197                 

$$$$
untitled-dbase-44914_11
  -OEChem-06232314393D

 19 19  0     1  0  0  0  0  0999 V2000
   -5.2783    6.0857  -37.8762 C   0  0  0  0  0  0  0  0  0  0  0  0
   -6.1256    3.9118  -37.8269 C   0  0  0  0  0  0  0  0  0  0  0  0
   -6.0420    5.8987  -36.5752 C   0  0  1  0  0  0  0  0  0  0  0  0
   -5.9402    4.3920  -36.3967 C   0  0  1  0  0  0  0  0  0  0  0  0
   -5.4894    6.7156  -35.4206 C   0  0  0  0  0  0  0  0  0  0  0  0
   -6.9093    3.8420  -35.4649 N   0  0  0  0  0  0  0  0  0  0  0  0
   -5.5418    4.9182  -38.6719 O   0  0  0  0  0  0  0  0  0  0  0  0
   -6.4974    6.8517  -34.4324 O   0  0  0  0  0  0  0  0  0  0  0  0
   -5.5967    6.9774  -38.4239 H   0  0  0  0  0  0  0  0  0  0  0  0
   -4.1959    6.1430  -37.7168 H   0  0  0  0  0  0  0  0  0  0  0  0
   -5.6401    2.9492  -38.0143 H   0  0  0  0  0  0  0  0  0  0  0  0
   -7.1822    3.8264  -38.1058 H   0  0  0  0  0  0  0  0  0  0  0  0
   -7.0908    6.1810  -36.7407 H   0  0  0  0  0  0  0  0  0  0  0  0
   -4.9303    4.1291  -36.0563 H   0  0  0  0  0  0  0  0  0  0  0  0
   -5.1939    7.7089  -35.7663 H   0  0  0  0  0  0  0  0  0  0  0  0
   -4.6250    6.2134  -34.9801 H   0  0  0  0  0  0  0  0  0  0  0  0
   -6.8020    2.8531  -35.4405 H   0  0  0  0  0  0  0  0  0  0  0  0
   -6.7397    4.2297  -34.5643 H   0  0  0  0  0  0  0  0  0  0  0  0
   -6.7334    5.9545  -34.1431 H   0  0  0  0  0  0  0  0  0  0  0  0
  1  3  1  0  0  0  0
  1  7  1  0  0  0  0
  2  4  1  0  0  0  0
  2  7  1  0  0  0  0
  3  4  1  0  0  0  0
  3  5  1  0  0  0  0
  4  6  1  0  0  0  0
  5  8  1  0  0  0  0
  1  9  1  0  0  0  0
  1 10  1  0  0  0  0
  2 11  1  0  0  0  0
  2 12  1  0  0  0  0
  3 13  1  0  0  0  0
  4 14  1  0  0  0  0
  5 15  1  0  0  0  0
  5 16  1  0  0  0  0
  6 17  1  0  0  0  0
  6 18  1  0  0  0  0
  8 19  1  0  0  0  0
M  END
> <id>
EN300-1272375

> <smiles>
NC1COCC1CO

> <MDLNUMBER>
MFCD24127075

> <IUPAC Name>
(4-aminooxolan-3-yl)methanol

> <CAS>
1505822-24-1

> <URL>
https://www.enaminestore.com/catalog/EN300-1272375

> <ROCS_ShapeQuery>
hit0

> <ROCS_TanimotoCombo>
1.029 

> <ROCS_ShapeTanimoto>
0.541 

> <ROCS_ColorTanimoto>
0.488 

> <ROCS_RefTversky>
1.278 

> <ROCS_RefColorTversky>
0.656 

> <ROCS_RefTverskyCombo>
1.934 

> <ROCS_FitTversky>
0.484 

> <ROCS_FitColorTversky>
0.656 

> <ROCS_FitTverskyCombo>
1.140 

> <ROCS_ColorScore>
-3.937

> <ROCS_Overlap>
152.495

> <ROCS_Rank>
198                 

$$$$
untitled-dbase-163090_11
  -OEChem-06232314393D

 19 19  0     1  0  0  0  0  0999 V2000
   -5.2783    6.0857  -37.8762 C   0  0  0  0  0  0  0  0  0  0  0  0
   -6.1256    3.9118  -37.8269 C   0  0  0  0  0  0  0  0  0  0  0  0
   -6.0420    5.8987  -36.5752 C   0  0  1  0  0  0  0  0  0  0  0  0
   -5.9402    4.3920  -36.3967 C   0  0  1  0  0  0  0  0  0  0  0  0
   -5.4894    6.7156  -35.4206 C   0  0  0  0  0  0  0  0  0  0  0  0
   -6.9093    3.8420  -35.4649 N   0  0  0  0  0  0  0  0  0  0  0  0
   -5.5418    4.9182  -38.6719 O   0  0  0  0  0  0  0  0  0  0  0  0
   -6.4974    6.8517  -34.4324 O   0  0  0  0  0  0  0  0  0  0  0  0
   -5.5967    6.9774  -38.4239 H   0  0  0  0  0  0  0  0  0  0  0  0
   -4.1959    6.1430  -37.7168 H   0  0  0  0  0  0  0  0  0  0  0  0
   -5.6401    2.9492  -38.0143 H   0  0  0  0  0  0  0  0  0  0  0  0
   -7.1822    3.8264  -38.1058 H   0  0  0  0  0  0  0  0  0  0  0  0
   -7.0908    6.1810  -36.7407 H   0  0  0  0  0  0  0  0  0  0  0  0
   -4.9303    4.1291  -36.0563 H   0  0  0  0  0  0  0  0  0  0  0  0
   -5.1939    7.7089  -35.7663 H   0  0  0  0  0  0  0  0  0  0  0  0
   -4.6250    6.2134  -34.9801 H   0  0  0  0  0  0  0  0  0  0  0  0
   -6.8020    2.8531  -35.4405 H   0  0  0  0  0  0  0  0  0  0  0  0
   -6.7397    4.2297  -34.5643 H   0  0  0  0  0  0  0  0  0  0  0  0
   -6.7334    5.9545  -34.1431 H   0  0  0  0  0  0  0  0  0  0  0  0
  1  3  1  0  0  0  0
  1  7  1  0  0  0  0
  2  4  1  0  0  0  0
  2  7  1  0  0  0  0
  3  4  1  0  0  0  0
  3  5  1  0  0  0  0
  4  6  1  0  0  0  0
  5  8  1  0  0  0  0
  1  9  1  0  0  0  0
  1 10  1  0  0  0  0
  2 11  1  0  0  0  0
  2 12  1  0  0  0  0
  3 13  1  0  0  0  0
  4 14  1  0  0  0  0
  5 15  1  0  0  0  0
  5 16  1  0  0  0  0
  6 17  1  0  0  0  0
  6 18  1  0  0  0  0
  8 19  1  0  0  0  0
M  END
> <id>
EN300-1272374

> <smiles>
Cl.NC1COCC1CO

> <IUPAC Name>
(4-aminooxolan-3-yl)methanol hydrochloride

> <CAS>
2155852-66-5

> <URL>
https://www.enaminestore.com/catalog/EN300-1272374

> <Saltdate>
Cl

> <ROCS_ShapeQuery>
hit0

> <ROCS_TanimotoCombo>
1.029 

> <ROCS_ShapeTanimoto>
0.541 

> <ROCS_ColorTanimoto>
0.488 

> <ROCS_RefTversky>
1.278 

> <ROCS_RefColorTversky>
0.656 

> <ROCS_RefTverskyCombo>
1.934 

> <ROCS_FitTversky>
0.484 

> <ROCS_FitColorTversky>
0.656 

> <ROCS_FitTverskyCombo>
1.140 

> <ROCS_ColorScore>
-3.937

> <ROCS_Overlap>
152.495

> <ROCS_Rank>
199                 

$$$$
untitled-dbase-8266_38
  -OEChem-06232314393D

 21 21  0     0  0  0  0  0  0999 V2000
   -5.8447    5.2354  -37.8375 C   0  0  0  0  0  0  0  0  0  0  0  0
   -6.7972    7.1761  -36.6358 C   0  0  0  0  0  0  0  0  0  0  0  0
   -5.1555    5.6299  -35.5084 C   0  0  0  0  0  0  0  0  0  0  0  0
   -6.3937    8.0341  -35.4362 C   0  0  0  0  0  0  0  0  0  0  0  0
   -5.5104    6.2452  -34.1532 C   0  0  0  0  0  0  0  0  0  0  0  0
   -6.3158    5.7093  -36.5168 C   0  0  0  0  0  0  0  0  0  0  0  0
   -7.4749    4.7996  -36.0676 C   0  0  0  0  0  0  0  0  0  0  0  0
   -5.4754    4.8640  -38.8728 N   0  0  0  0  0  0  0  0  0  0  0  0
   -6.4892    7.2813  -34.2345 O   0  0  0  0  0  0  0  0  0  0  0  0
   -6.9206    3.6089  -35.5505 O   0  0  0  0  0  0  0  0  0  0  0  0
   -7.8856    7.2218  -36.7781 H   0  0  0  0  0  0  0  0  0  0  0  0
   -6.3483    7.6241  -37.5354 H   0  0  0  0  0  0  0  0  0  0  0  0
   -4.2931    6.1828  -35.9099 H   0  0  0  0  0  0  0  0  0  0  0  0
   -4.8209    4.5932  -35.3685 H   0  0  0  0  0  0  0  0  0  0  0  0
   -5.3537    8.3519  -35.5494 H   0  0  0  0  0  0  0  0  0  0  0  0
   -7.0050    8.9377  -35.3578 H   0  0  0  0  0  0  0  0  0  0  0  0
   -5.8542    5.4759  -33.4347 H   0  0  0  0  0  0  0  0  0  0  0  0
   -4.6019    6.6867  -33.7038 H   0  0  0  0  0  0  0  0  0  0  0  0
   -8.1044    4.5732  -36.9223 H   0  0  0  0  0  0  0  0  0  0  0  0
   -8.0492    5.3047  -35.2975 H   0  0  0  0  0  0  0  0  0  0  0  0
   -6.4047    3.1951  -36.2651 H   0  0  0  0  0  0  0  0  0  0  0  0
  1  6  1  0  0  0  0
  1  8  3  0  0  0  0
  2  4  1  0  0  0  0
  2  6  1  0  0  0  0
  3  5  1  0  0  0  0
  3  6  1  0  0  0  0
  4  9  1  0  0  0  0
  5  9  1  0  0  0  0
  6  7  1  0  0  0  0
  7 10  1  0  0  0  0
  2 11  1  0  0  0  0
  2 12  1  0  0  0  0
  3 13  1  0  0  0  0
  3 14  1  0  0  0  0
  4 15  1  0  0  0  0
  4 16  1  0  0  0  0
  5 17  1  0  0  0  0
  5 18  1  0  0  0  0
  7 19  1  0  0  0  0
  7 20  1  0  0  0  0
 10 21  1  0  0  0  0
M  END
> <id>
EN300-129353

> <smiles>
OCC1(CCOCC1)C#N

> <MDLNUMBER>
MFCD19103514

> <IUPAC Name>
4-(hydroxymethyl)oxane-4-carbonitrile

> <CAS>
1010836-56-2

> <Purity>
95

> <URL>
https://www.enaminestore.com/catalog/EN300-129353

> <ROCS_ShapeQuery>
hit0

> <ROCS_TanimotoCombo>
1.029 

> <ROCS_ShapeTanimoto>
0.506 

> <ROCS_ColorTanimoto>
0.523 

> <ROCS_RefTversky>
1.420 

> <ROCS_RefColorTversky>
0.635 

> <ROCS_RefTverskyCombo>
2.055 

> <ROCS_FitTversky>
0.440 

> <ROCS_FitColorTversky>
0.748 

> <ROCS_FitTverskyCombo>
1.188 

> <ROCS_ColorScore>
-3.777

> <ROCS_Overlap>
175.828

> <ROCS_Rank>
200                 

$$$$
untitled-dbase-28558_6
  -OEChem-06232314393D

 17 17  0     0  0  0  0  0  0999 V2000
   -5.5288    7.0298  -36.6683 C   0  0  0  0  0  0  0  0  0  0  0  0
   -6.2302    7.8980  -35.8317 C   0  0  0  0  0  0  0  0  0  0  0  0
   -7.3540    6.0143  -34.8189 C   0  0  0  0  0  0  0  0  0  0  0  0
   -5.7400    5.6538  -36.5802 C   0  0  0  0  0  0  0  0  0  0  0  0
   -6.6526    5.1460  -35.6555 C   0  0  0  0  0  0  0  0  0  0  0  0
   -7.1428    7.3903  -34.9071 C   0  0  0  0  0  0  0  0  0  0  0  0
   -4.9812    4.7393  -37.4840 C   0  0  0  0  0  0  0  0  0  0  0  0
   -6.8701    3.8047  -35.5562 O   0  0  0  0  0  0  0  0  0  0  0  0
   -5.5289    4.8110  -38.7941 O   0  0  0  0  0  0  0  0  0  0  0  0
   -8.0061    8.4622  -33.8744 Cl  0  0  0  0  0  0  0  0  0  0  0  0
   -4.8208    7.4352  -37.3862 H   0  0  0  0  0  0  0  0  0  0  0  0
   -6.0571    8.9680  -35.9121 H   0  0  0  0  0  0  0  0  0  0  0  0
   -8.0641    5.6113  -34.1005 H   0  0  0  0  0  0  0  0  0  0  0  0
   -3.9193    5.0149  -37.5309 H   0  0  0  0  0  0  0  0  0  0  0  0
   -5.0375    3.7004  -37.1331 H   0  0  0  0  0  0  0  0  0  0  0  0
   -7.5297    3.6223  -34.8688 H   0  0  0  0  0  0  0  0  0  0  0  0
   -6.4574    4.5365  -38.7244 H   0  0  0  0  0  0  0  0  0  0  0  0
  1  2  1  0  0  0  0
  1  4  2  0  0  0  0
  2  6  2  0  0  0  0
  3  5  2  0  0  0  0
  3  6  1  0  0  0  0
  4  5  1  0  0  0  0
  4  7  1  0  0  0  0
  5  8  1  0  0  0  0
  6 10  1  0  0  0  0
  7  9  1  0  0  0  0
  1 11  1  0  0  0  0
  2 12  1  0  0  0  0
  3 13  1  0  0  0  0
  7 14  1  0  0  0  0
  7 15  1  0  0  0  0
  8 16  1  0  0  0  0
  9 17  1  0  0  0  0
M  END
> <id>
EN300-189364

> <smiles>
OCC=1C=CC(Cl)=CC1O

> <MDLNUMBER>
MFCD11042786

> <IUPAC Name>
5-chloro-2-(hydroxymethyl)phenol

> <CAS>
64917-81-3

> <URL>
https://www.enaminestore.com/catalog/EN300-189364

> <ROCS_ShapeQuery>
hit0

> <ROCS_TanimotoCombo>
1.028 

> <ROCS_ShapeTanimoto>
0.458 

> <ROCS_ColorTanimoto>
0.570 

> <ROCS_RefTversky>
1.346 

> <ROCS_RefColorTversky>
0.672 

> <ROCS_RefTverskyCombo>
2.018 

> <ROCS_FitTversky>
0.410 

> <ROCS_FitColorTversky>
0.790 

> <ROCS_FitTverskyCombo>
1.200 

> <ROCS_ColorScore>
-3.999

> <ROCS_Overlap>
167.170

> <ROCS_Rank>
201                 

$$$$
untitled-dbase-121453_4
  -OEChem-06232314393D

 22 22  0     0  0  0  0  0  0999 V2000
   -6.1991    6.7115  -37.8900 C   0  0  0  0  0  0  0  0  0  0  0  0
   -5.6474    5.9832  -38.9317 C   0  0  0  0  0  0  0  0  0  0  0  0
   -5.8946    4.0017  -37.7956 C   0  0  0  0  0  0  0  0  0  0  0  0
   -6.4576    4.6372  -36.7006 C   0  0  0  0  0  0  0  0  0  0  0  0
   -6.6094    6.0182  -36.7568 C   0  0  0  0  0  0  0  0  0  0  0  0
   -8.9869    6.3214  -35.1249 C   0  0  0  0  0  0  0  0  0  0  0  0
   -7.5830    8.6211  -35.9291 C   0  0  0  0  0  0  0  0  0  0  0  0
   -5.4840    4.6414  -38.9136 N   0  0  0  0  0  0  0  0  0  0  0  0
   -6.8589    3.8981  -35.5751 N   0  0  0  0  0  0  0  0  0  0  0  0
   -6.5424    6.8995  -34.1202 O   0  0  0  0  0  0  0  0  0  0  0  0
   -7.3176    6.9214  -35.4104 P   0  0  0  0  0  0  0  0  0  0  0  0
   -6.3056    7.7882  -37.9612 H   0  0  0  0  0  0  0  0  0  0  0  0
   -5.3116    6.4769  -39.8376 H   0  0  0  0  0  0  0  0  0  0  0  0
   -5.7503    2.9255  -37.8111 H   0  0  0  0  0  0  0  0  0  0  0  0
   -9.4448    6.8664  -34.2957 H   0  0  0  0  0  0  0  0  0  0  0  0
   -9.5955    6.4653  -36.0211 H   0  0  0  0  0  0  0  0  0  0  0  0
   -8.9659    5.2568  -34.8793 H   0  0  0  0  0  0  0  0  0  0  0  0
   -8.0208    9.1990  -35.1114 H   0  0  0  0  0  0  0  0  0  0  0  0
   -6.6327    9.0785  -36.2156 H   0  0  0  0  0  0  0  0  0  0  0  0
   -8.2615    8.6503  -36.7853 H   0  0  0  0  0  0  0  0  0  0  0  0
   -7.2208    4.3785  -34.7730 H   0  0  0  0  0  0  0  0  0  0  0  0
   -6.6919    2.9099  -35.5491 H   0  0  0  0  0  0  0  0  0  0  0  0
  1  2  1  0  0  0  0
  1  5  2  0  0  0  0
  2  8  2  0  0  0  0
  3  4  2  0  0  0  0
  3  8  1  0  0  0  0
  4  5  1  0  0  0  0
  4  9  1  0  0  0  0
  5 11  1  0  0  0  0
  6 11  1  0  0  0  0
  7 11  1  0  0  0  0
 10 11  2  0  0  0  0
  1 12  1  0  0  0  0
  2 13  1  0  0  0  0
  3 14  1  0  0  0  0
  6 15  1  0  0  0  0
  6 16  1  0  0  0  0
  6 17  1  0  0  0  0
  7 18  1  0  0  0  0
  7 19  1  0  0  0  0
  7 20  1  0  0  0  0
  9 21  1  0  0  0  0
  9 22  1  0  0  0  0
M  END
> <id>
EN300-6496221

> <smiles>
CP(=O)(C)C=1C=CN=CC1N

> <MDLNUMBER>
MFCD33437717

> <IUPAC Name>
4-(dimethylphosphoryl)pyridin-3-amine

> <CAS>
1577255-10-7

> <URL>
https://www.enaminestore.com/catalog/EN300-6496221

> <ROCS_ShapeQuery>
hit0

> <ROCS_TanimotoCombo>
1.028 

> <ROCS_ShapeTanimoto>
0.481 

> <ROCS_ColorTanimoto>
0.547 

> <ROCS_RefTversky>
1.437 

> <ROCS_RefColorTversky>
0.654 

> <ROCS_RefTverskyCombo>
2.090 

> <ROCS_FitTversky>
0.420 

> <ROCS_FitColorTversky>
0.770 

> <ROCS_FitTverskyCombo>
1.190 

> <ROCS_ColorScore>
-3.891

> <ROCS_Overlap>
180.049

> <ROCS_Rank>
202                 

$$$$
untitled-dbase-90120_5
  -OEChem-06232314393D

 23 23  0     0  0  0  0  0  0999 V2000
   -5.8415    3.9090  -37.8014 C   0  0  0  0  0  0  0  0  0  0  0  0
   -6.4472    4.4449  -36.6491 C   0  0  0  0  0  0  0  0  0  0  0  0
   -6.4875    5.7982  -36.8803 C   0  0  0  0  0  0  0  0  0  0  0  0
   -5.7455    7.2456  -38.7845 C   0  0  0  0  0  0  0  0  0  0  0  0
   -8.8980    6.4394  -35.4018 C   0  0  0  0  0  0  0  0  0  0  0  0
   -7.3045    8.5363  -36.3867 C   0  0  0  0  0  0  0  0  0  0  0  0
   -5.5202    4.8454  -38.6980 N   0  0  0  0  0  0  0  0  0  0  0  0
   -5.9257    5.9834  -38.1092 N   0  0  0  0  0  0  0  0  0  0  0  0
   -6.8853    3.7710  -35.5673 N   0  0  0  0  0  0  0  0  0  0  0  0
   -6.4588    6.9627  -34.3552 O   0  0  0  0  0  0  0  0  0  0  0  0
   -7.1783    6.8879  -35.6782 P   0  0  0  0  0  0  0  0  0  0  0  0
   -5.6191    2.8758  -38.0285 H   0  0  0  0  0  0  0  0  0  0  0  0
   -4.7684    7.6443  -38.4993 H   0  0  0  0  0  0  0  0  0  0  0  0
   -5.7942    7.0903  -39.8659 H   0  0  0  0  0  0  0  0  0  0  0  0
   -6.5420    7.9325  -38.4852 H   0  0  0  0  0  0  0  0  0  0  0  0
   -9.3445    7.1046  -34.6585 H   0  0  0  0  0  0  0  0  0  0  0  0
   -9.4618    6.5227  -36.3343 H   0  0  0  0  0  0  0  0  0  0  0  0
   -8.9637    5.4103  -35.0400 H   0  0  0  0  0  0  0  0  0  0  0  0
   -7.7313    9.2274  -35.6555 H   0  0  0  0  0  0  0  0  0  0  0  0
   -6.3144    8.8964  -36.6772 H   0  0  0  0  0  0  0  0  0  0  0  0
   -7.9466    8.5163  -37.2708 H   0  0  0  0  0  0  0  0  0  0  0  0
   -7.2770    4.2502  -34.7416 H   0  0  0  0  0  0  0  0  0  0  0  0
   -6.7657    2.7507  -35.4690 H   0  0  0  0  0  0  0  0  0  0  0  0
  1  2  1  0  0  0  0
  1  7  2  0  0  0  0
  2  3  2  0  0  0  0
  2  9  1  0  0  0  0
  3  8  1  0  0  0  0
  3 11  1  0  0  0  0
  4  8  1  0  0  0  0
  5 11  1  0  0  0  0
  6 11  1  0  0  0  0
  7  8  1  0  0  0  0
 10 11  2  0  0  0  0
  1 12  1  0  0  0  0
  4 13  1  0  0  0  0
  4 14  1  0  0  0  0
  4 15  1  0  0  0  0
  5 16  1  0  0  0  0
  5 17  1  0  0  0  0
  5 18  1  0  0  0  0
  6 19  1  0  0  0  0
  6 20  1  0  0  0  0
  6 21  1  0  0  0  0
  9 22  1  0  0  0  0
  9 23  1  0  0  0  0
M  END
> <id>
EN300-1709978

> <smiles>
CN1N=CC(N)=C1P(=O)(C)C

> <IUPAC Name>
5-(dimethylphosphoryl)-1-methyl-1H-pyrazol-4-amine

> <CAS>
2287321-00-8

> <URL>
https://www.enaminestore.com/catalog/EN300-1709978

> <ROCS_ShapeQuery>
hit0

> <ROCS_TanimotoCombo>
1.028 

> <ROCS_ShapeTanimoto>
0.461 

> <ROCS_ColorTanimoto>
0.567 

> <ROCS_RefTversky>
1.407 

> <ROCS_RefColorTversky>
0.669 

> <ROCS_RefTverskyCombo>
2.076 

> <ROCS_FitTversky>
0.407 

> <ROCS_FitColorTversky>
0.788 

> <ROCS_FitTverskyCombo>
1.195 

> <ROCS_ColorScore>
-3.979

> <ROCS_Overlap>
176.792

> <ROCS_Rank>
203                 

$$$$
untitled-dbase-28960_6
  -OEChem-06232314393D

 20 20  0     0  0  0  0  0  0999 V2000
   -6.0738    7.8693  -35.7767 C   0  0  0  0  0  0  0  0  0  0  0  0
   -5.4167    6.9873  -36.6345 C   0  0  0  0  0  0  0  0  0  0  0  0
   -7.2613    6.0160  -34.7805 C   0  0  0  0  0  0  0  0  0  0  0  0
   -6.9961    7.3837  -34.8496 C   0  0  0  0  0  0  0  0  0  0  0  0
   -5.6819    5.6196  -36.5653 C   0  0  0  0  0  0  0  0  0  0  0  0
   -6.6042    5.1340  -35.6384 C   0  0  0  0  0  0  0  0  0  0  0  0
   -7.6979    8.3272  -33.9322 C   0  0  0  0  0  0  0  0  0  0  0  0
   -4.9704    4.6906  -37.4923 C   0  0  0  0  0  0  0  0  0  0  0  0
   -6.8740    3.8010  -35.5568 O   0  0  0  0  0  0  0  0  0  0  0  0
   -5.5294    4.8051  -38.7946 O   0  0  0  0  0  0  0  0  0  0  0  0
   -5.8613    8.9335  -35.8363 H   0  0  0  0  0  0  0  0  0  0  0  0
   -4.6990    7.3754  -37.3523 H   0  0  0  0  0  0  0  0  0  0  0  0
   -7.9794    5.6353  -34.0583 H   0  0  0  0  0  0  0  0  0  0  0  0
   -8.6308    8.6803  -34.3882 H   0  0  0  0  0  0  0  0  0  0  0  0
   -7.9385    7.8470  -32.9748 H   0  0  0  0  0  0  0  0  0  0  0  0
   -7.0714    9.1988  -33.7017 H   0  0  0  0  0  0  0  0  0  0  0  0
   -3.8989    4.9244  -37.5474 H   0  0  0  0  0  0  0  0  0  0  0  0
   -5.0641    3.6491  -37.1571 H   0  0  0  0  0  0  0  0  0  0  0  0
   -7.5329    3.6343  -34.8646 H   0  0  0  0  0  0  0  0  0  0  0  0
   -6.4672    4.5666  -38.7182 H   0  0  0  0  0  0  0  0  0  0  0  0
  1  2  1  0  0  0  0
  1  4  2  0  0  0  0
  2  5  2  0  0  0  0
  3  4  1  0  0  0  0
  3  6  2  0  0  0  0
  4  7  1  0  0  0  0
  5  6  1  0  0  0  0
  5  8  1  0  0  0  0
  6  9  1  0  0  0  0
  8 10  1  0  0  0  0
  1 11  1  0  0  0  0
  2 12  1  0  0  0  0
  3 13  1  0  0  0  0
  7 14  1  0  0  0  0
  7 15  1  0  0  0  0
  7 16  1  0  0  0  0
  8 17  1  0  0  0  0
  8 18  1  0  0  0  0
  9 19  1  0  0  0  0
 10 20  1  0  0  0  0
M  END
> <id>
EN300-191767

> <smiles>
CC=1C=CC(CO)=C(O)C1

> <MDLNUMBER>
MFCD06202811

> <IUPAC Name>
2-(hydroxymethyl)-5-methylphenol

> <CAS>
7405-12-1

> <URL>
https://www.enaminestore.com/catalog/EN300-191767

> <ROCS_ShapeQuery>
hit0

> <ROCS_TanimotoCombo>
1.028 

> <ROCS_ShapeTanimoto>
0.458 

> <ROCS_ColorTanimoto>
0.570 

> <ROCS_RefTversky>
1.358 

> <ROCS_RefColorTversky>
0.672 

> <ROCS_RefTverskyCombo>
2.030 

> <ROCS_FitTversky>
0.408 

> <ROCS_FitColorTversky>
0.790 

> <ROCS_FitTverskyCombo>
1.199 

> <ROCS_ColorScore>
-3.999

> <ROCS_Overlap>
169.086

> <ROCS_Rank>
204                 

$$$$
untitled-dbase-179092_13
  -OEChem-06232314393D

 16 16  0     0  0  0  0  0  0999 V2000
   -5.2645    5.4928  -36.9300 C   0  0  0  0  0  0  0  0  0  0  0  0
   -7.0963    5.1032  -37.8470 C   0  0  0  0  0  0  0  0  0  0  0  0
   -6.6774    5.2250  -36.3649 C   0  0  0  0  0  0  0  0  0  0  0  0
   -7.3114    6.3819  -35.6106 C   0  0  0  0  0  0  0  0  0  0  0  0
   -5.6814    4.8682  -38.2022 N   0  0  0  0  0  0  0  0  0  0  0  0
   -6.8160    4.0126  -35.5913 O   0  0  0  0  0  0  0  0  0  0  0  0
   -6.4901    6.7047  -34.5024 O   0  0  0  0  0  0  0  0  0  0  0  0
   -4.9680    6.5411  -37.0166 H   0  0  0  0  0  0  0  0  0  0  0  0
   -4.4623    4.9465  -36.4233 H   0  0  0  0  0  0  0  0  0  0  0  0
   -7.7443    4.2485  -38.0663 H   0  0  0  0  0  0  0  0  0  0  0  0
   -7.5344    5.9956  -38.3004 H   0  0  0  0  0  0  0  0  0  0  0  0
   -8.3017    6.0975  -35.2524 H   0  0  0  0  0  0  0  0  0  0  0  0
   -7.3941    7.2533  -36.2617 H   0  0  0  0  0  0  0  0  0  0  0  0
   -5.3842    5.3972  -39.0210 H   0  0  0  0  0  0  0  0  0  0  0  0
   -6.5823    3.2944  -36.1917 H   0  0  0  0  0  0  0  0  0  0  0  0
   -6.9163    7.4450  -34.0382 H   0  0  0  0  0  0  0  0  0  0  0  0
  1  3  1  0  0  0  0
  1  5  1  0  0  0  0
  2  3  1  0  0  0  0
  2  5  1  0  0  0  0
  3  4  1  0  0  0  0
  3  6  1  0  0  0  0
  4  7  1  0  0  0  0
  1  8  1  0  0  0  0
  1  9  1  0  0  0  0
  2 10  1  0  0  0  0
  2 11  1  0  0  0  0
  4 12  1  0  0  0  0
  4 13  1  0  0  0  0
  5 14  1  0  0  0  0
  6 15  1  0  0  0  0
  7 16  1  0  0  0  0
M  END
> <id>
EN300-226777

> <smiles>
OCC1(O)CNC1

> <MDLNUMBER>
MFCD26096975

> <IUPAC Name>
3-(hydroxymethyl)azetidin-3-ol

> <CAS>
934672-00-1

> <URL>
https://www.enaminestore.com/catalog/EN300-226777

> <ROCS_ShapeQuery>
hit0

> <ROCS_TanimotoCombo>
1.027 

> <ROCS_ShapeTanimoto>
0.509 

> <ROCS_ColorTanimoto>
0.518 

> <ROCS_RefTversky>
1.132 

> <ROCS_RefColorTversky>
0.734 

> <ROCS_RefTverskyCombo>
1.866 

> <ROCS_FitTversky>
0.480 

> <ROCS_FitColorTversky>
0.639 

> <ROCS_FitTverskyCombo>
1.119 

> <ROCS_ColorScore>
-4.439

> <ROCS_Overlap>
132.840

> <ROCS_Rank>
205                 

$$$$
untitled-dbase-123366_13
  -OEChem-06232314393D

 16 16  0     0  0  0  0  0  0999 V2000
   -5.2645    5.4928  -36.9300 C   0  0  0  0  0  0  0  0  0  0  0  0
   -7.0963    5.1032  -37.8470 C   0  0  0  0  0  0  0  0  0  0  0  0
   -6.6774    5.2250  -36.3649 C   0  0  0  0  0  0  0  0  0  0  0  0
   -7.3114    6.3819  -35.6106 C   0  0  0  0  0  0  0  0  0  0  0  0
   -5.6814    4.8682  -38.2022 N   0  0  0  0  0  0  0  0  0  0  0  0
   -6.8160    4.0126  -35.5913 O   0  0  0  0  0  0  0  0  0  0  0  0
   -6.4901    6.7047  -34.5024 O   0  0  0  0  0  0  0  0  0  0  0  0
   -4.9680    6.5411  -37.0166 H   0  0  0  0  0  0  0  0  0  0  0  0
   -4.4623    4.9465  -36.4233 H   0  0  0  0  0  0  0  0  0  0  0  0
   -7.7443    4.2485  -38.0663 H   0  0  0  0  0  0  0  0  0  0  0  0
   -7.5344    5.9956  -38.3004 H   0  0  0  0  0  0  0  0  0  0  0  0
   -8.3017    6.0975  -35.2524 H   0  0  0  0  0  0  0  0  0  0  0  0
   -7.3941    7.2533  -36.2617 H   0  0  0  0  0  0  0  0  0  0  0  0
   -5.3842    5.3972  -39.0210 H   0  0  0  0  0  0  0  0  0  0  0  0
   -6.5823    3.2944  -36.1917 H   0  0  0  0  0  0  0  0  0  0  0  0
   -6.9163    7.4450  -34.0382 H   0  0  0  0  0  0  0  0  0  0  0  0
  1  3  1  0  0  0  0
  1  5  1  0  0  0  0
  2  3  1  0  0  0  0
  2  5  1  0  0  0  0
  3  4  1  0  0  0  0
  3  6  1  0  0  0  0
  4  7  1  0  0  0  0
  1  8  1  0  0  0  0
  1  9  1  0  0  0  0
  2 10  1  0  0  0  0
  2 11  1  0  0  0  0
  4 12  1  0  0  0  0
  4 13  1  0  0  0  0
  5 14  1  0  0  0  0
  6 15  1  0  0  0  0
  7 16  1  0  0  0  0
M  END
> <id>
EN300-226776

> <smiles>
Cl.OCC1(O)CNC1

> <MDLNUMBER>
MFCD19218882

> <IUPAC Name>
3-(hydroxymethyl)azetidin-3-ol hydrochloride

> <CAS>
934665-98-2

> <Purity>
95

> <URL>
https://www.enaminestore.com/catalog/EN300-226776

> <Saltdate>
Cl

> <ROCS_ShapeQuery>
hit0

> <ROCS_TanimotoCombo>
1.027 

> <ROCS_ShapeTanimoto>
0.509 

> <ROCS_ColorTanimoto>
0.518 

> <ROCS_RefTversky>
1.132 

> <ROCS_RefColorTversky>
0.734 

> <ROCS_RefTverskyCombo>
1.866 

> <ROCS_FitTversky>
0.480 

> <ROCS_FitColorTversky>
0.639 

> <ROCS_FitTverskyCombo>
1.119 

> <ROCS_ColorScore>
-4.439

> <ROCS_Overlap>
132.840

> <ROCS_Rank>
206                 

$$$$
untitled-dbase-28615_6
  -OEChem-06232314393D

 17 17  0     0  0  0  0  0  0999 V2000
   -5.3984    6.9861  -36.6226 C   0  0  0  0  0  0  0  0  0  0  0  0
   -6.0474    7.8693  -35.7599 C   0  0  0  0  0  0  0  0  0  0  0  0
   -7.2462    6.0205  -34.7691 C   0  0  0  0  0  0  0  0  0  0  0  0
   -5.6733    5.6201  -36.5587 C   0  0  0  0  0  0  0  0  0  0  0  0
   -6.5972    5.1373  -35.6319 C   0  0  0  0  0  0  0  0  0  0  0  0
   -6.9713    7.3865  -34.8331 C   0  0  0  0  0  0  0  0  0  0  0  0
   -4.9692    4.6895  -37.4897 C   0  0  0  0  0  0  0  0  0  0  0  0
   -6.8785    3.8063  -35.5574 O   0  0  0  0  0  0  0  0  0  0  0  0
   -5.5283    4.8130  -38.7912 O   0  0  0  0  0  0  0  0  0  0  0  0
   -7.5948    8.2344  -34.0047 F   0  0  0  0  0  0  0  0  0  0  0  0
   -4.6799    7.3714  -37.3415 H   0  0  0  0  0  0  0  0  0  0  0  0
   -5.8346    8.9331  -35.8097 H   0  0  0  0  0  0  0  0  0  0  0  0
   -7.9677    5.6513  -34.0454 H   0  0  0  0  0  0  0  0  0  0  0  0
   -3.8961    4.9157  -37.5448 H   0  0  0  0  0  0  0  0  0  0  0  0
   -5.0703    3.6474  -37.1585 H   0  0  0  0  0  0  0  0  0  0  0  0
   -7.5384    3.6416  -34.8657 H   0  0  0  0  0  0  0  0  0  0  0  0
   -6.4678    4.5810  -38.7150 H   0  0  0  0  0  0  0  0  0  0  0  0
  1  2  1  0  0  0  0
  1  4  2  0  0  0  0
  2  6  2  0  0  0  0
  3  5  2  0  0  0  0
  3  6  1  0  0  0  0
  4  5  1  0  0  0  0
  4  7  1  0  0  0  0
  5  8  1  0  0  0  0
  6 10  1  0  0  0  0
  7  9  1  0  0  0  0
  1 11  1  0  0  0  0
  2 12  1  0  0  0  0
  3 13  1  0  0  0  0
  7 14  1  0  0  0  0
  7 15  1  0  0  0  0
  8 16  1  0  0  0  0
  9 17  1  0  0  0  0
M  END
> <id>
EN300-644669

> <smiles>
OCC=1C=CC(F)=CC1O

> <MDLNUMBER>
MFCD06203092

> <IUPAC Name>
5-fluoro-2-(hydroxymethyl)phenol

> <CAS>
773873-09-9

> <Purity>
95

> <URL>
https://www.enaminestore.com/catalog/EN300-644669

> <ROCS_ShapeQuery>
hit0

> <ROCS_TanimotoCombo>
1.027 

> <ROCS_ShapeTanimoto>
0.457 

> <ROCS_ColorTanimoto>
0.570 

> <ROCS_RefTversky>
1.366 

> <ROCS_RefColorTversky>
0.672 

> <ROCS_RefTverskyCombo>
2.038 

> <ROCS_FitTversky>
0.407 

> <ROCS_FitColorTversky>
0.790 

> <ROCS_FitTverskyCombo>
1.197 

> <ROCS_ColorScore>
-3.999

> <ROCS_Overlap>
170.413

> <ROCS_Rank>
207                 

$$$$
untitled-dbase-71037_14
  -OEChem-06232314393D

 23 23  0     1  0  0  0  0  0999 V2000
   -5.3405    6.1845  -38.5588 C   0  0  0  0  0  0  0  0  0  0  0  0
   -6.0701    6.7687  -37.5234 C   0  0  0  0  0  0  0  0  0  0  0  0
   -5.6613    4.0093  -37.5574 C   0  0  0  0  0  0  0  0  0  0  0  0
   -5.1361    4.8047  -38.5758 C   0  0  0  0  0  0  0  0  0  0  0  0
   -6.5953    5.9732  -36.5051 C   0  0  0  0  0  0  0  0  0  0  0  0
   -6.3910    4.5935  -36.5221 C   0  0  0  0  0  0  0  0  0  0  0  0
   -4.3565    4.1804  -39.6834 C   0  0  0  0  0  0  0  0  0  0  0  0
   -8.0638    7.9089  -35.8377 C   0  0  0  0  0  0  0  0  0  0  0  0
   -7.3724    6.6160  -35.4043 C   0  0  2  0  0  0  0  0  0  0  0  0
   -6.8980    3.8019  -35.5359 O   0  0  0  0  0  0  0  0  0  0  0  0
   -6.4843    6.9228  -34.3240 O   0  0  0  0  0  0  0  0  0  0  0  0
   -4.9351    6.8110  -39.3488 H   0  0  0  0  0  0  0  0  0  0  0  0
   -6.2249    7.8444  -37.5199 H   0  0  0  0  0  0  0  0  0  0  0  0
   -5.5037    2.9335  -37.5690 H   0  0  0  0  0  0  0  0  0  0  0  0
   -3.2909    4.1421  -39.4261 H   0  0  0  0  0  0  0  0  0  0  0  0
   -4.7021    3.1587  -39.8873 H   0  0  0  0  0  0  0  0  0  0  0  0
   -4.4688    4.7460  -40.6176 H   0  0  0  0  0  0  0  0  0  0  0  0
   -7.3442    8.6210  -36.2541 H   0  0  0  0  0  0  0  0  0  0  0  0
   -8.5775    8.3883  -34.9967 H   0  0  0  0  0  0  0  0  0  0  0  0
   -8.8308    7.7057  -36.5931 H   0  0  0  0  0  0  0  0  0  0  0  0
   -8.1413    5.9397  -34.9949 H   0  0  0  0  0  0  0  0  0  0  0  0
   -6.6666    2.8741  -35.6989 H   0  0  0  0  0  0  0  0  0  0  0  0
   -6.1038    6.0794  -34.0398 H   0  0  0  0  0  0  0  0  0  0  0  0
  1  2  1  0  0  0  0
  1  4  2  0  0  0  0
  2  5  2  0  0  0  0
  3  4  1  0  0  0  0
  3  6  2  0  0  0  0
  4  7  1  0  0  0  0
  5  6  1  0  0  0  0
  5  9  1  0  0  0  0
  6 10  1  0  0  0  0
  8  9  1  6  0  0  0
  9 11  1  0  0  0  0
  1 12  1  0  0  0  0
  2 13  1  0  0  0  0
  3 14  1  0  0  0  0
  7 15  1  0  0  0  0
  7 16  1  0  0  0  0
  7 17  1  0  0  0  0
  8 18  1  0  0  0  0
  8 19  1  0  0  0  0
  8 20  1  0  0  0  0
  9 21  1  0  0  0  0
 10 22  1  0  0  0  0
 11 23  1  0  0  0  0
M  END
> <id>
EN300-1870439

> <smiles>
C[C@H](O)C=1C=CC(C)=CC1O

> <MDLNUMBER>
MFCD18853921

> <IUPAC Name>
2-[(1S)-1-hydroxyethyl]-5-methylphenol

> <CAS>
1344954-67-1

> <URL>
https://www.enaminestore.com/catalog/EN300-1870439

> <ROCS_ShapeQuery>
hit0

> <ROCS_TanimotoCombo>
1.027 

> <ROCS_ShapeTanimoto>
0.456 

> <ROCS_ColorTanimoto>
0.570 

> <ROCS_RefTversky>
1.438 

> <ROCS_RefColorTversky>
0.672 

> <ROCS_RefTverskyCombo>
2.110 

> <ROCS_FitTversky>
0.401 

> <ROCS_FitColorTversky>
0.791 

> <ROCS_FitTverskyCombo>
1.191 

> <ROCS_ColorScore>
-3.999

> <ROCS_Overlap>
182.082

> <ROCS_Rank>
208                 

$$$$
untitled-dbase-112317_6
  -OEChem-06232314393D

 17 17  0     0  0  0  0  0  0999 V2000
   -5.7658    4.4937  -36.6512 C   0  0  0  0  0  0  0  0  0  0  0  0
   -6.0411    5.0792  -35.4155 C   0  0  0  0  0  0  0  0  0  0  0  0
   -6.0018    6.6457  -37.7236 C   0  0  0  0  0  0  0  0  0  0  0  0
   -6.2771    7.2313  -36.4879 C   0  0  0  0  0  0  0  0  0  0  0  0
   -5.7461    5.2770  -37.8053 C   0  0  0  0  0  0  0  0  0  0  0  0
   -6.2968    6.4480  -35.3338 C   0  0  0  0  0  0  0  0  0  0  0  0
   -6.5487    8.6979  -36.4190 C   0  0  0  0  0  0  0  0  0  0  0  0
   -5.4770    4.7052  -39.0107 O   0  0  0  0  0  0  0  0  0  0  0  0
   -6.5652    7.0036  -34.1190 O   0  0  0  0  0  0  0  0  0  0  0  0
   -8.1688    9.0048  -35.7556 Cl  0  0  0  0  0  0  0  0  0  0  0  0
   -5.5668    3.4271  -36.7087 H   0  0  0  0  0  0  0  0  0  0  0  0
   -6.0524    4.4635  -34.5200 H   0  0  0  0  0  0  0  0  0  0  0  0
   -5.9864    7.2533  -38.6252 H   0  0  0  0  0  0  0  0  0  0  0  0
   -6.4945    9.1624  -37.4118 H   0  0  0  0  0  0  0  0  0  0  0  0
   -5.8176    9.2114  -35.7816 H   0  0  0  0  0  0  0  0  0  0  0  0
   -5.3215    3.7532  -38.9042 H   0  0  0  0  0  0  0  0  0  0  0  0
   -6.5403    6.3242  -33.4272 H   0  0  0  0  0  0  0  0  0  0  0  0
  1  2  1  0  0  0  0
  1  5  2  0  0  0  0
  2  6  2  0  0  0  0
  3  4  2  0  0  0  0
  3  5  1  0  0  0  0
  4  6  1  0  0  0  0
  4  7  1  0  0  0  0
  5  8  1  0  0  0  0
  6  9  1  0  0  0  0
  7 10  1  0  0  0  0
  1 11  1  0  0  0  0
  2 12  1  0  0  0  0
  3 13  1  0  0  0  0
  7 14  1  0  0  0  0
  7 15  1  0  0  0  0
  8 16  1  0  0  0  0
  9 17  1  0  0  0  0
M  END
> <id>
EN300-1968400

> <smiles>
OC=1C=CC(O)=C(CCl)C1

> <MDLNUMBER>
MFCD19235250

> <IUPAC Name>
2-(chloromethyl)benzene-1,4-diol

> <CAS>
1314960-83-2

> <URL>
https://www.enaminestore.com/catalog/EN300-1968400

> <ROCS_ShapeQuery>
hit0

> <ROCS_TanimotoCombo>
1.027 

> <ROCS_ShapeTanimoto>
0.504 

> <ROCS_ColorTanimoto>
0.523 

> <ROCS_RefTversky>
1.431 

> <ROCS_RefColorTversky>
0.635 

> <ROCS_RefTverskyCombo>
2.065 

> <ROCS_FitTversky>
0.437 

> <ROCS_FitColorTversky>
0.748 

> <ROCS_FitTverskyCombo>
1.185 

> <ROCS_ColorScore>
-3.777

> <ROCS_Overlap>
177.540

> <ROCS_Rank>
209                 

$$$$
untitled-dbase-123142_47
  -OEChem-06232314393D

 23 23  0     0  0  0  0  0  0999 V2000
   -6.8050    7.3745  -35.1805 C   0  0  0  0  0  0  0  0  0  0  0  0
   -7.9094    6.6099  -35.9030 C   0  0  0  0  0  0  0  0  0  0  0  0
   -5.7298    6.4355  -34.6433 C   0  0  0  0  0  0  0  0  0  0  0  0
   -7.3460    5.7159  -37.0091 C   0  0  0  0  0  0  0  0  0  0  0  0
   -5.1590    5.5433  -35.7466 C   0  0  0  0  0  0  0  0  0  0  0  0
   -6.2556    4.7651  -36.4916 C   0  0  0  0  0  0  0  0  0  0  0  0
   -5.6579    3.9593  -37.6464 C   0  0  0  0  0  0  0  0  0  0  0  0
   -6.8687    3.8418  -35.5868 O   0  0  0  0  0  0  0  0  0  0  0  0
   -5.5291    4.8129  -38.7670 O   0  0  0  0  0  0  0  0  0  0  0  0
   -6.3485    8.0946  -35.8709 H   0  0  0  0  0  0  0  0  0  0  0  0
   -7.2355    7.9527  -34.3551 H   0  0  0  0  0  0  0  0  0  0  0  0
   -8.4649    5.9993  -35.1808 H   0  0  0  0  0  0  0  0  0  0  0  0
   -8.6252    7.3191  -36.3343 H   0  0  0  0  0  0  0  0  0  0  0  0
   -4.9215    7.0222  -34.1921 H   0  0  0  0  0  0  0  0  0  0  0  0
   -6.1521    5.8129  -33.8452 H   0  0  0  0  0  0  0  0  0  0  0  0
   -8.1747    5.1400  -37.4395 H   0  0  0  0  0  0  0  0  0  0  0  0
   -6.9404    6.3505  -37.8074 H   0  0  0  0  0  0  0  0  0  0  0  0
   -4.5978    6.1665  -36.4545 H   0  0  0  0  0  0  0  0  0  0  0  0
   -4.4450    4.8469  -35.2898 H   0  0  0  0  0  0  0  0  0  0  0  0
   -6.3170    3.1296  -37.8959 H   0  0  0  0  0  0  0  0  0  0  0  0
   -4.6770    3.5818  -37.3628 H   0  0  0  0  0  0  0  0  0  0  0  0
   -6.1622    3.2568  -35.2771 H   0  0  0  0  0  0  0  0  0  0  0  0
   -6.4208    5.1330  -38.9877 H   0  0  0  0  0  0  0  0  0  0  0  0
  1  2  1  0  0  0  0
  1  3  1  0  0  0  0
  2  4  1  0  0  0  0
  3  5  1  0  0  0  0
  4  6  1  0  0  0  0
  5  6  1  0  0  0  0
  6  7  1  0  0  0  0
  6  8  1  0  0  0  0
  7  9  1  0  0  0  0
  1 10  1  0  0  0  0
  1 11  1  0  0  0  0
  2 12  1  0  0  0  0
  2 13  1  0  0  0  0
  3 14  1  0  0  0  0
  3 15  1  0  0  0  0
  4 16  1  0  0  0  0
  4 17  1  0  0  0  0
  5 18  1  0  0  0  0
  5 19  1  0  0  0  0
  7 20  1  0  0  0  0
  7 21  1  0  0  0  0
  8 22  1  0  0  0  0
  9 23  1  0  0  0  0
M  END
> <id>
EN300-199144

> <smiles>
OCC1(O)CCCCC1

> <MDLNUMBER>
MFCD00956115

> <IUPAC Name>
1-(hydroxymethyl)cyclohexan-1-ol

> <CAS>
15753-47-6

> <Purity>
95

> <URL>
https://www.enaminestore.com/catalog/EN300-199144

> <MP>
73-76

> <ROCS_ShapeQuery>
hit0

> <ROCS_TanimotoCombo>
1.026 

> <ROCS_ShapeTanimoto>
0.458 

> <ROCS_ColorTanimoto>
0.569 

> <ROCS_RefTversky>
1.227 

> <ROCS_RefColorTversky>
0.671 

> <ROCS_RefTverskyCombo>
1.897 

> <ROCS_FitTversky>
0.422 

> <ROCS_FitColorTversky>
0.790 

> <ROCS_FitTverskyCombo>
1.212 

> <ROCS_ColorScore>
-3.990

> <ROCS_Overlap>
148.846

> <ROCS_Rank>
210                 

$$$$
untitled-dbase-64968_14
  -OEChem-06232314393D

 20 20  0     1  0  0  0  0  0999 V2000
   -6.1220    6.7669  -37.5354 C   0  0  0  0  0  0  0  0  0  0  0  0
   -5.4043    6.1868  -38.5812 C   0  0  0  0  0  0  0  0  0  0  0  0
   -5.6911    4.0109  -37.5710 C   0  0  0  0  0  0  0  0  0  0  0  0
   -6.6243    5.9691  -36.5073 C   0  0  0  0  0  0  0  0  0  0  0  0
   -6.4088    4.5911  -36.5251 C   0  0  0  0  0  0  0  0  0  0  0  0
   -5.1888    4.8088  -38.5991 C   0  0  0  0  0  0  0  0  0  0  0  0
   -8.0990    7.8931  -35.8201 C   0  0  0  0  0  0  0  0  0  0  0  0
   -7.3895    6.6071  -35.3954 C   0  0  2  0  0  0  0  0  0  0  0  0
   -6.8932    3.7975  -35.5291 O   0  0  0  0  0  0  0  0  0  0  0  0
   -6.4871    6.9238  -34.3299 O   0  0  0  0  0  0  0  0  0  0  0  0
   -4.3047    4.0940  -39.8908 Cl  0  0  0  0  0  0  0  0  0  0  0  0
   -6.2836    7.8416  -37.5300 H   0  0  0  0  0  0  0  0  0  0  0  0
   -5.0172    6.8204  -39.3750 H   0  0  0  0  0  0  0  0  0  0  0  0
   -5.5268    2.9358  -37.5783 H   0  0  0  0  0  0  0  0  0  0  0  0
   -7.3923    8.6107  -36.2491 H   0  0  0  0  0  0  0  0  0  0  0  0
   -8.6036    8.3696  -34.9721 H   0  0  0  0  0  0  0  0  0  0  0  0
   -8.8758    7.6817  -36.5631 H   0  0  0  0  0  0  0  0  0  0  0  0
   -8.1459    5.9249  -34.9728 H   0  0  0  0  0  0  0  0  0  0  0  0
   -6.6566    2.8713  -35.6939 H   0  0  0  0  0  0  0  0  0  0  0  0
   -6.0948    6.0842  -34.0503 H   0  0  0  0  0  0  0  0  0  0  0  0
  1  2  1  0  0  0  0
  1  4  2  0  0  0  0
  2  6  2  0  0  0  0
  3  5  2  0  0  0  0
  3  6  1  0  0  0  0
  4  5  1  0  0  0  0
  4  8  1  0  0  0  0
  5  9  1  0  0  0  0
  6 11  1  0  0  0  0
  7  8  1  6  0  0  0
  8 10  1  0  0  0  0
  1 12  1  0  0  0  0
  2 13  1  0  0  0  0
  3 14  1  0  0  0  0
  7 15  1  0  0  0  0
  7 16  1  0  0  0  0
  7 17  1  0  0  0  0
  8 18  1  0  0  0  0
  9 19  1  0  0  0  0
 10 20  1  0  0  0  0
M  END
> <id>
EN300-1979995

> <smiles>
C[C@H](O)C=1C=CC(Cl)=CC1O

> <MDLNUMBER>
MFCD32949707

> <IUPAC Name>
5-chloro-2-[(1S)-1-hydroxyethyl]phenol

> <CAS>
2227649-52-5

> <URL>
https://www.enaminestore.com/catalog/EN300-1979995

> <ROCS_ShapeQuery>
hit0

> <ROCS_TanimotoCombo>
1.026 

> <ROCS_ShapeTanimoto>
0.455 

> <ROCS_ColorTanimoto>
0.570 

> <ROCS_RefTversky>
1.423 

> <ROCS_RefColorTversky>
0.672 

> <ROCS_RefTverskyCombo>
2.095 

> <ROCS_FitTversky>
0.401 

> <ROCS_FitColorTversky>
0.791 

> <ROCS_FitTverskyCombo>
1.192 

> <ROCS_ColorScore>
-3.999

> <ROCS_Overlap>
179.822

> <ROCS_Rank>
211                 

$$$$
untitled-dbase-105186_92
  -OEChem-06232314393D

 20 20  0     1  0  0  0  0  0999 V2000
   -5.0585    7.2138  -36.0771 C   0  0  0  0  0  0  0  0  0  0  0  0
   -5.4948    6.1453  -35.0776 C   0  0  2  0  0  0  0  0  0  0  0  0
   -5.9460    4.9903  -35.9603 C   0  0  2  0  0  0  0  0  0  0  0  0
   -6.5461    5.7170  -37.1557 C   0  0  2  0  0  0  0  0  0  0  0  0
   -6.6949    4.8366  -38.3866 C   0  0  0  0  0  0  0  0  0  0  0  0
   -5.5741    6.7897  -37.3870 N   0  0  0  0  0  0  0  0  0  0  0  0
   -6.5919    6.6403  -34.3138 O   0  0  0  0  0  0  0  0  0  0  0  0
   -6.8772    4.1578  -35.2981 O   0  0  0  0  0  0  0  0  0  0  0  0
   -5.4399    4.7511  -39.0397 O   0  0  0  0  0  0  0  0  0  0  0  0
   -5.4386    8.2066  -35.8139 H   0  0  0  0  0  0  0  0  0  0  0  0
   -3.9667    7.2623  -36.1406 H   0  0  0  0  0  0  0  0  0  0  0  0
   -4.6980    5.8549  -34.3849 H   0  0  0  0  0  0  0  0  0  0  0  0
   -5.0773    4.3870  -36.2567 H   0  0  0  0  0  0  0  0  0  0  0  0
   -7.5279    6.1370  -36.9000 H   0  0  0  0  0  0  0  0  0  0  0  0
   -7.4259    5.2688  -39.0726 H   0  0  0  0  0  0  0  0  0  0  0  0
   -7.0158    3.8343  -38.0966 H   0  0  0  0  0  0  0  0  0  0  0  0
   -6.0039    7.5700  -37.8805 H   0  0  0  0  0  0  0  0  0  0  0  0
   -6.8374    5.9356  -33.6945 H   0  0  0  0  0  0  0  0  0  0  0  0
   -7.6445    4.7104  -35.0682 H   0  0  0  0  0  0  0  0  0  0  0  0
   -4.8155    4.3609  -38.4051 H   0  0  0  0  0  0  0  0  0  0  0  0
  1  2  1  0  0  0  0
  1  6  1  0  0  0  0
  2  3  1  0  0  0  0
  2  7  1  1  0  0  0
  3  4  1  0  0  0  0
  3  8  1  1  0  0  0
  4  5  1  6  0  0  0
  4  6  1  0  0  0  0
  5  9  1  0  0  0  0
  1 10  1  0  0  0  0
  1 11  1  0  0  0  0
  2 12  1  0  0  0  0
  3 13  1  0  0  0  0
  4 14  1  0  0  0  0
  5 15  1  0  0  0  0
  5 16  1  0  0  0  0
  6 17  1  0  0  0  0
  7 18  1  0  0  0  0
  8 19  1  0  0  0  0
  9 20  1  0  0  0  0
M  END
> <id>
EN300-26690527

> <smiles>
OC[C@@H]1NC[C@@H](O)[C@H]1O |&1:2,5,7,r|

> <MDLNUMBER>
MFCD32689388

> <IUPAC Name>
rac-(2R,3R,4S)-2-(hydroxymethyl)pyrrolidine-3,4-diol

> <CAS>
105990-40-7

> <URL>
https://www.enaminestore.com/catalog/EN300-26690527

> <ROCS_ShapeQuery>
hit0

> <ROCS_TanimotoCombo>
1.026 

> <ROCS_ShapeTanimoto>
0.467 

> <ROCS_ColorTanimoto>
0.559 

> <ROCS_RefTversky>
1.261 

> <ROCS_RefColorTversky>
0.875 

> <ROCS_RefTverskyCombo>
2.136 

> <ROCS_FitTversky>
0.425 

> <ROCS_FitColorTversky>
0.608 

> <ROCS_FitTverskyCombo>
1.033 

> <ROCS_ColorScore>
-5.382

> <ROCS_Overlap>
153.546

> <ROCS_Rank>
212                 

$$$$
untitled-dbase-121627_92
  -OEChem-06232314393D

 20 20  0     1  0  0  0  0  0999 V2000
   -5.0585    7.2138  -36.0771 C   0  0  0  0  0  0  0  0  0  0  0  0
   -5.4948    6.1453  -35.0776 C   0  0  2  0  0  0  0  0  0  0  0  0
   -5.9460    4.9903  -35.9603 C   0  0  2  0  0  0  0  0  0  0  0  0
   -6.5461    5.7170  -37.1557 C   0  0  2  0  0  0  0  0  0  0  0  0
   -6.6949    4.8366  -38.3866 C   0  0  0  0  0  0  0  0  0  0  0  0
   -5.5741    6.7897  -37.3870 N   0  0  0  0  0  0  0  0  0  0  0  0
   -6.5919    6.6403  -34.3138 O   0  0  0  0  0  0  0  0  0  0  0  0
   -6.8772    4.1578  -35.2981 O   0  0  0  0  0  0  0  0  0  0  0  0
   -5.4399    4.7511  -39.0397 O   0  0  0  0  0  0  0  0  0  0  0  0
   -5.4386    8.2066  -35.8139 H   0  0  0  0  0  0  0  0  0  0  0  0
   -3.9667    7.2623  -36.1406 H   0  0  0  0  0  0  0  0  0  0  0  0
   -4.6980    5.8549  -34.3849 H   0  0  0  0  0  0  0  0  0  0  0  0
   -5.0773    4.3870  -36.2567 H   0  0  0  0  0  0  0  0  0  0  0  0
   -7.5279    6.1370  -36.9000 H   0  0  0  0  0  0  0  0  0  0  0  0
   -7.4259    5.2688  -39.0726 H   0  0  0  0  0  0  0  0  0  0  0  0
   -7.0158    3.8343  -38.0966 H   0  0  0  0  0  0  0  0  0  0  0  0
   -6.0039    7.5700  -37.8805 H   0  0  0  0  0  0  0  0  0  0  0  0
   -6.8374    5.9356  -33.6945 H   0  0  0  0  0  0  0  0  0  0  0  0
   -7.6445    4.7104  -35.0682 H   0  0  0  0  0  0  0  0  0  0  0  0
   -4.8155    4.3609  -38.4051 H   0  0  0  0  0  0  0  0  0  0  0  0
  1  2  1  0  0  0  0
  1  6  1  0  0  0  0
  2  3  1  0  0  0  0
  2  7  1  1  0  0  0
  3  4  1  0  0  0  0
  3  8  1  1  0  0  0
  4  5  1  6  0  0  0
  4  6  1  0  0  0  0
  5  9  1  0  0  0  0
  1 10  1  0  0  0  0
  1 11  1  0  0  0  0
  2 12  1  0  0  0  0
  3 13  1  0  0  0  0
  4 14  1  0  0  0  0
  5 15  1  0  0  0  0
  5 16  1  0  0  0  0
  6 17  1  0  0  0  0
  7 18  1  0  0  0  0
  8 19  1  0  0  0  0
  9 20  1  0  0  0  0
M  END
> <id>
EN300-26690526

> <smiles>
Cl.OC[C@@H]1NC[C@@H](O)[C@H]1O |&1:3,6,8,r|

> <MDLNUMBER>
MFCD17676313

> <IUPAC Name>
rac-(2R,3R,4S)-2-(hydroxymethyl)pyrrolidine-3,4-diol hydrochloride

> <CAS>
117770-01-1

> <Purity>
95

> <URL>
https://www.enaminestore.com/catalog/EN300-26690526

> <Saltdate>
Cl

> <ROCS_ShapeQuery>
hit0

> <ROCS_TanimotoCombo>
1.026 

> <ROCS_ShapeTanimoto>
0.467 

> <ROCS_ColorTanimoto>
0.559 

> <ROCS_RefTversky>
1.261 

> <ROCS_RefColorTversky>
0.875 

> <ROCS_RefTverskyCombo>
2.136 

> <ROCS_FitTversky>
0.425 

> <ROCS_FitColorTversky>
0.608 

> <ROCS_FitTverskyCombo>
1.033 

> <ROCS_ColorScore>
-5.382

> <ROCS_Overlap>
153.546

> <ROCS_Rank>
213                 

$$$$
untitled-dbase-159871_12
  -OEChem-06232314393D

 18 18  0     1  0  0  0  0  0999 V2000
   -6.0503    5.3280  -37.6151 C   0  0  0  0  0  0  0  0  0  0  0  0
   -7.4680    7.1365  -36.5382 C   0  0  0  0  0  0  0  0  0  0  0  0
   -7.5081    7.7136  -35.1355 C   0  0  0  0  0  0  0  0  0  0  0  0
   -5.7364    6.1971  -35.2522 C   0  0  0  0  0  0  0  0  0  0  0  0
   -6.7357    5.8183  -36.3424 C   0  0  2  0  0  0  0  0  0  0  0  0
   -7.6621    4.7740  -35.8540 C   0  0  0  0  0  0  0  0  0  0  0  0
   -5.5292    4.9553  -38.5825 N   0  0  0  0  0  0  0  0  0  0  0  0
   -6.3585    7.2102  -34.4424 O   0  0  0  0  0  0  0  0  0  0  0  0
   -6.9176    3.5986  -35.5930 O   0  0  0  0  0  0  0  0  0  0  0  0
   -8.4965    6.9561  -36.8761 H   0  0  0  0  0  0  0  0  0  0  0  0
   -6.9982    7.8203  -37.2526 H   0  0  0  0  0  0  0  0  0  0  0  0
   -7.4404    8.8066  -35.1495 H   0  0  0  0  0  0  0  0  0  0  0  0
   -8.4162    7.4308  -34.5954 H   0  0  0  0  0  0  0  0  0  0  0  0
   -5.5179    5.3522  -34.5890 H   0  0  0  0  0  0  0  0  0  0  0  0
   -4.7866    6.5835  -35.6363 H   0  0  0  0  0  0  0  0  0  0  0  0
   -8.4160    4.5627  -36.6119 H   0  0  0  0  0  0  0  0  0  0  0  0
   -8.1455    5.1064  -34.9357 H   0  0  0  0  0  0  0  0  0  0  0  0
   -7.5452    2.9277  -35.2739 H   0  0  0  0  0  0  0  0  0  0  0  0
  1  5  1  0  0  0  0
  1  7  3  0  0  0  0
  2  3  1  0  0  0  0
  2  5  1  0  0  0  0
  3  8  1  0  0  0  0
  4  5  1  0  0  0  0
  4  8  1  0  0  0  0
  5  6  1  0  0  0  0
  6  9  1  0  0  0  0
  2 10  1  0  0  0  0
  2 11  1  0  0  0  0
  3 12  1  0  0  0  0
  3 13  1  0  0  0  0
  4 14  1  0  0  0  0
  4 15  1  0  0  0  0
  6 16  1  0  0  0  0
  6 17  1  0  0  0  0
  9 18  1  0  0  0  0
M  END
> <id>
EN300-264733

> <smiles>
OCC1(CCOC1)C#N

> <MDLNUMBER>
MFCD21802842

> <IUPAC Name>
3-(hydroxymethyl)oxolane-3-carbonitrile

> <CAS>
1537271-57-0

> <Purity>
95

> <URL>
https://www.enaminestore.com/catalog/EN300-264733

> <ROCS_ShapeQuery>
hit0

> <ROCS_TanimotoCombo>
1.026 

> <ROCS_ShapeTanimoto>
0.513 

> <ROCS_ColorTanimoto>
0.513 

> <ROCS_RefTversky>
1.350 

> <ROCS_RefColorTversky>
0.627 

> <ROCS_RefTverskyCombo>
1.977 

> <ROCS_FitTversky>
0.453 

> <ROCS_FitColorTversky>
0.738 

> <ROCS_FitTverskyCombo>
1.191 

> <ROCS_ColorScore>
-3.729

> <ROCS_Overlap>
164.616

> <ROCS_Rank>
214                 

$$$$
untitled-dbase-17925_4
  -OEChem-06232314393D

 13 13  0     0  0  0  0  0  0999 V2000
   -6.2077    5.6427  -37.0096 C   0  0  0  0  0  0  0  0  0  0  0  0
   -6.4015    4.3319  -36.6218 C   0  0  0  0  0  0  0  0  0  0  0  0
   -6.5179    6.7879  -36.1994 C   0  0  0  0  0  0  0  0  0  0  0  0
   -5.6745    5.8177  -38.2768 N   0  0  0  0  0  0  0  0  0  0  0  0
   -5.4531    4.6578  -38.8747 N   0  0  0  0  0  0  0  0  0  0  0  0
   -6.8973    3.8382  -35.4638 N   0  0  0  0  0  0  0  0  0  0  0  0
   -6.8836    7.9576  -36.8438 N   0  0  0  0  0  0  0  0  0  0  0  0
   -6.4728    6.7308  -34.5165 S   0  0  0  0  0  0  0  0  0  0  0  0
   -5.8812    3.3454  -37.9258 S   0  0  0  0  0  0  0  0  0  0  0  0
   -7.1590    4.4494  -34.6781 H   0  0  0  0  0  0  0  0  0  0  0  0
   -6.9472    2.8269  -35.2795 H   0  0  0  0  0  0  0  0  0  0  0  0
   -6.9303    8.0216  -37.8557 H   0  0  0  0  0  0  0  0  0  0  0  0
   -7.1090    8.8011  -36.3267 H   0  0  0  0  0  0  0  0  0  0  0  0
  1  2  2  0  0  0  0
  1  3  1  0  0  0  0
  1  4  1  0  0  0  0
  2  6  1  0  0  0  0
  2  9  1  0  0  0  0
  3  7  1  0  0  0  0
  3  8  2  0  0  0  0
  4  5  2  0  0  0  0
  5  9  1  0  0  0  0
  6 10  1  0  0  0  0
  6 11  1  0  0  0  0
  7 12  1  0  0  0  0
  7 13  1  0  0  0  0
M  END
> <id>
EN300-246862

> <smiles>
NC(=S)C=1N=NSC1N

> <MDLNUMBER>
MFCD20690872

> <IUPAC Name>
5-amino-1,2,3-thiadiazole-4-carbothioamide

> <CAS>
100097-66-3

> <Purity>
95

> <URL>
https://www.enaminestore.com/catalog/EN300-246862

> <ROCS_ShapeQuery>
hit0

> <ROCS_TanimotoCombo>
1.026 

> <ROCS_ShapeTanimoto>
0.518 

> <ROCS_ColorTanimoto>
0.508 

> <ROCS_RefTversky>
1.335 

> <ROCS_RefColorTversky>
0.691 

> <ROCS_RefTverskyCombo>
2.026 

> <ROCS_FitTversky>
0.458 

> <ROCS_FitColorTversky>
0.657 

> <ROCS_FitTverskyCombo>
1.115 

> <ROCS_ColorScore>
-4.157

> <ROCS_Overlap>
161.998

> <ROCS_Rank>
215                 

$$$$
untitled-dbase-151721_3
  -OEChem-06232314393D

 16 16  0     0  0  0  0  0  0999 V2000
   -6.3511    8.1583  -36.3793 C   0  0  0  0  0  0  0  0  0  0  0  0
   -6.1294    8.2516  -37.7439 C   0  0  0  0  0  0  0  0  0  0  0  0
   -6.0127    5.7857  -36.5814 C   0  0  0  0  0  0  0  0  0  0  0  0
   -6.2898    6.8982  -35.7947 C   0  0  0  0  0  0  0  0  0  0  0  0
   -5.8063    5.9852  -37.9369 C   0  0  0  0  0  0  0  0  0  0  0  0
   -5.9460    4.4593  -35.9783 C   0  0  0  0  0  0  0  0  0  0  0  0
   -5.8576    7.1938  -38.5406 N   0  0  0  0  0  0  0  0  0  0  0  0
   -5.5237    4.8569  -38.7472 N   0  0  0  0  0  0  0  0  0  0  0  0
   -6.8964    3.9436  -35.3882 O   0  0  0  0  0  0  0  0  0  0  0  0
   -6.5035    6.7773  -34.4546 O   0  0  0  0  0  0  0  0  0  0  0  0
   -6.5651    9.0440  -35.7912 H   0  0  0  0  0  0  0  0  0  0  0  0
   -6.1660    9.2118  -38.2478 H   0  0  0  0  0  0  0  0  0  0  0  0
   -4.9861    3.9094  -36.0672 H   0  0  0  0  0  0  0  0  0  0  0  0
   -5.4206    4.9846  -39.7300 H   0  0  0  0  0  0  0  0  0  0  0  0
   -5.5283    3.9522  -38.3295 H   0  0  0  0  0  0  0  0  0  0  0  0
   -6.6817    7.6472  -34.0640 H   0  0  0  0  0  0  0  0  0  0  0  0
  1  2  2  0  0  0  0
  1  4  1  0  0  0  0
  2  7  1  0  0  0  0
  3  4  2  0  0  0  0
  3  5  1  0  0  0  0
  3  6  1  0  0  0  0
  4 10  1  0  0  0  0
  5  7  2  0  0  0  0
  5  8  1  0  0  0  0
  6  9  2  0  0  0  0
  1 11  1  0  0  0  0
  2 12  1  0  0  0  0
  6 13  1  0  0  0  0
  8 14  1  0  0  0  0
  8 15  1  0  0  0  0
 10 16  1  0  0  0  0
M  END
> <id>
EN300-24497564

> <smiles>
NC=1N=CC=C(O)C1C=O

> <MDLNUMBER>
MFCD22547754

> <IUPAC Name>
2-amino-4-hydroxypyridine-3-carbaldehyde

> <CAS>
1289098-84-5

> <URL>
https://www.enaminestore.com/catalog/EN300-24497564

> <ROCS_ShapeQuery>
hit0

> <ROCS_TanimotoCombo>
1.025 

> <ROCS_ShapeTanimoto>
0.424 

> <ROCS_ColorTanimoto>
0.601 

> <ROCS_RefTversky>
1.312 

> <ROCS_RefColorTversky>
0.808 

> <ROCS_RefTverskyCombo>
2.119 

> <ROCS_FitTversky>
0.385 

> <ROCS_FitColorTversky>
0.702 

> <ROCS_FitTverskyCombo>
1.087 

> <ROCS_ColorScore>
-4.886

> <ROCS_Overlap>
164.257

> <ROCS_Rank>
216                 

$$$$
untitled-dbase-13011_0
  -OEChem-06232314393D

 15 14  0     1  0  0  0  0  0999 V2000
   -6.1326    5.6357  -36.4902 C   0  0  0  0  0  0  0  0  0  0  0  0
   -6.9987    7.9899  -36.3958 C   0  0  0  0  0  0  0  0  0  0  0  0
   -6.0838    6.9635  -35.7467 C   0  0  1  0  0  0  0  0  0  0  0  0
   -5.6381    4.6200  -38.5874 N   0  0  0  0  0  0  0  0  0  0  0  0
   -5.6735    5.7462  -37.7911 N   0  0  0  0  0  0  0  0  0  0  0  0
   -6.5243    4.5983  -35.9589 O   0  0  0  0  0  0  0  0  0  0  0  0
   -6.5150    6.7670  -34.4104 O   0  0  0  0  0  0  0  0  0  0  0  0
   -8.0367    7.6454  -36.4314 H   0  0  0  0  0  0  0  0  0  0  0  0
   -6.9743    8.9375  -35.8455 H   0  0  0  0  0  0  0  0  0  0  0  0
   -6.6682    8.2073  -37.4171 H   0  0  0  0  0  0  0  0  0  0  0  0
   -5.0536    7.3354  -35.7253 H   0  0  0  0  0  0  0  0  0  0  0  0
   -6.4277    4.0379  -38.3111 H   0  0  0  0  0  0  0  0  0  0  0  0
   -5.8335    4.9251  -39.5399 H   0  0  0  0  0  0  0  0  0  0  0  0
   -5.3671    6.6432  -38.1543 H   0  0  0  0  0  0  0  0  0  0  0  0
   -5.9077    6.1235  -34.0083 H   0  0  0  0  0  0  0  0  0  0  0  0
  1  3  1  0  0  0  0
  1  5  1  0  0  0  0
  1  6  2  0  0  0  0
  2  3  1  0  0  0  0
  3  7  1  0  0  0  0
  4  5  1  0  0  0  0
  2  8  1  0  0  0  0
  2  9  1  0  0  0  0
  2 10  1  0  0  0  0
  3 11  1  0  0  0  0
  4 12  1  0  0  0  0
  4 13  1  0  0  0  0
  5 14  1  0  0  0  0
  7 15  1  0  0  0  0
M  END
> <id>
EN300-196484

> <smiles>
CC(O)C(=O)NN

> <MDLNUMBER>
MFCD00038134

> <IUPAC Name>
2-hydroxypropanehydrazide

> <CAS>
2651-42-5

> <Purity>
95

> <URL>
https://www.enaminestore.com/catalog/EN300-196484

> <ROCS_ShapeQuery>
hit0

> <ROCS_TanimotoCombo>
1.025 

> <ROCS_ShapeTanimoto>
0.596 

> <ROCS_ColorTanimoto>
0.429 

> <ROCS_RefTversky>
1.227 

> <ROCS_RefColorTversky>
0.569 

> <ROCS_RefTverskyCombo>
1.796 

> <ROCS_FitTversky>
0.537 

> <ROCS_FitColorTversky>
0.636 

> <ROCS_FitTverskyCombo>
1.173 

> <ROCS_ColorScore>
-3.392

> <ROCS_Overlap>
143.359

> <ROCS_Rank>
217                 

$$$$
untitled-dbase-31562_4
  -OEChem-06232314393D

 18 18  0     0  0  0  0  0  0999 V2000
   -6.2409    5.9432  -36.6945 C   0  0  0  0  0  0  0  0  0  0  0  0
   -5.7147    6.0548  -37.9930 C   0  0  0  0  0  0  0  0  0  0  0  0
   -6.4157    4.5948  -36.5287 C   0  0  0  0  0  0  0  0  0  0  0  0
   -6.5419    6.9591  -35.7329 C   0  0  0  0  0  0  0  0  0  0  0  0
   -5.3286    7.2792  -38.7144 C   0  0  0  0  0  0  0  0  0  0  0  0
   -7.2208    9.2501  -35.4610 C   0  0  0  0  0  0  0  0  0  0  0  0
   -5.5739    4.8665  -38.5872 N   0  0  0  0  0  0  0  0  0  0  0  0
   -6.4972    6.8156  -34.4904 O   0  0  0  0  0  0  0  0  0  0  0  0
   -6.0212    3.9415  -37.6515 O   0  0  0  0  0  0  0  0  0  0  0  0
   -6.8659    3.8236  -35.5545 O   0  0  0  0  0  0  0  0  0  0  0  0
   -6.8967    8.1525  -36.3212 O   0  0  0  0  0  0  0  0  0  0  0  0
   -4.2710    7.5356  -38.5312 H   0  0  0  0  0  0  0  0  0  0  0  0
   -5.4621    7.1798  -39.8064 H   0  0  0  0  0  0  0  0  0  0  0  0
   -5.9384    8.1502  -38.4140 H   0  0  0  0  0  0  0  0  0  0  0  0
   -7.4806   10.1229  -36.0649 H   0  0  0  0  0  0  0  0  0  0  0  0
   -6.3644    9.4781  -34.8215 H   0  0  0  0  0  0  0  0  0  0  0  0
   -8.0747    8.9735  -34.8382 H   0  0  0  0  0  0  0  0  0  0  0  0
   -6.8481    2.8681  -35.7928 H   0  0  0  0  0  0  0  0  0  0  0  0
  1  2  1  0  0  0  0
  1  3  2  0  0  0  0
  1  4  1  0  0  0  0
  2  5  1  0  0  0  0
  2  7  2  0  0  0  0
  3  9  1  0  0  0  0
  3 10  1  0  0  0  0
  4  8  2  0  0  0  0
  4 11  1  0  0  0  0
  6 11  1  0  0  0  0
  7  9  1  0  0  0  0
  5 12  1  0  0  0  0
  5 13  1  0  0  0  0
  5 14  1  0  0  0  0
  6 15  1  0  0  0  0
  6 16  1  0  0  0  0
  6 17  1  0  0  0  0
 10 18  1  0  0  0  0
M  END
> <id>
EN300-734146

> <smiles>
COC(=O)C=1C(C)=NOC1O

> <MDLNUMBER>
MFCD28955834

> <IUPAC Name>
methyl 5-hydroxy-3-methyl-1,2-oxazole-4-carboxylate

> <CAS>
753486-91-8

> <URL>
https://www.enaminestore.com/catalog/EN300-734146

> <ROCS_ShapeQuery>
hit0

> <ROCS_TanimotoCombo>
1.024 

> <ROCS_ShapeTanimoto>
0.472 

> <ROCS_ColorTanimoto>
0.552 

> <ROCS_RefTversky>
1.505 

> <ROCS_RefColorTversky>
0.658 

> <ROCS_RefTverskyCombo>
2.163 

> <ROCS_FitTversky>
0.408 

> <ROCS_FitColorTversky>
0.775 

> <ROCS_FitTverskyCombo>
1.183 

> <ROCS_ColorScore>
-3.914

> <ROCS_Overlap>
192.014

> <ROCS_Rank>
218                 

$$$$
untitled-dbase-69593_0
  -OEChem-06232314393D

 18 18  0     0  0  0  0  0  0999 V2000
   -5.7642    4.4979  -36.6493 C   0  0  0  0  0  0  0  0  0  0  0  0
   -6.0383    5.0817  -35.4125 C   0  0  0  0  0  0  0  0  0  0  0  0
   -6.0100    6.6499  -37.7195 C   0  0  0  0  0  0  0  0  0  0  0  0
   -6.2842    7.2337  -36.4827 C   0  0  0  0  0  0  0  0  0  0  0  0
   -5.7500    5.2820  -37.8028 C   0  0  0  0  0  0  0  0  0  0  0  0
   -6.2983    6.4496  -35.3292 C   0  0  0  0  0  0  0  0  0  0  0  0
   -6.5604    8.6993  -36.4122 C   0  0  0  0  0  0  0  0  0  0  0  0
   -5.4821    4.7120  -39.0093 O   0  0  0  0  0  0  0  0  0  0  0  0
   -6.5655    7.0034  -34.1133 O   0  0  0  0  0  0  0  0  0  0  0  0
   -8.3296    9.0643  -36.2067 S   0  0  0  0  0  0  0  0  0  0  0  0
   -5.5619    3.4321  -36.7080 H   0  0  0  0  0  0  0  0  0  0  0  0
   -6.0454    4.4653  -34.5174 H   0  0  0  0  0  0  0  0  0  0  0  0
   -5.9990    7.2582  -38.6208 H   0  0  0  0  0  0  0  0  0  0  0  0
   -6.0121    9.1600  -35.5779 H   0  0  0  0  0  0  0  0  0  0  0  0
   -6.2077    9.2042  -37.3229 H   0  0  0  0  0  0  0  0  0  0  0  0
   -5.3232    3.7604  -38.9039 H   0  0  0  0  0  0  0  0  0  0  0  0
   -6.5366    6.3236  -33.4220 H   0  0  0  0  0  0  0  0  0  0  0  0
   -8.4732    8.4085  -35.0474 H   0  0  0  0  0  0  0  0  0  0  0  0
  1  2  1  0  0  0  0
  1  5  2  0  0  0  0
  2  6  2  0  0  0  0
  3  4  2  0  0  0  0
  3  5  1  0  0  0  0
  4  6  1  0  0  0  0
  4  7  1  0  0  0  0
  5  8  1  0  0  0  0
  6  9  1  0  0  0  0
  7 10  1  0  0  0  0
  1 11  1  0  0  0  0
  2 12  1  0  0  0  0
  3 13  1  0  0  0  0
  7 14  1  0  0  0  0
  7 15  1  0  0  0  0
  8 16  1  0  0  0  0
  9 17  1  0  0  0  0
 10 18  1  0  0  0  0
M  END
> <id>
EN300-1844862

> <smiles>
OC=1C=CC(O)=C(CS)C1

> <MDLNUMBER>
MFCD24715890

> <IUPAC Name>
2-(sulfanylmethyl)benzene-1,4-diol

> <CAS>
5273-75-6

> <URL>
https://www.enaminestore.com/catalog/EN300-1844862

> <ROCS_ShapeQuery>
hit0

> <ROCS_TanimotoCombo>
1.024 

> <ROCS_ShapeTanimoto>
0.501 

> <ROCS_ColorTanimoto>
0.523 

> <ROCS_RefTversky>
1.423 

> <ROCS_RefColorTversky>
0.635 

> <ROCS_RefTverskyCombo>
2.058 

> <ROCS_FitTversky>
0.436 

> <ROCS_FitColorTversky>
0.748 

> <ROCS_FitTverskyCombo>
1.184 

> <ROCS_ColorScore>
-3.777

> <ROCS_Overlap>
176.602

> <ROCS_Rank>
219                 

$$$$
untitled-dbase-131351_2
  -OEChem-06232314393D

 16 16  0     0  0  0  0  0  0999 V2000
   -6.1942    3.7802  -36.4718 C   0  0  0  0  0  0  0  0  0  0  0  0
   -7.0837    4.7958  -34.6261 C   0  0  0  0  0  0  0  0  0  0  0  0
   -5.5239    4.9413  -36.7878 C   0  0  0  0  0  0  0  0  0  0  0  0
   -6.4128    5.9568  -34.9416 C   0  0  0  0  0  0  0  0  0  0  0  0
   -4.6570    5.0081  -37.9964 C   0  0  0  0  0  0  0  0  0  0  0  0
   -6.9862    3.6866  -35.3853 N   0  0  0  0  0  0  0  0  0  0  0  0
   -5.6211    6.0505  -36.0283 N   0  0  0  0  0  0  0  0  0  0  0  0
   -6.5703    7.0739  -34.0911 N   0  0  0  0  0  0  0  0  0  0  0  0
   -5.4376    4.7410  -39.1561 O   0  0  0  0  0  0  0  0  0  0  0  0
   -6.1234    2.8856  -37.0792 H   0  0  0  0  0  0  0  0  0  0  0  0
   -7.7215    4.7090  -33.7540 H   0  0  0  0  0  0  0  0  0  0  0  0
   -4.1951    5.9998  -38.1073 H   0  0  0  0  0  0  0  0  0  0  0  0
   -3.8419    4.2720  -37.9445 H   0  0  0  0  0  0  0  0  0  0  0  0
   -7.1961    7.0091  -33.3154 H   0  0  0  0  0  0  0  0  0  0  0  0
   -6.1270    7.9353  -34.3343 H   0  0  0  0  0  0  0  0  0  0  0  0
   -4.8355    4.7947  -39.9152 H   0  0  0  0  0  0  0  0  0  0  0  0
  1  3  1  0  0  0  0
  1  6  2  0  0  0  0
  2  4  2  0  0  0  0
  2  6  1  0  0  0  0
  3  5  1  0  0  0  0
  3  7  2  0  0  0  0
  4  7  1  0  0  0  0
  4  8  1  0  0  0  0
  5  9  1  0  0  0  0
  1 10  1  0  0  0  0
  2 11  1  0  0  0  0
  5 12  1  0  0  0  0
  5 13  1  0  0  0  0
  8 14  1  0  0  0  0
  8 15  1  0  0  0  0
  9 16  1  0  0  0  0
M  END
> <id>
EN300-248356

> <smiles>
NC=1C=NC=C(CO)N1

> <MDLNUMBER>
MFCD19214047

> <IUPAC Name>
(6-aminopyrazin-2-yl)methanol

> <CAS>
72788-90-0

> <Purity>
95

> <URL>
https://www.enaminestore.com/catalog/EN300-248356

> <ROCS_ShapeQuery>
hit0

> <ROCS_TanimotoCombo>
1.023 

> <ROCS_ShapeTanimoto>
0.487 

> <ROCS_ColorTanimoto>
0.536 

> <ROCS_RefTversky>
1.337 

> <ROCS_RefColorTversky>
0.750 

> <ROCS_RefTverskyCombo>
2.087 

> <ROCS_FitTversky>
0.434 

> <ROCS_FitColorTversky>
0.653 

> <ROCS_FitTverskyCombo>
1.087 

> <ROCS_ColorScore>
-4.541

> <ROCS_Overlap>
163.963

> <ROCS_Rank>
220                 

$$$$
untitled-dbase-172364_10
  -OEChem-06232314393D

 12 12  0     0  0  0  0  0  0999 V2000
   -7.0687    6.2677  -35.2981 C   0  0  0  0  0  0  0  0  0  0  0  0
   -6.2432    5.2630  -37.5229 C   0  0  0  0  0  0  0  0  0  0  0  0
   -5.0742    5.2669  -36.5863 C   0  0  0  0  0  0  0  0  0  0  0  0
   -6.4770    5.1499  -36.0327 C   0  0  0  0  0  0  0  0  0  0  0  0
   -6.5048    6.8428  -34.3730 O   0  0  0  0  0  0  0  0  0  0  0  0
   -6.8715    3.8612  -35.5348 O   0  0  0  0  0  0  0  0  0  0  0  0
   -8.0756    6.5749  -35.6275 H   0  0  0  0  0  0  0  0  0  0  0  0
   -6.4958    6.1944  -38.0155 H   0  0  0  0  0  0  0  0  0  0  0  0
   -6.3970    4.3820  -38.1344 H   0  0  0  0  0  0  0  0  0  0  0  0
   -4.4402    4.3886  -36.5667 H   0  0  0  0  0  0  0  0  0  0  0  0
   -4.5421    6.2009  -36.4504 H   0  0  0  0  0  0  0  0  0  0  0  0
   -6.4223    3.2128  -36.0933 H   0  0  0  0  0  0  0  0  0  0  0  0
  1  4  1  0  0  0  0
  1  5  2  0  0  0  0
  2  3  1  0  0  0  0
  2  4  1  0  0  0  0
  3  4  1  0  0  0  0
  4  6  1  0  0  0  0
  1  7  1  0  0  0  0
  2  8  1  0  0  0  0
  2  9  1  0  0  0  0
  3 10  1  0  0  0  0
  3 11  1  0  0  0  0
  6 12  1  0  0  0  0
M  END
> <id>
EN300-7277236

> <smiles>
OC1(CC1)C=O

> <MDLNUMBER>
MFCD28624453

> <IUPAC Name>
1-hydroxycyclopropane-1-carbaldehyde

> <CAS>
871943-78-1

> <URL>
https://www.enaminestore.com/catalog/EN300-7277236

> <ROCS_ShapeQuery>
hit0

> <ROCS_TanimotoCombo>
1.023 

> <ROCS_ShapeTanimoto>
0.526 

> <ROCS_ColorTanimoto>
0.497 

> <ROCS_RefTversky>
1.045 

> <ROCS_RefColorTversky>
0.511 

> <ROCS_RefTverskyCombo>
1.556 

> <ROCS_FitTversky>
0.514 

> <ROCS_FitColorTversky>
0.948 

> <ROCS_FitTverskyCombo>
1.462 

> <ROCS_ColorScore>
-2.987

> <ROCS_Overlap>
120.274

> <ROCS_Rank>
221                 

$$$$
untitled-dbase-33605_0
  -OEChem-06232314393D

 19 19  0     0  0  0  0  0  0999 V2000
   -6.4376    8.2753  -37.7932 C   0  0  0  0  0  0  0  0  0  0  0  0
   -6.5787    8.1244  -36.4137 C   0  0  0  0  0  0  0  0  0  0  0  0
   -6.0788    7.1817  -38.5813 C   0  0  0  0  0  0  0  0  0  0  0  0
   -6.0022    5.7864  -36.6105 C   0  0  0  0  0  0  0  0  0  0  0  0
   -6.3610    6.8800  -35.8224 C   0  0  0  0  0  0  0  0  0  0  0  0
   -5.8611    5.9373  -37.9899 C   0  0  0  0  0  0  0  0  0  0  0  0
   -5.7676    4.4526  -35.9773 C   0  0  0  0  0  0  0  0  0  0  0  0
   -6.9312    3.9681  -35.2820 N   0  0  0  0  0  0  0  0  0  0  0  0
   -6.5032    6.7513  -34.4735 O   0  0  0  0  0  0  0  0  0  0  0  0
   -5.5106    4.8808  -38.7760 O   0  0  0  0  0  0  0  0  0  0  0  0
   -6.6073    9.2442  -38.2536 H   0  0  0  0  0  0  0  0  0  0  0  0
   -6.8595    8.9800  -35.8057 H   0  0  0  0  0  0  0  0  0  0  0  0
   -5.9715    7.3061  -39.6557 H   0  0  0  0  0  0  0  0  0  0  0  0
   -5.4944    3.7029  -36.7312 H   0  0  0  0  0  0  0  0  0  0  0  0
   -4.9438    4.4935  -35.2534 H   0  0  0  0  0  0  0  0  0  0  0  0
   -7.6776    3.8403  -35.9339 H   0  0  0  0  0  0  0  0  0  0  0  0
   -6.7159    3.0960  -34.8442 H   0  0  0  0  0  0  0  0  0  0  0  0
   -6.3223    5.8374  -34.2033 H   0  0  0  0  0  0  0  0  0  0  0  0
   -5.4565    5.1575  -39.7041 H   0  0  0  0  0  0  0  0  0  0  0  0
  1  2  2  0  0  0  0
  1  3  1  0  0  0  0
  2  5  1  0  0  0  0
  3  6  2  0  0  0  0
  4  5  2  0  0  0  0
  4  6  1  0  0  0  0
  4  7  1  0  0  0  0
  5  9  1  0  0  0  0
  6 10  1  0  0  0  0
  7  8  1  0  0  0  0
  1 11  1  0  0  0  0
  2 12  1  0  0  0  0
  3 13  1  0  0  0  0
  7 14  1  0  0  0  0
  7 15  1  0  0  0  0
  8 16  1  0  0  0  0
  8 17  1  0  0  0  0
  9 18  1  0  0  0  0
 10 19  1  0  0  0  0
M  END
> <id>
EN300-726358

> <smiles>
NCC=1C(O)=CC=CC1O

> <MDLNUMBER>
MFCD22412563

> <IUPAC Name>
2-(aminomethyl)benzene-1,3-diol

> <CAS>
94564-81-5

> <URL>
https://www.enaminestore.com/catalog/EN300-726358

> <ROCS_ShapeQuery>
hit0

> <ROCS_TanimotoCombo>
1.022 

> <ROCS_ShapeTanimoto>
0.435 

> <ROCS_ColorTanimoto>
0.587 

> <ROCS_RefTversky>
1.315 

> <ROCS_RefColorTversky>
0.795 

> <ROCS_RefTverskyCombo>
2.110 

> <ROCS_FitTversky>
0.394 

> <ROCS_FitColorTversky>
0.692 

> <ROCS_FitTverskyCombo>
1.086 

> <ROCS_ColorScore>
-4.809

> <ROCS_Overlap>
163.969

> <ROCS_Rank>
222                 

$$$$
untitled-dbase-31604_0
  -OEChem-06232314393D

 19 19  0     0  0  0  0  0  0999 V2000
   -6.4376    8.2753  -37.7932 C   0  0  0  0  0  0  0  0  0  0  0  0
   -6.5787    8.1244  -36.4137 C   0  0  0  0  0  0  0  0  0  0  0  0
   -6.0788    7.1817  -38.5813 C   0  0  0  0  0  0  0  0  0  0  0  0
   -6.0022    5.7864  -36.6105 C   0  0  0  0  0  0  0  0  0  0  0  0
   -6.3610    6.8800  -35.8224 C   0  0  0  0  0  0  0  0  0  0  0  0
   -5.8611    5.9373  -37.9899 C   0  0  0  0  0  0  0  0  0  0  0  0
   -5.7676    4.4526  -35.9773 C   0  0  0  0  0  0  0  0  0  0  0  0
   -6.9312    3.9681  -35.2820 N   0  0  0  0  0  0  0  0  0  0  0  0
   -6.5032    6.7513  -34.4735 O   0  0  0  0  0  0  0  0  0  0  0  0
   -5.5106    4.8808  -38.7760 O   0  0  0  0  0  0  0  0  0  0  0  0
   -6.6073    9.2442  -38.2536 H   0  0  0  0  0  0  0  0  0  0  0  0
   -6.8595    8.9800  -35.8057 H   0  0  0  0  0  0  0  0  0  0  0  0
   -5.9715    7.3061  -39.6557 H   0  0  0  0  0  0  0  0  0  0  0  0
   -5.4944    3.7029  -36.7312 H   0  0  0  0  0  0  0  0  0  0  0  0
   -4.9438    4.4935  -35.2534 H   0  0  0  0  0  0  0  0  0  0  0  0
   -7.6776    3.8403  -35.9339 H   0  0  0  0  0  0  0  0  0  0  0  0
   -6.7159    3.0960  -34.8442 H   0  0  0  0  0  0  0  0  0  0  0  0
   -6.3223    5.8374  -34.2033 H   0  0  0  0  0  0  0  0  0  0  0  0
   -5.4565    5.1575  -39.7041 H   0  0  0  0  0  0  0  0  0  0  0  0
  1  2  2  0  0  0  0
  1  3  1  0  0  0  0
  2  5  1  0  0  0  0
  3  6  2  0  0  0  0
  4  5  2  0  0  0  0
  4  6  1  0  0  0  0
  4  7  1  0  0  0  0
  5  9  1  0  0  0  0
  6 10  1  0  0  0  0
  7  8  1  0  0  0  0
  1 11  1  0  0  0  0
  2 12  1  0  0  0  0
  3 13  1  0  0  0  0
  7 14  1  0  0  0  0
  7 15  1  0  0  0  0
  8 16  1  0  0  0  0
  8 17  1  0  0  0  0
  9 18  1  0  0  0  0
 10 19  1  0  0  0  0
M  END
> <id>
EN300-726357

> <smiles>
Br.NCC=1C(O)=CC=CC1O

> <MDLNUMBER>
MFCD31443741

> <IUPAC Name>
2-(aminomethyl)benzene-1,3-diol hydrobromide

> <CAS>
643087-33-6

> <Purity>
95

> <URL>
https://www.enaminestore.com/catalog/EN300-726357

> <Saltdate>
Br

> <ROCS_ShapeQuery>
hit0

> <ROCS_TanimotoCombo>
1.022 

> <ROCS_ShapeTanimoto>
0.435 

> <ROCS_ColorTanimoto>
0.587 

> <ROCS_RefTversky>
1.315 

> <ROCS_RefColorTversky>
0.795 

> <ROCS_RefTverskyCombo>
2.110 

> <ROCS_FitTversky>
0.394 

> <ROCS_FitColorTversky>
0.692 

> <ROCS_FitTverskyCombo>
1.086 

> <ROCS_ColorScore>
-4.809

> <ROCS_Overlap>
163.969

> <ROCS_Rank>
223                 

$$$$
untitled-dbase-147225_2
  -OEChem-06232314393D

 19 19  0     1  0  0  0  0  0999 V2000
   -6.3332    4.2519  -36.2227 C   0  0  0  0  0  0  0  0  0  0  0  0
   -5.6226    3.2605  -37.1159 C   0  0  0  0  0  0  0  0  0  0  0  0
   -5.8410    3.6445  -38.5691 C   0  0  0  0  0  0  0  0  0  0  0  0
   -6.2776    5.9094  -38.0632 C   0  0  0  0  0  0  0  0  0  0  0  0
   -6.0918    5.7179  -36.5582 C   0  0  1  0  0  0  0  0  0  0  0  0
   -7.0061    6.6456  -35.7699 C   0  0  0  0  0  0  0  0  0  0  0  0
   -6.9728    3.8840  -35.2396 O   0  0  0  0  0  0  0  0  0  0  0  0
   -5.4511    5.0003  -38.7954 O   0  0  0  0  0  0  0  0  0  0  0  0
   -6.4785    6.8006  -34.4641 O   0  0  0  0  0  0  0  0  0  0  0  0
   -4.5582    3.2965  -36.8602 H   0  0  0  0  0  0  0  0  0  0  0  0
   -5.9994    2.2515  -36.9247 H   0  0  0  0  0  0  0  0  0  0  0  0
   -5.2302    3.0087  -39.2177 H   0  0  0  0  0  0  0  0  0  0  0  0
   -6.8886    3.5130  -38.8660 H   0  0  0  0  0  0  0  0  0  0  0  0
   -7.3229    5.7715  -38.3672 H   0  0  0  0  0  0  0  0  0  0  0  0
   -5.9828    6.9240  -38.3519 H   0  0  0  0  0  0  0  0  0  0  0  0
   -5.0478    5.9232  -36.2905 H   0  0  0  0  0  0  0  0  0  0  0  0
   -8.0075    6.2175  -35.7032 H   0  0  0  0  0  0  0  0  0  0  0  0
   -7.0576    7.6221  -36.2539 H   0  0  0  0  0  0  0  0  0  0  0  0
   -7.0789    7.3953  -33.9834 H   0  0  0  0  0  0  0  0  0  0  0  0
  1  2  1  0  0  0  0
  1  5  1  0  0  0  0
  1  7  2  0  0  0  0
  2  3  1  0  0  0  0
  3  8  1  0  0  0  0
  4  5  1  0  0  0  0
  4  8  1  0  0  0  0
  5  6  1  0  0  0  0
  6  9  1  0  0  0  0
  2 10  1  0  0  0  0
  2 11  1  0  0  0  0
  3 12  1  0  0  0  0
  3 13  1  0  0  0  0
  4 14  1  0  0  0  0
  4 15  1  0  0  0  0
  5 16  1  0  0  0  0
  6 17  1  0  0  0  0
  6 18  1  0  0  0  0
  9 19  1  0  0  0  0
M  END
> <id>
EN300-1212481

> <smiles>
OCC1COCCC1=O

> <IUPAC Name>
3-(hydroxymethyl)oxan-4-one

> <CAS>
2167017-49-2

> <URL>
https://www.enaminestore.com/catalog/EN300-1212481

> <ROCS_ShapeQuery>
hit0

> <ROCS_TanimotoCombo>
1.022 

> <ROCS_ShapeTanimoto>
0.494 

> <ROCS_ColorTanimoto>
0.528 

> <ROCS_RefTversky>
1.311 

> <ROCS_RefColorTversky>
0.639 

> <ROCS_RefTverskyCombo>
1.950 

> <ROCS_FitTversky>
0.442 

> <ROCS_FitColorTversky>
0.753 

> <ROCS_FitTverskyCombo>
1.195 

> <ROCS_ColorScore>
-3.803

> <ROCS_Overlap>
159.652

> <ROCS_Rank>
224                 

$$$$
untitled-dbase-26480_0
  -OEChem-06232314393D

 17 17  0     0  0  0  0  0  0999 V2000
   -5.9652    5.9829  -36.5953 C   0  0  0  0  0  0  0  0  0  0  0  0
   -6.4799    3.6735  -36.8372 C   0  0  0  0  0  0  0  0  0  0  0  0
   -5.9869    4.8435  -37.3920 C   0  0  0  0  0  0  0  0  0  0  0  0
   -6.4306    5.9183  -35.2867 C   0  0  0  0  0  0  0  0  0  0  0  0
   -6.9039    4.7002  -34.8262 C   0  0  0  0  0  0  0  0  0  0  0  0
   -7.5694    7.8647  -34.5312 C   0  0  0  0  0  0  0  0  0  0  0  0
   -6.9406    3.5721  -35.5703 N   0  0  0  0  0  0  0  0  0  0  0  0
   -5.5239    4.8788  -38.7175 N   0  0  0  0  0  0  0  0  0  0  0  0
   -6.4115    7.0289  -34.5058 O   0  0  0  0  0  0  0  0  0  0  0  0
   -7.5046    4.5028  -33.2276 Cl  0  0  0  0  0  0  0  0  0  0  0  0
   -5.5868    6.9228  -36.9905 H   0  0  0  0  0  0  0  0  0  0  0  0
   -6.5229    2.7515  -37.4095 H   0  0  0  0  0  0  0  0  0  0  0  0
   -7.4201    8.7158  -33.8624 H   0  0  0  0  0  0  0  0  0  0  0  0
   -8.4428    7.2884  -34.2157 H   0  0  0  0  0  0  0  0  0  0  0  0
   -7.7235    8.2275  -35.5502 H   0  0  0  0  0  0  0  0  0  0  0  0
   -5.5057    4.0335  -39.2569 H   0  0  0  0  0  0  0  0  0  0  0  0
   -5.1288    5.7264  -39.0799 H   0  0  0  0  0  0  0  0  0  0  0  0
  1  3  1  0  0  0  0
  1  4  2  0  0  0  0
  2  3  2  0  0  0  0
  2  7  1  0  0  0  0
  3  8  1  0  0  0  0
  4  5  1  0  0  0  0
  4  9  1  0  0  0  0
  5  7  2  0  0  0  0
  5 10  1  0  0  0  0
  6  9  1  0  0  0  0
  1 11  1  0  0  0  0
  2 12  1  0  0  0  0
  6 13  1  0  0  0  0
  6 14  1  0  0  0  0
  6 15  1  0  0  0  0
  8 16  1  0  0  0  0
  8 17  1  0  0  0  0
M  END
> <id>
EN300-92097

> <smiles>
COC=1C=C(N)C=NC1Cl

> <MDLNUMBER>
MFCD09952112

> <IUPAC Name>
6-chloro-5-methoxypyridin-3-amine

> <CAS>
75711-01-2

> <URL>
https://www.enaminestore.com/catalog/EN300-92097

> <ROCS_ShapeQuery>
hit0

> <ROCS_TanimotoCombo>
1.022 

> <ROCS_ShapeTanimoto>
0.479 

> <ROCS_ColorTanimoto>
0.543 

> <ROCS_RefTversky>
1.394 

> <ROCS_RefColorTversky>
0.650 

> <ROCS_RefTverskyCombo>
2.044 

> <ROCS_FitTversky>
0.422 

> <ROCS_FitColorTversky>
0.766 

> <ROCS_FitTverskyCombo>
1.188 

> <ROCS_ColorScore>
-3.870

> <ROCS_Overlap>
173.329

> <ROCS_Rank>
225                 

$$$$
untitled-dbase-152544_1
  -OEChem-06232314393D

 15 15  0     0  0  0  0  0  0999 V2000
   -6.3601    4.4871  -36.5640 C   0  0  0  0  0  0  0  0  0  0  0  0
   -5.9978    5.8057  -36.6421 C   0  0  0  0  0  0  0  0  0  0  0  0
   -6.0513    3.9796  -37.8379 C   0  0  0  0  0  0  0  0  0  0  0  0
   -6.0497    6.8727  -35.7020 C   0  0  0  0  0  0  0  0  0  0  0  0
   -6.2292    2.6056  -38.3382 C   0  0  0  0  0  0  0  0  0  0  0  0
   -5.5368    4.9122  -38.6444 N   0  0  0  0  0  0  0  0  0  0  0  0
   -6.8887    3.8354  -35.5101 N   0  0  0  0  0  0  0  0  0  0  0  0
   -6.4808    6.7617  -34.5324 O   0  0  0  0  0  0  0  0  0  0  0  0
   -5.5050    6.0716  -37.8788 O   0  0  0  0  0  0  0  0  0  0  0  0
   -5.6828    7.8907  -36.0155 H   0  0  0  0  0  0  0  0  0  0  0  0
   -7.2229    2.4730  -38.7991 H   0  0  0  0  0  0  0  0  0  0  0  0
   -5.4723    2.3368  -39.0963 H   0  0  0  0  0  0  0  0  0  0  0  0
   -6.1322    1.8537  -37.5347 H   0  0  0  0  0  0  0  0  0  0  0  0
   -7.1748    2.8449  -35.5617 H   0  0  0  0  0  0  0  0  0  0  0  0
   -7.1227    4.3152  -34.6266 H   0  0  0  0  0  0  0  0  0  0  0  0
  1  2  2  0  0  0  0
  1  3  1  0  0  0  0
  1  7  1  0  0  0  0
  2  4  1  0  0  0  0
  2  9  1  0  0  0  0
  3  5  1  0  0  0  0
  3  6  2  0  0  0  0
  4  8  2  0  0  0  0
  6  9  1  0  0  0  0
  4 10  1  0  0  0  0
  5 11  1  0  0  0  0
  5 12  1  0  0  0  0
  5 13  1  0  0  0  0
  7 14  1  0  0  0  0
  7 15  1  0  0  0  0
M  END
> <id>
EN300-27753129

> <smiles>
CC1=NOC(C=O)=C1N

> <IUPAC Name>
4-amino-3-methyl-1,2-oxazole-5-carbaldehyde

> <CAS>
2680882-30-6

> <URL>
https://www.enaminestore.com/catalog/EN300-27753129

> <ROCS_ShapeQuery>
hit0

> <ROCS_TanimotoCombo>
1.021 

> <ROCS_ShapeTanimoto>
0.472 

> <ROCS_ColorTanimoto>
0.549 

> <ROCS_RefTversky>
1.318 

> <ROCS_RefColorTversky>
0.656 

> <ROCS_RefTverskyCombo>
1.974 

> <ROCS_FitTversky>
0.424 

> <ROCS_FitColorTversky>
0.772 

> <ROCS_FitTverskyCombo>
1.196 

> <ROCS_ColorScore>
-3.901

> <ROCS_Overlap>
161.975

> <ROCS_Rank>
226                 

$$$$
untitled-dbase-26437_4
  -OEChem-06232314393D

 11 10  0     0  0  0  0  0  0999 V2000
   -6.6965    5.0103  -35.7752 C   0  0  0  0  0  0  0  0  0  0  0  0
   -5.7429    5.4824  -36.8405 C   0  0  0  0  0  0  0  0  0  0  0  0
   -7.4183    6.0889  -34.9957 C   0  0  0  0  0  0  0  0  0  0  0  0
   -6.8714    3.8120  -35.5596 O   0  0  0  0  0  0  0  0  0  0  0  0
   -6.4954    6.9296  -34.3361 O   0  0  0  0  0  0  0  0  0  0  0  0
   -4.7450    5.6111  -36.4119 H   0  0  0  0  0  0  0  0  0  0  0  0
   -5.6908    4.7398  -37.6404 H   0  0  0  0  0  0  0  0  0  0  0  0
   -6.0834    6.4418  -37.2376 H   0  0  0  0  0  0  0  0  0  0  0  0
   -8.0791    5.6305  -34.2549 H   0  0  0  0  0  0  0  0  0  0  0  0
   -8.0058    6.6967  -35.6888 H   0  0  0  0  0  0  0  0  0  0  0  0
   -5.9773    6.3712  -33.7297 H   0  0  0  0  0  0  0  0  0  0  0  0
  1  2  1  0  0  0  0
  1  3  1  0  0  0  0
  1  4  2  0  0  0  0
  3  5  1  0  0  0  0
  2  6  1  0  0  0  0
  2  7  1  0  0  0  0
  2  8  1  0  0  0  0
  3  9  1  0  0  0  0
  3 10  1  0  0  0  0
  5 11  1  0  0  0  0
M  END
> <id>
EN300-20541

> <smiles>
CC(=O)CO

> <MDLNUMBER>
MFCD00004669

> <IUPAC Name>
1-hydroxypropan-2-one

> <CAS>
116-09-6

> <Purity>
95

> <URL>
https://www.enaminestore.com/catalog/EN300-20541

> <ROCS_ShapeQuery>
hit0

> <ROCS_TanimotoCombo>
1.021 

> <ROCS_ShapeTanimoto>
0.522 

> <ROCS_ColorTanimoto>
0.500 

> <ROCS_RefTversky>
0.894 

> <ROCS_RefColorTversky>
0.513 

> <ROCS_RefTverskyCombo>
1.407 

> <ROCS_FitTversky>
0.556 

> <ROCS_FitColorTversky>
0.952 

> <ROCS_FitTverskyCombo>
1.507 

> <ROCS_ColorScore>
-2.999

> <ROCS_Overlap>
100.410

> <ROCS_Rank>
227                 

$$$$
untitled-dbase-151621_1
  -OEChem-06232314393D

 16 16  0     0  0  0  0  0  0999 V2000
   -6.0565    3.9707  -37.8336 C   0  0  0  0  0  0  0  0  0  0  0  0
   -6.3520    4.5124  -36.5683 C   0  0  0  0  0  0  0  0  0  0  0  0
   -5.9787    5.8307  -36.6635 C   0  0  0  0  0  0  0  0  0  0  0  0
   -6.0531    6.8629  -35.6765 C   0  0  0  0  0  0  0  0  0  0  0  0
   -4.9844    7.2082  -38.5149 C   0  0  0  0  0  0  0  0  0  0  0  0
   -5.5357    4.8713  -38.6713 N   0  0  0  0  0  0  0  0  0  0  0  0
   -5.5012    5.9923  -37.9308 N   0  0  0  0  0  0  0  0  0  0  0  0
   -6.8815    3.8750  -35.5054 N   0  0  0  0  0  0  0  0  0  0  0  0
   -6.4958    6.6945  -34.5224 O   0  0  0  0  0  0  0  0  0  0  0  0
   -6.1978    2.9576  -38.1840 H   0  0  0  0  0  0  0  0  0  0  0  0
   -5.6934    7.8915  -35.9488 H   0  0  0  0  0  0  0  0  0  0  0  0
   -3.9087    7.2438  -38.3231 H   0  0  0  0  0  0  0  0  0  0  0  0
   -5.1811    7.2076  -39.5906 H   0  0  0  0  0  0  0  0  0  0  0  0
   -5.4836    8.0682  -38.0600 H   0  0  0  0  0  0  0  0  0  0  0  0
   -7.1741    2.8862  -35.5460 H   0  0  0  0  0  0  0  0  0  0  0  0
   -7.1091    4.3660  -34.6266 H   0  0  0  0  0  0  0  0  0  0  0  0
  1  2  1  0  0  0  0
  1  6  2  0  0  0  0
  2  3  2  0  0  0  0
  2  8  1  0  0  0  0
  3  4  1  0  0  0  0
  3  7  1  0  0  0  0
  4  9  2  0  0  0  0
  5  7  1  0  0  0  0
  6  7  1  0  0  0  0
  1 10  1  0  0  0  0
  4 11  1  0  0  0  0
  5 12  1  0  0  0  0
  5 13  1  0  0  0  0
  5 14  1  0  0  0  0
  8 15  1  0  0  0  0
  8 16  1  0  0  0  0
M  END
> <id>
EN300-6964314

> <smiles>
CN1N=CC(N)=C1C=O

> <MDLNUMBER>
MFCD32735589

> <IUPAC Name>
4-amino-1-methyl-1H-pyrazole-5-carbaldehyde

> <CAS>
1519723-84-2

> <URL>
https://www.enaminestore.com/catalog/EN300-6964314

> <ROCS_ShapeQuery>
hit0

> <ROCS_TanimotoCombo>
1.021 

> <ROCS_ShapeTanimoto>
0.474 

> <ROCS_ColorTanimoto>
0.546 

> <ROCS_RefTversky>
1.329 

> <ROCS_RefColorTversky>
0.653 

> <ROCS_RefTverskyCombo>
1.982 

> <ROCS_FitTversky>
0.424 

> <ROCS_FitColorTversky>
0.770 

> <ROCS_FitTverskyCombo>
1.194 

> <ROCS_ColorScore>
-3.887

> <ROCS_Overlap>
163.516

> <ROCS_Rank>
228                 

$$$$
untitled-dbase-177369_1
  -OEChem-06232314393D

 13 13  0     0  0  0  0  0  0999 V2000
   -6.7381    6.4078  -35.7495 C   0  0  0  0  0  0  0  0  0  0  0  0
   -5.0607    4.9297  -37.1077 C   0  0  0  0  0  0  0  0  0  0  0  0
   -6.9636    4.9467  -37.9087 C   0  0  0  0  0  0  0  0  0  0  0  0
   -6.4529    5.0613  -36.4589 C   0  0  0  0  0  0  0  0  0  0  0  0
   -6.4915    6.6139  -34.5659 O   0  0  0  0  0  0  0  0  0  0  0  0
   -5.6237    4.8341  -38.4332 O   0  0  0  0  0  0  0  0  0  0  0  0
   -6.8235    3.9571  -35.6018 O   0  0  0  0  0  0  0  0  0  0  0  0
   -7.1874    7.1931  -36.3806 H   0  0  0  0  0  0  0  0  0  0  0  0
   -4.4044    5.8002  -37.0131 H   0  0  0  0  0  0  0  0  0  0  0  0
   -4.5003    4.0268  -36.8460 H   0  0  0  0  0  0  0  0  0  0  0  0
   -7.5582    4.0560  -38.1340 H   0  0  0  0  0  0  0  0  0  0  0  0
   -7.4757    5.8289  -38.3051 H   0  0  0  0  0  0  0  0  0  0  0  0
   -6.2818    4.0552  -34.8104 H   0  0  0  0  0  0  0  0  0  0  0  0
  1  4  1  0  0  0  0
  1  5  2  0  0  0  0
  2  4  1  0  0  0  0
  2  6  1  0  0  0  0
  3  4  1  0  0  0  0
  3  6  1  0  0  0  0
  4  7  1  0  0  0  0
  1  8  1  0  0  0  0
  2  9  1  0  0  0  0
  2 10  1  0  0  0  0
  3 11  1  0  0  0  0
  3 12  1  0  0  0  0
  7 13  1  0  0  0  0
M  END
> <id>
EN300-640652

> <smiles>
OC1(COC1)C=O

> <MDLNUMBER>
MFCD32809607

> <IUPAC Name>
3-hydroxyoxetane-3-carbaldehyde

> <URL>
https://www.enaminestore.com/catalog/EN300-640652

> <ROCS_ShapeQuery>
hit0

> <ROCS_TanimotoCombo>
1.020 

> <ROCS_ShapeTanimoto>
0.520 

> <ROCS_ColorTanimoto>
0.500 

> <ROCS_RefTversky>
1.155 

> <ROCS_RefColorTversky>
0.616 

> <ROCS_RefTverskyCombo>
1.772 

> <ROCS_FitTversky>
0.486 

> <ROCS_FitColorTversky>
0.726 

> <ROCS_FitTverskyCombo>
1.212 

> <ROCS_ColorScore>
-3.668

> <ROCS_Overlap>
135.651

> <ROCS_Rank>
229                 

$$$$
untitled-dbase-96751_6
  -OEChem-06232314393D

 18 18  0     0  0  0  0  0  0999 V2000
   -5.9849    7.9049  -35.8089 C   0  0  0  0  0  0  0  0  0  0  0  0
   -5.3576    6.9959  -36.6607 C   0  0  0  0  0  0  0  0  0  0  0  0
   -6.9118    7.4545  -34.8688 C   0  0  0  0  0  0  0  0  0  0  0  0
   -5.6573    5.6364  -36.5727 C   0  0  0  0  0  0  0  0  0  0  0  0
   -6.5842    5.1860  -35.6326 C   0  0  0  0  0  0  0  0  0  0  0  0
   -7.2115    6.0951  -34.7807 C   0  0  0  0  0  0  0  0  0  0  0  0
   -4.9688    4.6885  -37.5005 C   0  0  0  0  0  0  0  0  0  0  0  0
   -6.8793    3.8041  -35.5530 N   0  0  0  0  0  0  0  0  0  0  0  0
   -5.5347    4.8082  -38.7987 O   0  0  0  0  0  0  0  0  0  0  0  0
   -8.3665    5.5825  -33.6021 Cl  0  0  0  0  0  0  0  0  0  0  0  0
   -5.7512    8.9633  -35.8780 H   0  0  0  0  0  0  0  0  0  0  0  0
   -4.6370    7.3573  -37.3898 H   0  0  0  0  0  0  0  0  0  0  0  0
   -7.3916    8.1766  -34.2127 H   0  0  0  0  0  0  0  0  0  0  0  0
   -3.8942    4.9027  -37.5627 H   0  0  0  0  0  0  0  0  0  0  0  0
   -5.0808    3.6517  -37.1585 H   0  0  0  0  0  0  0  0  0  0  0  0
   -6.4525    3.1808  -36.2045 H   0  0  0  0  0  0  0  0  0  0  0  0
   -7.5776    3.4958  -34.9107 H   0  0  0  0  0  0  0  0  0  0  0  0
   -5.0631    4.1798  -39.3690 H   0  0  0  0  0  0  0  0  0  0  0  0
  1  2  1  0  0  0  0
  1  3  2  0  0  0  0
  2  4  2  0  0  0  0
  3  6  1  0  0  0  0
  4  5  1  0  0  0  0
  4  7  1  0  0  0  0
  5  6  2  0  0  0  0
  5  8  1  0  0  0  0
  6 10  1  0  0  0  0
  7  9  1  0  0  0  0
  1 11  1  0  0  0  0
  2 12  1  0  0  0  0
  3 13  1  0  0  0  0
  7 14  1  0  0  0  0
  7 15  1  0  0  0  0
  8 16  1  0  0  0  0
  8 17  1  0  0  0  0
  9 18  1  0  0  0  0
M  END
> <id>
EN300-122186

> <smiles>
NC=1C(Cl)=CC=CC1CO

> <MDLNUMBER>
MFCD13193432

> <IUPAC Name>
(2-amino-3-chlorophenyl)methanol

> <CAS>
61487-25-0

> <Purity>
95

> <URL>
https://www.enaminestore.com/catalog/EN300-122186

> <ROCS_ShapeQuery>
hit0

> <ROCS_TanimotoCombo>
1.020 

> <ROCS_ShapeTanimoto>
0.449 

> <ROCS_ColorTanimoto>
0.571 

> <ROCS_RefTversky>
1.319 

> <ROCS_RefColorTversky>
0.672 

> <ROCS_RefTverskyCombo>
1.991 

> <ROCS_FitTversky>
0.405 

> <ROCS_FitColorTversky>
0.792 

> <ROCS_FitTverskyCombo>
1.197 

> <ROCS_ColorScore>
-3.999

> <ROCS_Overlap>
163.517

> <ROCS_Rank>
230                 

$$$$
untitled-dbase-14263_1
  -OEChem-06232314393D

 16 16  0     0  0  0  0  0  0999 V2000
   -5.4800    6.0165  -37.9825 C   0  0  0  0  0  0  0  0  0  0  0  0
   -5.9614    5.9062  -36.6642 C   0  0  0  0  0  0  0  0  0  0  0  0
   -6.3395    4.5911  -36.5457 C   0  0  0  0  0  0  0  0  0  0  0  0
   -6.0532    6.9129  -35.6500 C   0  0  0  0  0  0  0  0  0  0  0  0
   -6.2978    2.6404  -38.1353 C   0  0  0  0  0  0  0  0  0  0  0  0
   -5.5451    4.8634  -38.6534 N   0  0  0  0  0  0  0  0  0  0  0  0
   -6.0718    4.0160  -37.7531 N   0  0  0  0  0  0  0  0  0  0  0  0
   -6.8722    3.8832  -35.5271 N   0  0  0  0  0  0  0  0  0  0  0  0
   -6.4998    6.7083  -34.5044 O   0  0  0  0  0  0  0  0  0  0  0  0
   -5.0836    6.8872  -38.4851 H   0  0  0  0  0  0  0  0  0  0  0  0
   -5.7041    7.9509  -35.8950 H   0  0  0  0  0  0  0  0  0  0  0  0
   -7.3048    2.5679  -38.5545 H   0  0  0  0  0  0  0  0  0  0  0  0
   -5.5523    2.3415  -38.8775 H   0  0  0  0  0  0  0  0  0  0  0  0
   -6.2024    2.0001  -37.2539 H   0  0  0  0  0  0  0  0  0  0  0  0
   -7.1426    2.8938  -35.6294 H   0  0  0  0  0  0  0  0  0  0  0  0
   -7.1220    4.3203  -34.6276 H   0  0  0  0  0  0  0  0  0  0  0  0
  1  2  1  0  0  0  0
  1  6  2  0  0  0  0
  2  3  2  0  0  0  0
  2  4  1  0  0  0  0
  3  7  1  0  0  0  0
  3  8  1  0  0  0  0
  4  9  2  0  0  0  0
  5  7  1  0  0  0  0
  6  7  1  0  0  0  0
  1 10  1  0  0  0  0
  4 11  1  0  0  0  0
  5 12  1  0  0  0  0
  5 13  1  0  0  0  0
  5 14  1  0  0  0  0
  8 15  1  0  0  0  0
  8 16  1  0  0  0  0
M  END
> <id>
EN300-223461

> <smiles>
CN1N=CC(C=O)=C1N

> <MDLNUMBER>
MFCD08690324

> <IUPAC Name>
5-amino-1-methyl-1H-pyrazole-4-carbaldehyde

> <CAS>
62564-90-3

> <Purity>
95

> <URL>
https://www.enaminestore.com/catalog/EN300-223461

> <MP>
156-158

> <ROCS_ShapeQuery>
hit0

> <ROCS_TanimotoCombo>
1.020 

> <ROCS_ShapeTanimoto>
0.472 

> <ROCS_ColorTanimoto>
0.548 

> <ROCS_RefTversky>
1.322 

> <ROCS_RefColorTversky>
0.654 

> <ROCS_RefTverskyCombo>
1.977 

> <ROCS_FitTversky>
0.423 

> <ROCS_FitColorTversky>
0.771 

> <ROCS_FitTverskyCombo>
1.194 

> <ROCS_ColorScore>
-3.893

> <ROCS_Overlap>
162.585

> <ROCS_Rank>
231                 

$$$$
untitled-dbase-12308_1
  -OEChem-06232314393D

 16 15  0     1  0  0  0  0  0999 V2000
   -5.7354    5.0485  -37.5590 C   0  0  0  0  0  0  0  0  0  0  0  0
   -7.0996    4.3099  -35.6566 C   0  0  0  0  0  0  0  0  0  0  0  0
   -7.5789    7.2221  -36.5054 C   0  0  0  0  0  0  0  0  0  0  0  0
   -5.9850    5.2529  -36.1177 C   0  0  2  0  0  0  0  0  0  0  0  0
   -6.3268    6.7208  -35.7919 C   0  0  2  0  0  0  0  0  0  0  0  0
   -5.5386    4.8861  -38.6911 N   0  0  0  0  0  0  0  0  0  0  0  0
   -6.4890    6.8878  -34.3848 O   0  0  0  0  0  0  0  0  0  0  0  0
   -8.0382    4.5347  -36.1742 H   0  0  0  0  0  0  0  0  0  0  0  0
   -7.2782    4.4155  -34.5803 H   0  0  0  0  0  0  0  0  0  0  0  0
   -6.8496    3.2596  -35.8448 H   0  0  0  0  0  0  0  0  0  0  0  0
   -8.4596    6.6277  -36.2400 H   0  0  0  0  0  0  0  0  0  0  0  0
   -7.4515    7.2049  -37.5920 H   0  0  0  0  0  0  0  0  0  0  0  0
   -7.8004    8.2508  -36.2004 H   0  0  0  0  0  0  0  0  0  0  0  0
   -5.0722    4.9847  -35.5702 H   0  0  0  0  0  0  0  0  0  0  0  0
   -5.4814    7.3508  -36.0949 H   0  0  0  0  0  0  0  0  0  0  0  0
   -6.6197    7.8364  -34.2336 H   0  0  0  0  0  0  0  0  0  0  0  0
  1  4  1  0  0  0  0
  1  6  3  0  0  0  0
  2  4  1  0  0  0  0
  3  5  1  0  0  0  0
  4  5  1  0  0  0  0
  5  7  1  0  0  0  0
  2  8  1  0  0  0  0
  2  9  1  0  0  0  0
  2 10  1  0  0  0  0
  3 11  1  0  0  0  0
  3 12  1  0  0  0  0
  3 13  1  0  0  0  0
  4 14  1  0  0  0  0
  5 15  1  0  0  0  0
  7 16  1  0  0  0  0
M  END
> <id>
EN300-203925

> <smiles>
CC(O)C(C)C#N

> <MDLNUMBER>
MFCD21802630

> <IUPAC Name>
3-hydroxy-2-methylbutanenitrile

> <CAS>
38046-46-7

> <Purity>
95

> <URL>
https://www.enaminestore.com/catalog/EN300-203925

> <ROCS_ShapeQuery>
hit0

> <ROCS_TanimotoCombo>
1.020 

> <ROCS_ShapeTanimoto>
0.596 

> <ROCS_ColorTanimoto>
0.423 

> <ROCS_RefTversky>
1.200 

> <ROCS_RefColorTversky>
0.504 

> <ROCS_RefTverskyCombo>
1.704 

> <ROCS_FitTversky>
0.542 

> <ROCS_FitColorTversky>
0.726 

> <ROCS_FitTverskyCombo>
1.268 

> <ROCS_ColorScore>
-2.975

> <ROCS_Overlap>
139.575

> <ROCS_Rank>
232                 

$$$$
untitled-dbase-148057_2
  -OEChem-06232314393D

 21 21  0     0  0  0  0  0  0999 V2000
   -5.9712    3.9002  -37.7721 C   0  0  0  0  0  0  0  0  0  0  0  0
   -6.2339    5.8823  -36.7366 C   0  0  0  0  0  0  0  0  0  0  0  0
   -6.3963    4.4818  -36.5980 C   0  0  0  0  0  0  0  0  0  0  0  0
   -5.7148    6.1140  -37.9913 C   0  0  0  0  0  0  0  0  0  0  0  0
   -6.5384    6.9088  -35.7788 C   0  0  0  0  0  0  0  0  0  0  0  0
   -5.3459    7.3688  -38.6758 C   0  0  0  0  0  0  0  0  0  0  0  0
   -7.2196    9.1965  -35.5277 C   0  0  0  0  0  0  0  0  0  0  0  0
   -5.5595    4.9020  -38.6118 N   0  0  0  0  0  0  0  0  0  0  0  0
   -6.8762    3.8227  -35.5221 N   0  0  0  0  0  0  0  0  0  0  0  0
   -6.4932    6.7702  -34.5390 O   0  0  0  0  0  0  0  0  0  0  0  0
   -6.8934    8.0933  -36.3797 O   0  0  0  0  0  0  0  0  0  0  0  0
   -5.9232    2.8671  -38.0874 H   0  0  0  0  0  0  0  0  0  0  0  0
   -4.2942    7.6341  -38.4792 H   0  0  0  0  0  0  0  0  0  0  0  0
   -5.4747    7.2969  -39.7692 H   0  0  0  0  0  0  0  0  0  0  0  0
   -5.9722    8.2170  -38.3504 H   0  0  0  0  0  0  0  0  0  0  0  0
   -7.4803   10.0646  -36.1380 H   0  0  0  0  0  0  0  0  0  0  0  0
   -6.3641    9.4304  -34.8891 H   0  0  0  0  0  0  0  0  0  0  0  0
   -8.0737    8.9231  -34.9035 H   0  0  0  0  0  0  0  0  0  0  0  0
   -5.1950    4.7644  -39.5446 H   0  0  0  0  0  0  0  0  0  0  0  0
   -7.1357    4.3098  -34.6515 H   0  0  0  0  0  0  0  0  0  0  0  0
   -6.9182    2.7935  -35.4836 H   0  0  0  0  0  0  0  0  0  0  0  0
  1  3  2  0  0  0  0
  1  8  1  0  0  0  0
  2  3  1  0  0  0  0
  2  4  2  0  0  0  0
  2  5  1  0  0  0  0
  3  9  1  0  0  0  0
  4  6  1  0  0  0  0
  4  8  1  0  0  0  0
  5 10  2  0  0  0  0
  5 11  1  0  0  0  0
  7 11  1  0  0  0  0
  1 12  1  0  0  0  0
  6 13  1  0  0  0  0
  6 14  1  0  0  0  0
  6 15  1  0  0  0  0
  7 16  1  0  0  0  0
  7 17  1  0  0  0  0
  7 18  1  0  0  0  0
  8 19  1  0  0  0  0
  9 20  1  0  0  0  0
  9 21  1  0  0  0  0
M  END
> <id>
EN300-6772746

> <smiles>
COC(=O)C1=C(C)NC=C1N

> <MDLNUMBER>
MFCD09953573

> <IUPAC Name>
methyl 4-amino-2-methyl-1H-pyrrole-3-carboxylate

> <CAS>
116539-04-9

> <URL>
https://www.enaminestore.com/catalog/EN300-6772746

> <ROCS_ShapeQuery>
hit0

> <ROCS_TanimotoCombo>
1.019 

> <ROCS_ShapeTanimoto>
0.472 

> <ROCS_ColorTanimoto>
0.548 

> <ROCS_RefTversky>
1.498 

> <ROCS_RefColorTversky>
0.654 

> <ROCS_RefTverskyCombo>
2.152 

> <ROCS_FitTversky>
0.408 

> <ROCS_FitColorTversky>
0.771 

> <ROCS_FitTverskyCombo>
1.179 

> <ROCS_ColorScore>
-3.893

> <ROCS_Overlap>
190.762

> <ROCS_Rank>
233                 

$$$$
untitled-dbase-1198_3
  -OEChem-06232314393D

 18 18  0     0  0  0  0  0  0999 V2000
   -6.3915    5.7781  -36.6983 C   0  0  0  0  0  0  0  0  0  0  0  0
   -5.8191    6.0630  -37.9710 C   0  0  0  0  0  0  0  0  0  0  0  0
   -6.4690    4.4154  -36.5085 C   0  0  0  0  0  0  0  0  0  0  0  0
   -6.8348    6.7456  -35.7287 C   0  0  0  0  0  0  0  0  0  0  0  0
   -5.5805    7.4163  -38.5185 C   0  0  0  0  0  0  0  0  0  0  0  0
   -7.9223    7.7080  -36.1349 C   0  0  0  0  0  0  0  0  0  0  0  0
   -5.4705    5.0255  -38.7282 N   0  0  0  0  0  0  0  0  0  0  0  0
   -6.9477    3.7329  -35.4406 N   0  0  0  0  0  0  0  0  0  0  0  0
   -6.3936    6.8641  -34.5745 O   0  0  0  0  0  0  0  0  0  0  0  0
   -5.8377    3.6345  -37.8961 S   0  0  0  0  0  0  0  0  0  0  0  0
   -4.5797    7.7826  -38.2415 H   0  0  0  0  0  0  0  0  0  0  0  0
   -5.6541    7.4332  -39.6181 H   0  0  0  0  0  0  0  0  0  0  0  0
   -6.3210    8.1448  -38.1496 H   0  0  0  0  0  0  0  0  0  0  0  0
   -8.9389    7.3397  -35.9244 H   0  0  0  0  0  0  0  0  0  0  0  0
   -7.8827    7.9765  -37.2019 H   0  0  0  0  0  0  0  0  0  0  0  0
   -7.8792    8.6763  -35.6051 H   0  0  0  0  0  0  0  0  0  0  0  0
   -7.2811    4.2122  -34.5942 H   0  0  0  0  0  0  0  0  0  0  0  0
   -6.9115    2.7065  -35.3912 H   0  0  0  0  0  0  0  0  0  0  0  0
  1  2  1  0  0  0  0
  1  3  2  0  0  0  0
  1  4  1  0  0  0  0
  2  5  1  0  0  0  0
  2  7  2  0  0  0  0
  3  8  1  0  0  0  0
  3 10  1  0  0  0  0
  4  6  1  0  0  0  0
  4  9  2  0  0  0  0
  7 10  1  0  0  0  0
  5 11  1  0  0  0  0
  5 12  1  0  0  0  0
  5 13  1  0  0  0  0
  6 14  1  0  0  0  0
  6 15  1  0  0  0  0
  6 16  1  0  0  0  0
  8 17  1  0  0  0  0
  8 18  1  0  0  0  0
M  END
> <id>
EN300-15045

> <smiles>
CC(=O)C=1C(C)=NSC1N

> <MDLNUMBER>
MFCD07355844

> <IUPAC Name>
1-(5-amino-3-methyl-1,2-thiazol-4-yl)ethan-1-one

> <CAS>
871673-30-2

> <Purity>
95

> <URL>
https://www.enaminestore.com/catalog/EN300-15045

> <ROCS_ShapeQuery>
hit0

> <ROCS_TanimotoCombo>
1.019 

> <ROCS_ShapeTanimoto>
0.483 

> <ROCS_ColorTanimoto>
0.537 

> <ROCS_RefTversky>
1.381 

> <ROCS_RefColorTversky>
0.646 

> <ROCS_RefTverskyCombo>
2.026 

> <ROCS_FitTversky>
0.426 

> <ROCS_FitColorTversky>
0.761 

> <ROCS_FitTverskyCombo>
1.187 

> <ROCS_ColorScore>
-3.841

> <ROCS_Overlap>
171.032

> <ROCS_Rank>
234                 

$$$$
untitled-dbase-70084_4
  -OEChem-06232314393D

 17 17  0     0  0  0  0  0  0999 V2000
   -5.9810    7.8606  -35.7456 C   0  0  0  0  0  0  0  0  0  0  0  0
   -5.3552    6.9650  -36.6126 C   0  0  0  0  0  0  0  0  0  0  0  0
   -6.9097    7.3962  -34.8142 C   0  0  0  0  0  0  0  0  0  0  0  0
   -5.6582    5.6050  -36.5484 C   0  0  0  0  0  0  0  0  0  0  0  0
   -6.5870    5.1405  -35.6171 C   0  0  0  0  0  0  0  0  0  0  0  0
   -7.2127    6.0362  -34.7500 C   0  0  0  0  0  0  0  0  0  0  0  0
   -4.9775    4.6632  -37.4865 C   0  0  0  0  0  0  0  0  0  0  0  0
   -6.8765    3.8081  -35.5639 O   0  0  0  0  0  0  0  0  0  0  0  0
   -5.5421    4.8016  -38.7839 O   0  0  0  0  0  0  0  0  0  0  0  0
   -8.3660    5.4922  -33.5876 Cl  0  0  0  0  0  0  0  0  0  0  0  0
   -5.7452    8.9196  -35.7949 H   0  0  0  0  0  0  0  0  0  0  0  0
   -4.6335    7.3362  -37.3355 H   0  0  0  0  0  0  0  0  0  0  0  0
   -7.3897    8.1068  -34.1459 H   0  0  0  0  0  0  0  0  0  0  0  0
   -3.9008    4.8691  -37.5470 H   0  0  0  0  0  0  0  0  0  0  0  0
   -5.0971    3.6227  -37.1572 H   0  0  0  0  0  0  0  0  0  0  0  0
   -7.5343    3.6377  -34.8727 H   0  0  0  0  0  0  0  0  0  0  0  0
   -6.4855    4.5876  -38.7027 H   0  0  0  0  0  0  0  0  0  0  0  0
  1  2  1  0  0  0  0
  1  3  2  0  0  0  0
  2  4  2  0  0  0  0
  3  6  1  0  0  0  0
  4  5  1  0  0  0  0
  4  7  1  0  0  0  0
  5  6  2  0  0  0  0
  5  8  1  0  0  0  0
  6 10  1  0  0  0  0
  7  9  1  0  0  0  0
  1 11  1  0  0  0  0
  2 12  1  0  0  0  0
  3 13  1  0  0  0  0
  7 14  1  0  0  0  0
  7 15  1  0  0  0  0
  8 16  1  0  0  0  0
  9 17  1  0  0  0  0
M  END
> <id>
EN300-1967384

> <smiles>
OCC=1C=CC=C(Cl)C1O

> <MDLNUMBER>
MFCD18393155

> <IUPAC Name>
2-chloro-6-(hydroxymethyl)phenol

> <CAS>
22471-02-9

> <URL>
https://www.enaminestore.com/catalog/EN300-1967384

> <ROCS_ShapeQuery>
hit0

> <ROCS_TanimotoCombo>
1.019 

> <ROCS_ShapeTanimoto>
0.448 

> <ROCS_ColorTanimoto>
0.571 

> <ROCS_RefTversky>
1.321 

> <ROCS_RefColorTversky>
0.672 

> <ROCS_RefTverskyCombo>
1.992 

> <ROCS_FitTversky>
0.404 

> <ROCS_FitColorTversky>
0.791 

> <ROCS_FitTverskyCombo>
1.196 

> <ROCS_ColorScore>
-3.997

> <ROCS_Overlap>
163.883

> <ROCS_Rank>
235                 

$$$$
untitled-dbase-60884_37
  -OEChem-06232314393D

 20 20  0     1  0  0  0  0  0999 V2000
   -6.0099    7.7941  -35.9134 C   0  0  0  0  0  0  0  0  0  0  0  0
   -6.8767    7.3840  -34.9005 C   0  0  0  0  0  0  0  0  0  0  0  0
   -5.4476    6.8516  -36.7743 C   0  0  0  0  0  0  0  0  0  0  0  0
   -7.1812    6.0313  -34.7484 C   0  0  0  0  0  0  0  0  0  0  0  0
   -5.7521    5.4989  -36.6222 C   0  0  0  0  0  0  0  0  0  0  0  0
   -6.6188    5.0887  -35.6093 C   0  0  0  0  0  0  0  0  0  0  0  0
   -5.6128    3.0731  -37.2938 C   0  0  0  0  0  0  0  0  0  0  0  0
   -5.1407    4.5041  -37.5525 C   0  0  1  0  0  0  0  0  0  0  0  0
   -6.9260    3.7713  -35.4465 O   0  0  0  0  0  0  0  0  0  0  0  0
   -5.4877    4.8484  -38.8982 O   0  0  0  0  0  0  0  0  0  0  0  0
   -5.7721    8.8474  -36.0320 H   0  0  0  0  0  0  0  0  0  0  0  0
   -7.3136    8.1180  -34.2299 H   0  0  0  0  0  0  0  0  0  0  0  0
   -4.7722    7.1812  -37.5594 H   0  0  0  0  0  0  0  0  0  0  0  0
   -7.8570    5.7178  -33.9574 H   0  0  0  0  0  0  0  0  0  0  0  0
   -6.7046    3.0041  -37.3344 H   0  0  0  0  0  0  0  0  0  0  0  0
   -5.2799    2.7138  -36.3135 H   0  0  0  0  0  0  0  0  0  0  0  0
   -5.1919    2.3845  -38.0347 H   0  0  0  0  0  0  0  0  0  0  0  0
   -4.0393    4.5152  -37.5000 H   0  0  0  0  0  0  0  0  0  0  0  0
   -7.5372    3.6594  -34.7016 H   0  0  0  0  0  0  0  0  0  0  0  0
   -6.4542    4.8231  -38.9424 H   0  0  0  0  0  0  0  0  0  0  0  0
  1  2  2  0  0  0  0
  1  3  1  0  0  0  0
  2  4  1  0  0  0  0
  3  5  2  0  0  0  0
  4  6  2  0  0  0  0
  5  6  1  0  0  0  0
  5  8  1  0  0  0  0
  6  9  1  0  0  0  0
  7  8  1  1  0  0  0
  8 10  1  0  0  0  0
  1 11  1  0  0  0  0
  2 12  1  0  0  0  0
  3 13  1  0  0  0  0
  4 14  1  0  0  0  0
  7 15  1  0  0  0  0
  7 16  1  0  0  0  0
  7 17  1  0  0  0  0
  8 18  1  0  0  0  0
  9 19  1  0  0  0  0
 10 20  1  0  0  0  0
M  END
> <id>
EN300-1836527

> <smiles>
C[C@@H](O)C=1C=CC=CC1O

> <MDLNUMBER>
MFCD18340145

> <IUPAC Name>
2-[(1R)-1-hydroxyethyl]phenol

> <CAS>
156713-08-5

> <Purity>
95

> <URL>
https://www.enaminestore.com/catalog/EN300-1836527

> <ROCS_ShapeQuery>
hit0

> <ROCS_TanimotoCombo>
1.017 

> <ROCS_ShapeTanimoto>
0.457 

> <ROCS_ColorTanimoto>
0.561 

> <ROCS_RefTversky>
1.357 

> <ROCS_RefColorTversky>
0.665 

> <ROCS_RefTverskyCombo>
2.022 

> <ROCS_FitTversky>
0.408 

> <ROCS_FitColorTversky>
0.782 

> <ROCS_FitTverskyCombo>
1.190 

> <ROCS_ColorScore>
-3.954

> <ROCS_Overlap>
169.027

> <ROCS_Rank>
236                 

$$$$
untitled-dbase-174660_8
  -OEChem-06232314393D

 18 18  0     0  0  0  0  0  0999 V2000
   -6.5821    8.1701  -37.6895 C   0  0  0  0  0  0  0  0  0  0  0  0
   -6.1700    7.1358  -38.5297 C   0  0  0  0  0  0  0  0  0  0  0  0
   -6.7256    7.9419  -36.3209 C   0  0  0  0  0  0  0  0  0  0  0  0
   -6.0449    5.6448  -36.6327 C   0  0  0  0  0  0  0  0  0  0  0  0
   -5.9014    5.8732  -38.0013 C   0  0  0  0  0  0  0  0  0  0  0  0
   -6.4571    6.6792  -35.7925 C   0  0  0  0  0  0  0  0  0  0  0  0
   -5.7533    4.2845  -36.0779 C   0  0  0  0  0  0  0  0  0  0  0  0
   -5.4853    4.8396  -38.8696 N   0  0  0  0  0  0  0  0  0  0  0  0
   -6.9233    3.7748  -35.4547 O   0  0  0  0  0  0  0  0  0  0  0  0
   -6.6490    6.4382  -34.0937 Cl  0  0  0  0  0  0  0  0  0  0  0  0
   -6.7921    9.1531  -38.1011 H   0  0  0  0  0  0  0  0  0  0  0  0
   -6.0625    7.3262  -39.5946 H   0  0  0  0  0  0  0  0  0  0  0  0
   -7.0481    8.7588  -35.6798 H   0  0  0  0  0  0  0  0  0  0  0  0
   -5.4431    3.5934  -36.8703 H   0  0  0  0  0  0  0  0  0  0  0  0
   -4.9453    4.3295  -35.3383 H   0  0  0  0  0  0  0  0  0  0  0  0
   -5.4369    5.0197  -39.8509 H   0  0  0  0  0  0  0  0  0  0  0  0
   -5.3385    3.9237  -38.4988 H   0  0  0  0  0  0  0  0  0  0  0  0
   -6.6974    2.8960  -35.1085 H   0  0  0  0  0  0  0  0  0  0  0  0
  1  2  1  0  0  0  0
  1  3  2  0  0  0  0
  2  5  2  0  0  0  0
  3  6  1  0  0  0  0
  4  5  1  0  0  0  0
  4  6  2  0  0  0  0
  4  7  1  0  0  0  0
  5  8  1  0  0  0  0
  6 10  1  0  0  0  0
  7  9  1  0  0  0  0
  1 11  1  0  0  0  0
  2 12  1  0  0  0  0
  3 13  1  0  0  0  0
  7 14  1  0  0  0  0
  7 15  1  0  0  0  0
  8 16  1  0  0  0  0
  8 17  1  0  0  0  0
  9 18  1  0  0  0  0
M  END
> <id>
EN300-100892

> <smiles>
NC=1C=CC=C(Cl)C1CO

> <MDLNUMBER>
MFCD09029932

> <IUPAC Name>
(2-amino-6-chlorophenyl)methanol

> <CAS>
39885-08-0

> <Purity>
95

> <URL>
https://www.enaminestore.com/catalog/EN300-100892

> <ROCS_ShapeQuery>
hit0

> <ROCS_TanimotoCombo>
1.017 

> <ROCS_ShapeTanimoto>
0.453 

> <ROCS_ColorTanimoto>
0.564 

> <ROCS_RefTversky>
1.326 

> <ROCS_RefColorTversky>
0.667 

> <ROCS_RefTverskyCombo>
1.993 

> <ROCS_FitTversky>
0.407 

> <ROCS_FitColorTversky>
0.786 

> <ROCS_FitTverskyCombo>
1.193 

> <ROCS_ColorScore>
-3.968

> <ROCS_Overlap>
164.458

> <ROCS_Rank>
237                 

$$$$
untitled-dbase-6027_0
  -OEChem-06232314393D

 16 16  0     0  0  0  0  0  0999 V2000
   -6.2994    6.8225  -35.7072 C   0  0  0  0  0  0  0  0  0  0  0  0
   -5.8671    5.7998  -37.7269 C   0  0  0  0  0  0  0  0  0  0  0  0
   -6.4806    7.8980  -36.7392 C   0  0  0  0  0  0  0  0  0  0  0  0
   -6.1986    7.2230  -38.0711 C   0  0  0  0  0  0  0  0  0  0  0  0
   -5.7001    4.4051  -35.6796 C   0  0  0  0  0  0  0  0  0  0  0  0
   -5.9593    5.6595  -36.3602 N   0  0  0  0  0  0  0  0  0  0  0  0
   -6.4374    7.0004  -34.5049 O   0  0  0  0  0  0  0  0  0  0  0  0
   -5.5699    4.9475  -38.5526 O   0  0  0  0  0  0  0  0  0  0  0  0
   -6.9124    3.6862  -35.5599 O   0  0  0  0  0  0  0  0  0  0  0  0
   -7.5034    8.2836  -36.6958 H   0  0  0  0  0  0  0  0  0  0  0  0
   -5.7774    8.7143  -36.5493 H   0  0  0  0  0  0  0  0  0  0  0  0
   -5.3499    7.6874  -38.5818 H   0  0  0  0  0  0  0  0  0  0  0  0
   -7.0746    7.2504  -38.7258 H   0  0  0  0  0  0  0  0  0  0  0  0
   -5.2963    4.6219  -34.6877 H   0  0  0  0  0  0  0  0  0  0  0  0
   -4.9830    3.8303  -36.2705 H   0  0  0  0  0  0  0  0  0  0  0  0
   -6.7065    2.8537  -35.1015 H   0  0  0  0  0  0  0  0  0  0  0  0
  1  3  1  0  0  0  0
  1  6  1  0  0  0  0
  1  7  2  0  0  0  0
  2  4  1  0  0  0  0
  2  6  1  0  0  0  0
  2  8  2  0  0  0  0
  3  4  1  0  0  0  0
  5  6  1  0  0  0  0
  5  9  1  0  0  0  0
  3 10  1  0  0  0  0
  3 11  1  0  0  0  0
  4 12  1  0  0  0  0
  4 13  1  0  0  0  0
  5 14  1  0  0  0  0
  5 15  1  0  0  0  0
  9 16  1  0  0  0  0
M  END
> <id>
EN300-76577

> <smiles>
OCN1C(=O)CCC1=O

> <MDLNUMBER>
MFCD01328751

> <IUPAC Name>
1-(hydroxymethyl)pyrrolidine-2,5-dione

> <CAS>
5146-68-9

> <Purity>
95

> <URL>
https://www.enaminestore.com/catalog/EN300-76577

> <MP>
65-66

> <ROCS_ShapeQuery>
hit0

> <ROCS_TanimotoCombo>
1.017 

> <ROCS_ShapeTanimoto>
0.478 

> <ROCS_ColorTanimoto>
0.538 

> <ROCS_RefTversky>
1.317 

> <ROCS_RefColorTversky>
0.647 

> <ROCS_RefTverskyCombo>
1.964 

> <ROCS_FitTversky>
0.429 

> <ROCS_FitColorTversky>
0.762 

> <ROCS_FitTverskyCombo>
1.191 

> <ROCS_ColorScore>
-3.850

> <ROCS_Overlap>
161.363

> <ROCS_Rank>
238                 

$$$$
untitled-dbase-172186_54
  -OEChem-06232314393D

 17 17  0     1  0  0  0  0  0999 V2000
   -5.4670    4.9127  -37.4923 C   0  0  0  0  0  0  0  0  0  0  0  0
   -4.9297    5.1802  -35.1944 C   0  0  0  0  0  0  0  0  0  0  0  0
   -5.4777    4.1767  -36.1840 C   0  0  1  0  0  0  0  0  0  0  0  0
   -5.0766    6.5191  -35.8927 C   0  0  2  0  0  0  0  0  0  0  0  0
   -6.3323    7.2832  -35.4993 C   0  0  0  0  0  0  0  0  0  0  0  0
   -5.7380    4.4268  -38.5799 O   0  0  0  0  0  0  0  0  0  0  0  0
   -5.1264    6.2198  -37.2941 O   0  0  0  0  0  0  0  0  0  0  0  0
   -6.7903    3.7670  -35.8780 O   0  0  0  0  0  0  0  0  0  0  0  0
   -6.5504    7.1230  -34.1066 O   0  0  0  0  0  0  0  0  0  0  0  0
   -5.5158    5.1462  -34.2547 H   0  0  0  0  0  0  0  0  0  0  0  0
   -3.8848    4.9653  -34.9046 H   0  0  0  0  0  0  0  0  0  0  0  0
   -4.8331    3.2871  -36.2723 H   0  0  0  0  0  0  0  0  0  0  0  0
   -4.1931    7.1576  -35.7209 H   0  0  0  0  0  0  0  0  0  0  0  0
   -7.1992    6.8957  -36.0407 H   0  0  0  0  0  0  0  0  0  0  0  0
   -6.2155    8.3475  -35.7197 H   0  0  0  0  0  0  0  0  0  0  0  0
   -7.0946    3.1804  -36.5966 H   0  0  0  0  0  0  0  0  0  0  0  0
   -6.6572    6.1710  -33.9449 H   0  0  0  0  0  0  0  0  0  0  0  0
  1  3  1  0  0  0  0
  1  6  2  0  0  0  0
  1  7  1  0  0  0  0
  2  3  1  0  0  0  0
  2  4  1  0  0  0  0
  3  8  1  1  0  0  0
  4  5  1  1  0  0  0
  4  7  1  0  0  0  0
  5  9  1  0  0  0  0
  2 10  1  0  0  0  0
  2 11  1  0  0  0  0
  3 12  1  0  0  0  0
  4 13  1  0  0  0  0
  5 14  1  0  0  0  0
  5 15  1  0  0  0  0
  8 16  1  0  0  0  0
  9 17  1  0  0  0  0
M  END
> <id>
EN300-20074636

> <smiles>
OC[C@H]1C[C@@H](O)C(=O)O1

> <IUPAC Name>
(3R,5R)-3-hydroxy-5-(hydroxymethyl)oxolan-2-one

> <CAS>
203506-97-2

> <Purity>
95

> <URL>
https://www.enaminestore.com/catalog/EN300-20074636

> <ROCS_ShapeQuery>
hit0

> <ROCS_TanimotoCombo>
1.017 

> <ROCS_ShapeTanimoto>
0.446 

> <ROCS_ColorTanimoto>
0.571 

> <ROCS_RefTversky>
1.241 

> <ROCS_RefColorTversky>
0.727 

> <ROCS_RefTverskyCombo>
1.968 

> <ROCS_FitTversky>
0.410 

> <ROCS_FitColorTversky>
0.727 

> <ROCS_FitTverskyCombo>
1.137 

> <ROCS_ColorScore>
-4.360

> <ROCS_Overlap>
151.616

> <ROCS_Rank>
239                 

$$$$
untitled-dbase-166781_11
  -OEChem-06232314393D

 20 20  0     1  0  0  0  0  0999 V2000
   -5.2615    6.1692  -38.5377 C   0  0  0  0  0  0  0  0  0  0  0  0
   -6.0106    6.7549  -37.5172 C   0  0  0  0  0  0  0  0  0  0  0  0
   -5.0599    4.7890  -38.5509 C   0  0  0  0  0  0  0  0  0  0  0  0
   -6.5581    5.9604  -36.5099 C   0  0  0  0  0  0  0  0  0  0  0  0
   -6.3564    4.5802  -36.5230 C   0  0  0  0  0  0  0  0  0  0  0  0
   -5.6073    3.9945  -37.5436 C   0  0  0  0  0  0  0  0  0  0  0  0
   -8.0342    7.9017  -35.8762 C   0  0  0  0  0  0  0  0  0  0  0  0
   -7.3561    6.6076  -35.4261 C   0  0  2  0  0  0  0  0  0  0  0  0
   -6.8957    3.8129  -35.5319 O   0  0  0  0  0  0  0  0  0  0  0  0
   -6.4893    6.9135  -34.3285 O   0  0  0  0  0  0  0  0  0  0  0  0
   -5.3403    2.2905  -37.5870 Cl  0  0  0  0  0  0  0  0  0  0  0  0
   -4.8353    6.7872  -39.3224 H   0  0  0  0  0  0  0  0  0  0  0  0
   -6.1617    7.8311  -37.5148 H   0  0  0  0  0  0  0  0  0  0  0  0
   -4.4729    4.3476  -39.3524 H   0  0  0  0  0  0  0  0  0  0  0  0
   -7.3039    8.6109  -36.2786 H   0  0  0  0  0  0  0  0  0  0  0  0
   -8.5643    8.3841  -35.0473 H   0  0  0  0  0  0  0  0  0  0  0  0
   -8.7854    7.6991  -36.6475 H   0  0  0  0  0  0  0  0  0  0  0  0
   -8.1351    5.9342  -35.0320 H   0  0  0  0  0  0  0  0  0  0  0  0
   -6.6725    2.8804  -35.6741 H   0  0  0  0  0  0  0  0  0  0  0  0
   -6.1173    6.0694  -34.0352 H   0  0  0  0  0  0  0  0  0  0  0  0
  1  2  1  0  0  0  0
  1  3  2  0  0  0  0
  2  4  2  0  0  0  0
  3  6  1  0  0  0  0
  4  5  1  0  0  0  0
  4  8  1  0  0  0  0
  5  6  2  0  0  0  0
  5  9  1  0  0  0  0
  6 11  1  0  0  0  0
  7  8  1  6  0  0  0
  8 10  1  0  0  0  0
  1 12  1  0  0  0  0
  2 13  1  0  0  0  0
  3 14  1  0  0  0  0
  7 15  1  0  0  0  0
  7 16  1  0  0  0  0
  7 17  1  0  0  0  0
  8 18  1  0  0  0  0
  9 19  1  0  0  0  0
 10 20  1  0  0  0  0
M  END
> <id>
EN300-1997267

> <smiles>
C[C@H](O)C=1C=CC=C(Cl)C1O

> <MDLNUMBER>
MFCD32950299

> <IUPAC Name>
2-chloro-6-[(1S)-1-hydroxyethyl]phenol

> <CAS>
2227887-89-8

> <URL>
https://www.enaminestore.com/catalog/EN300-1997267

> <ROCS_ShapeQuery>
hit0

> <ROCS_TanimotoCombo>
1.016 

> <ROCS_ShapeTanimoto>
0.445 

> <ROCS_ColorTanimoto>
0.571 

> <ROCS_RefTversky>
1.397 

> <ROCS_RefColorTversky>
0.672 

> <ROCS_RefTverskyCombo>
2.069 

> <ROCS_FitTversky>
0.395 

> <ROCS_FitColorTversky>
0.792 

> <ROCS_FitTverskyCombo>
1.187 

> <ROCS_ColorScore>
-3.999

> <ROCS_Overlap>
176.328

> <ROCS_Rank>
240                 

$$$$
untitled-dbase-123087_224
  -OEChem-06232314393D

 25 25  0     0  0  0  0  0  0999 V2000
   -7.8490    6.6889  -35.9441 C   0  0  0  0  0  0  0  0  0  0  0  0
   -5.3133    7.0006  -35.9619 C   0  0  0  0  0  0  0  0  0  0  0  0
   -7.4730    5.7055  -37.0557 C   0  0  0  0  0  0  0  0  0  0  0  0
   -5.1106    5.4879  -36.0800 C   0  0  0  0  0  0  0  0  0  0  0  0
   -6.6397    7.3866  -35.2988 C   0  0  0  0  0  0  0  0  0  0  0  0
   -6.3427    4.7496  -36.6445 C   0  0  0  0  0  0  0  0  0  0  0  0
   -5.9470    3.8663  -37.8307 C   0  0  0  0  0  0  0  0  0  0  0  0
   -6.6101    7.1044  -33.8607 N   0  0  0  0  0  0  0  0  0  0  0  0
   -6.8420    3.8564  -35.6414 O   0  0  0  0  0  0  0  0  0  0  0  0
   -5.5170    4.7033  -38.8869 O   0  0  0  0  0  0  0  0  0  0  0  0
   -8.5402    7.4482  -36.3584 H   0  0  0  0  0  0  0  0  0  0  0  0
   -8.4329    6.1551  -35.1681 H   0  0  0  0  0  0  0  0  0  0  0  0
   -4.4668    7.4361  -35.3968 H   0  0  0  0  0  0  0  0  0  0  0  0
   -5.2530    7.4477  -36.9717 H   0  0  0  0  0  0  0  0  0  0  0  0
   -8.3718    5.1320  -37.3226 H   0  0  0  0  0  0  0  0  0  0  0  0
   -7.1767    6.2738  -37.9489 H   0  0  0  0  0  0  0  0  0  0  0  0
   -4.2374    5.2934  -36.7217 H   0  0  0  0  0  0  0  0  0  0  0  0
   -4.8635    5.0952  -35.0821 H   0  0  0  0  0  0  0  0  0  0  0  0
   -6.7799    8.4859  -35.4138 H   0  0  0  0  0  0  0  0  0  0  0  0
   -6.8057    3.2822  -38.1569 H   0  0  0  0  0  0  0  0  0  0  0  0
   -5.1349    3.2020  -37.5402 H   0  0  0  0  0  0  0  0  0  0  0  0
   -5.8536    7.6076  -33.4623 H   0  0  0  0  0  0  0  0  0  0  0  0
   -7.4731    7.3994  -33.4704 H   0  0  0  0  0  0  0  0  0  0  0  0
   -6.1059    3.2722  -35.4081 H   0  0  0  0  0  0  0  0  0  0  0  0
   -5.2705    4.1248  -39.6292 H   0  0  0  0  0  0  0  0  0  0  0  0
  1  3  1  0  0  0  0
  1  5  1  0  0  0  0
  2  4  1  0  0  0  0
  2  5  1  0  0  0  0
  3  6  1  0  0  0  0
  4  6  1  0  0  0  0
  5  8  1  0  0  0  0
  6  7  1  0  0  0  0
  6  9  1  0  0  0  0
  7 10  1  0  0  0  0
  1 11  1  0  0  0  0
  1 12  1  0  0  0  0
  2 13  1  0  0  0  0
  2 14  1  0  0  0  0
  3 15  1  0  0  0  0
  3 16  1  0  0  0  0
  4 17  1  0  0  0  0
  4 18  1  0  0  0  0
  5 19  1  0  0  0  0
  7 20  1  0  0  0  0
  7 21  1  0  0  0  0
  8 22  1  0  0  0  0
  8 23  1  0  0  0  0
  9 24  1  0  0  0  0
 10 25  1  0  0  0  0
M  END
> <id>
EN300-150056

> <smiles>
NC1CCC(O)(CO)CC1

> <MDLNUMBER>
MFCD19215693

> <IUPAC Name>
4-amino-1-(hydroxymethyl)cyclohexan-1-ol

> <CAS>
1202412-08-5

> <URL>
https://www.enaminestore.com/catalog/EN300-150056

> <ROCS_ShapeQuery>
hit0

> <ROCS_TanimotoCombo>
1.016 

> <ROCS_ShapeTanimoto>
0.451 

> <ROCS_ColorTanimoto>
0.565 

> <ROCS_RefTversky>
1.302 

> <ROCS_RefColorTversky>
0.776 

> <ROCS_RefTverskyCombo>
2.078 

> <ROCS_FitTversky>
0.408 

> <ROCS_FitColorTversky>
0.675 

> <ROCS_FitTverskyCombo>
1.084 

> <ROCS_ColorScore>
-4.695

> <ROCS_Overlap>
160.693

> <ROCS_Rank>
241                 

$$$$
untitled-dbase-7431_224
  -OEChem-06232314393D

 25 25  0     0  0  0  0  0  0999 V2000
   -7.8490    6.6889  -35.9441 C   0  0  0  0  0  0  0  0  0  0  0  0
   -5.3133    7.0006  -35.9619 C   0  0  0  0  0  0  0  0  0  0  0  0
   -7.4730    5.7055  -37.0557 C   0  0  0  0  0  0  0  0  0  0  0  0
   -5.1106    5.4879  -36.0800 C   0  0  0  0  0  0  0  0  0  0  0  0
   -6.6397    7.3866  -35.2988 C   0  0  0  0  0  0  0  0  0  0  0  0
   -6.3427    4.7496  -36.6445 C   0  0  0  0  0  0  0  0  0  0  0  0
   -5.9470    3.8663  -37.8307 C   0  0  0  0  0  0  0  0  0  0  0  0
   -6.6101    7.1044  -33.8607 N   0  0  0  0  0  0  0  0  0  0  0  0
   -6.8420    3.8564  -35.6414 O   0  0  0  0  0  0  0  0  0  0  0  0
   -5.5170    4.7033  -38.8869 O   0  0  0  0  0  0  0  0  0  0  0  0
   -8.5402    7.4482  -36.3584 H   0  0  0  0  0  0  0  0  0  0  0  0
   -8.4329    6.1551  -35.1681 H   0  0  0  0  0  0  0  0  0  0  0  0
   -4.4668    7.4361  -35.3968 H   0  0  0  0  0  0  0  0  0  0  0  0
   -5.2530    7.4477  -36.9717 H   0  0  0  0  0  0  0  0  0  0  0  0
   -8.3718    5.1320  -37.3226 H   0  0  0  0  0  0  0  0  0  0  0  0
   -7.1767    6.2738  -37.9489 H   0  0  0  0  0  0  0  0  0  0  0  0
   -4.2374    5.2934  -36.7217 H   0  0  0  0  0  0  0  0  0  0  0  0
   -4.8635    5.0952  -35.0821 H   0  0  0  0  0  0  0  0  0  0  0  0
   -6.7799    8.4859  -35.4138 H   0  0  0  0  0  0  0  0  0  0  0  0
   -6.8057    3.2822  -38.1569 H   0  0  0  0  0  0  0  0  0  0  0  0
   -5.1349    3.2020  -37.5402 H   0  0  0  0  0  0  0  0  0  0  0  0
   -5.8536    7.6076  -33.4623 H   0  0  0  0  0  0  0  0  0  0  0  0
   -7.4731    7.3994  -33.4704 H   0  0  0  0  0  0  0  0  0  0  0  0
   -6.1059    3.2722  -35.4081 H   0  0  0  0  0  0  0  0  0  0  0  0
   -5.2705    4.1248  -39.6292 H   0  0  0  0  0  0  0  0  0  0  0  0
  1  3  1  0  0  0  0
  1  5  1  0  0  0  0
  2  4  1  0  0  0  0
  2  5  1  0  0  0  0
  3  6  1  0  0  0  0
  4  6  1  0  0  0  0
  5  8  1  0  0  0  0
  6  7  1  0  0  0  0
  6  9  1  0  0  0  0
  7 10  1  0  0  0  0
  1 11  1  0  0  0  0
  1 12  1  0  0  0  0
  2 13  1  0  0  0  0
  2 14  1  0  0  0  0
  3 15  1  0  0  0  0
  3 16  1  0  0  0  0
  4 17  1  0  0  0  0
  4 18  1  0  0  0  0
  5 19  1  0  0  0  0
  7 20  1  0  0  0  0
  7 21  1  0  0  0  0
  8 22  1  0  0  0  0
  8 23  1  0  0  0  0
  9 24  1  0  0  0  0
 10 25  1  0  0  0  0
M  END
> <id>
EN300-123819

> <smiles>
Cl.NC1CCC(O)(CO)CC1

> <MDLNUMBER>
MFCD23144131

> <IUPAC Name>
4-amino-1-(hydroxymethyl)cyclohexan-1-ol hydrochloride

> <CAS>
1427379-32-5

> <Purity>
95

> <URL>
https://www.enaminestore.com/catalog/EN300-123819

> <Saltdate>
Cl

> <ROCS_ShapeQuery>
hit0

> <ROCS_TanimotoCombo>
1.016 

> <ROCS_ShapeTanimoto>
0.451 

> <ROCS_ColorTanimoto>
0.565 

> <ROCS_RefTversky>
1.302 

> <ROCS_RefColorTversky>
0.776 

> <ROCS_RefTverskyCombo>
2.078 

> <ROCS_FitTversky>
0.408 

> <ROCS_FitColorTversky>
0.675 

> <ROCS_FitTverskyCombo>
1.084 

> <ROCS_ColorScore>
-4.695

> <ROCS_Overlap>
160.693

> <ROCS_Rank>
242                 

$$$$
untitled-dbase-102680_0
  -OEChem-06232314393D

 15 15  0     0  0  0  0  0  0999 V2000
   -5.4895    6.0046  -37.9782 C   0  0  0  0  0  0  0  0  0  0  0  0
   -5.9693    5.8967  -36.6591 C   0  0  0  0  0  0  0  0  0  0  0  0
   -6.3472    4.5818  -36.5377 C   0  0  0  0  0  0  0  0  0  0  0  0
   -6.0623    6.9011  -35.6438 C   0  0  0  0  0  0  0  0  0  0  0  0
   -6.3088    2.6270  -38.1147 C   0  0  0  0  0  0  0  0  0  0  0  0
   -5.5553    4.8502  -38.6469 N   0  0  0  0  0  0  0  0  0  0  0  0
   -6.0808    4.0044  -37.7443 N   0  0  0  0  0  0  0  0  0  0  0  0
   -6.5082    6.6945  -34.4979 O   0  0  0  0  0  0  0  0  0  0  0  0
   -6.8680    3.8932  -35.5318 O   0  0  0  0  0  0  0  0  0  0  0  0
   -5.0951    6.8754  -38.4828 H   0  0  0  0  0  0  0  0  0  0  0  0
   -5.7149    7.9406  -35.8868 H   0  0  0  0  0  0  0  0  0  0  0  0
   -7.3172    2.5519  -38.5300 H   0  0  0  0  0  0  0  0  0  0  0  0
   -5.5659    2.3218  -38.8570 H   0  0  0  0  0  0  0  0  0  0  0  0
   -6.2108    1.9936  -37.2287 H   0  0  0  0  0  0  0  0  0  0  0  0
   -7.0007    4.4480  -34.7308 H   0  0  0  0  0  0  0  0  0  0  0  0
  1  2  1  0  0  0  0
  1  6  2  0  0  0  0
  2  3  2  0  0  0  0
  2  4  1  0  0  0  0
  3  7  1  0  0  0  0
  3  9  1  0  0  0  0
  4  8  2  0  0  0  0
  5  7  1  0  0  0  0
  6  7  1  0  0  0  0
  1 10  1  0  0  0  0
  4 11  1  0  0  0  0
  5 12  1  0  0  0  0
  5 13  1  0  0  0  0
  5 14  1  0  0  0  0
  9 15  1  0  0  0  0
M  END
> <id>
EN300-2870758

> <smiles>
CN1N=CC(C=O)=C1O

> <MDLNUMBER>
MFCD32746284

> <IUPAC Name>
5-hydroxy-1-methyl-1H-pyrazole-4-carbaldehyde

> <CAS>
1255352-02-3

> <URL>
https://www.enaminestore.com/catalog/EN300-2870758

> <ROCS_ShapeQuery>
hit0

> <ROCS_TanimotoCombo>
1.016 

> <ROCS_ShapeTanimoto>
0.470 

> <ROCS_ColorTanimoto>
0.546 

> <ROCS_RefTversky>
1.322 

> <ROCS_RefColorTversky>
0.653 

> <ROCS_RefTverskyCombo>
1.975 

> <ROCS_FitTversky>
0.422 

> <ROCS_FitColorTversky>
0.769 

> <ROCS_FitTverskyCombo>
1.191 

> <ROCS_ColorScore>
-3.885

> <ROCS_Overlap>
162.689

> <ROCS_Rank>
243                 

$$$$
untitled-dbase-41947_0
  -OEChem-06232314393D

 14 14  0     0  0  0  0  0  0999 V2000
   -5.9289    5.9986  -36.7491 C   0  0  0  0  0  0  0  0  0  0  0  0
   -6.4466    5.6538  -35.4678 C   0  0  0  0  0  0  0  0  0  0  0  0
   -5.9168    4.8907  -37.5684 C   0  0  0  0  0  0  0  0  0  0  0  0
   -6.2123    7.8621  -34.6166 C   0  0  0  0  0  0  0  0  0  0  0  0
   -6.8149    4.3888  -35.2799 N   0  0  0  0  0  0  0  0  0  0  0  0
   -5.5022    4.8032  -38.8540 N   0  0  0  0  0  0  0  0  0  0  0  0
   -6.6004    6.4933  -34.4304 O   0  0  0  0  0  0  0  0  0  0  0  0
   -6.5358    3.5564  -36.6909 S   0  0  0  0  0  0  0  0  0  0  0  0
   -5.5912    6.9840  -37.0433 H   0  0  0  0  0  0  0  0  0  0  0  0
   -6.3930    8.4214  -33.6955 H   0  0  0  0  0  0  0  0  0  0  0  0
   -6.7877    8.2964  -35.4381 H   0  0  0  0  0  0  0  0  0  0  0  0
   -5.1479    7.8998  -34.8602 H   0  0  0  0  0  0  0  0  0  0  0  0
   -5.1786    5.6266  -39.3792 H   0  0  0  0  0  0  0  0  0  0  0  0
   -5.5804    3.9303  -39.3930 H   0  0  0  0  0  0  0  0  0  0  0  0
  1  2  1  0  0  0  0
  1  3  2  0  0  0  0
  2  5  2  0  0  0  0
  2  7  1  0  0  0  0
  3  6  1  0  0  0  0
  3  8  1  0  0  0  0
  4  7  1  0  0  0  0
  5  8  1  0  0  0  0
  1  9  1  0  0  0  0
  4 10  1  0  0  0  0
  4 11  1  0  0  0  0
  4 12  1  0  0  0  0
  6 13  1  0  0  0  0
  6 14  1  0  0  0  0
M  END
> <id>
EN300-1168612

> <smiles>
COC=1C=C(N)SN1

> <MDLNUMBER>
MFCD28654493

> <IUPAC Name>
3-methoxy-1,2-thiazol-5-amine

> <CAS>
1785628-63-8

> <URL>
https://www.enaminestore.com/catalog/EN300-1168612

> <ROCS_ShapeQuery>
hit0

> <ROCS_TanimotoCombo>
1.016 

> <ROCS_ShapeTanimoto>
0.554 

> <ROCS_ColorTanimoto>
0.462 

> <ROCS_RefTversky>
1.306 

> <ROCS_RefColorTversky>
0.585 

> <ROCS_RefTverskyCombo>
1.891 

> <ROCS_FitTversky>
0.490 

> <ROCS_FitColorTversky>
0.687 

> <ROCS_FitTverskyCombo>
1.178 

> <ROCS_ColorScore>
-3.479

> <ROCS_Overlap>
156.117

> <ROCS_Rank>
244                 

$$$$
untitled-dbase-95225_0
  -OEChem-06232314393D

 14 14  0     0  0  0  0  0  0999 V2000
   -5.9289    5.9986  -36.7491 C   0  0  0  0  0  0  0  0  0  0  0  0
   -6.4466    5.6538  -35.4678 C   0  0  0  0  0  0  0  0  0  0  0  0
   -5.9168    4.8907  -37.5684 C   0  0  0  0  0  0  0  0  0  0  0  0
   -6.2123    7.8621  -34.6166 C   0  0  0  0  0  0  0  0  0  0  0  0
   -6.8149    4.3888  -35.2799 N   0  0  0  0  0  0  0  0  0  0  0  0
   -5.5022    4.8032  -38.8540 N   0  0  0  0  0  0  0  0  0  0  0  0
   -6.6004    6.4933  -34.4304 O   0  0  0  0  0  0  0  0  0  0  0  0
   -6.5358    3.5564  -36.6909 S   0  0  0  0  0  0  0  0  0  0  0  0
   -5.5912    6.9840  -37.0433 H   0  0  0  0  0  0  0  0  0  0  0  0
   -6.3930    8.4214  -33.6955 H   0  0  0  0  0  0  0  0  0  0  0  0
   -6.7877    8.2964  -35.4381 H   0  0  0  0  0  0  0  0  0  0  0  0
   -5.1479    7.8998  -34.8602 H   0  0  0  0  0  0  0  0  0  0  0  0
   -5.1786    5.6266  -39.3792 H   0  0  0  0  0  0  0  0  0  0  0  0
   -5.5804    3.9303  -39.3930 H   0  0  0  0  0  0  0  0  0  0  0  0
  1  2  1  0  0  0  0
  1  3  2  0  0  0  0
  2  5  2  0  0  0  0
  2  7  1  0  0  0  0
  3  6  1  0  0  0  0
  3  8  1  0  0  0  0
  4  7  1  0  0  0  0
  5  8  1  0  0  0  0
  1  9  1  0  0  0  0
  4 10  1  0  0  0  0
  4 11  1  0  0  0  0
  4 12  1  0  0  0  0
  6 13  1  0  0  0  0
  6 14  1  0  0  0  0
M  END
> <id>
EN300-1168611

> <smiles>
Cl.COC=1C=C(N)SN1

> <MDLNUMBER>
MFCD31559231

> <IUPAC Name>
3-methoxy-1,2-thiazol-5-amine hydrochloride

> <CAS>
2138563-00-3

> <Purity>
91

> <URL>
https://www.enaminestore.com/catalog/EN300-1168611

> <Saltdate>
Cl

> <ROCS_ShapeQuery>
hit0

> <ROCS_TanimotoCombo>
1.016 

> <ROCS_ShapeTanimoto>
0.554 

> <ROCS_ColorTanimoto>
0.462 

> <ROCS_RefTversky>
1.306 

> <ROCS_RefColorTversky>
0.585 

> <ROCS_RefTverskyCombo>
1.891 

> <ROCS_FitTversky>
0.490 

> <ROCS_FitColorTversky>
0.687 

> <ROCS_FitTverskyCombo>
1.178 

> <ROCS_ColorScore>
-3.479

> <ROCS_Overlap>
156.117

> <ROCS_Rank>
245                 

$$$$
untitled-dbase-31325_5
  -OEChem-06232314393D

 17 17  0     0  0  0  0  0  0999 V2000
   -6.1296    6.7753  -37.5282 C   0  0  0  0  0  0  0  0  0  0  0  0
   -5.6107    6.1375  -38.6434 C   0  0  0  0  0  0  0  0  0  0  0  0
   -5.9403    4.0601  -37.7193 C   0  0  0  0  0  0  0  0  0  0  0  0
   -6.5675    5.9850  -36.4714 C   0  0  0  0  0  0  0  0  0  0  0  0
   -6.4745    4.6006  -36.5607 C   0  0  0  0  0  0  0  0  0  0  0  0
   -7.1181    6.6238  -35.2846 C   0  0  0  0  0  0  0  0  0  0  0  0
   -8.5962    6.8805  -35.2597 C   0  0  0  0  0  0  0  0  0  0  0  0
   -5.5044    4.7954  -38.7666 N   0  0  0  0  0  0  0  0  0  0  0  0
   -6.4609    6.9730  -34.3029 O   0  0  0  0  0  0  0  0  0  0  0  0
   -6.8891    3.7877  -35.5555 O   0  0  0  0  0  0  0  0  0  0  0  0
   -6.1874    7.8581  -37.4913 H   0  0  0  0  0  0  0  0  0  0  0  0
   -5.2553    6.7082  -39.4951 H   0  0  0  0  0  0  0  0  0  0  0  0
   -5.8434    2.9861  -37.8441 H   0  0  0  0  0  0  0  0  0  0  0  0
   -9.1868    6.0533  -34.8354 H   0  0  0  0  0  0  0  0  0  0  0  0
   -9.0133    7.1084  -36.2529 H   0  0  0  0  0  0  0  0  0  0  0  0
   -8.8761    7.7490  -34.6372 H   0  0  0  0  0  0  0  0  0  0  0  0
   -6.7487    2.8558  -35.7922 H   0  0  0  0  0  0  0  0  0  0  0  0
  1  2  1  0  0  0  0
  1  4  2  0  0  0  0
  2  8  2  0  0  0  0
  3  5  2  0  0  0  0
  3  8  1  0  0  0  0
  4  5  1  0  0  0  0
  4  6  1  0  0  0  0
  5 10  1  0  0  0  0
  6  7  1  0  0  0  0
  6  9  2  0  0  0  0
  1 11  1  0  0  0  0
  2 12  1  0  0  0  0
  3 13  1  0  0  0  0
  7 14  1  0  0  0  0
  7 15  1  0  0  0  0
  7 16  1  0  0  0  0
 10 17  1  0  0  0  0
M  END
> <id>
EN300-120984

> <smiles>
CC(=O)C=1C=CN=CC1O

> <MDLNUMBER>
MFCD18256467

> <IUPAC Name>
1-(3-hydroxypyridin-4-yl)ethan-1-one

> <CAS>
30152-05-7

> <Purity>
95

> <URL>
https://www.enaminestore.com/catalog/EN300-120984

> <MP>
52-54

> <ROCS_ShapeQuery>
hit0

> <ROCS_TanimotoCombo>
1.016 

> <ROCS_ShapeTanimoto>
0.446 

> <ROCS_ColorTanimoto>
0.569 

> <ROCS_RefTversky>
1.353 

> <ROCS_RefColorTversky>
0.671 

> <ROCS_RefTverskyCombo>
2.024 

> <ROCS_FitTversky>
0.400 

> <ROCS_FitColorTversky>
0.790 

> <ROCS_FitTverskyCombo>
1.190 

> <ROCS_ColorScore>
-3.991

> <ROCS_Overlap>
169.116

> <ROCS_Rank>
246                 

$$$$
untitled-dbase-170743_6
  -OEChem-06232314393D

 18 18  0     0  0  0  0  0  0999 V2000
   -6.3108    7.1011  -38.5869 C   0  0  0  0  0  0  0  0  0  0  0  0
   -6.8008    8.1180  -37.7675 C   0  0  0  0  0  0  0  0  0  0  0  0
   -6.1272    5.6438  -36.6686 C   0  0  0  0  0  0  0  0  0  0  0  0
   -5.9740    5.8640  -38.0375 C   0  0  0  0  0  0  0  0  0  0  0  0
   -6.9540    7.8978  -36.3987 C   0  0  0  0  0  0  0  0  0  0  0  0
   -6.6171    6.6608  -35.8492 C   0  0  0  0  0  0  0  0  0  0  0  0
   -5.7732    4.3273  -36.0567 C   0  0  0  0  0  0  0  0  0  0  0  0
   -5.4795    4.8463  -38.8825 N   0  0  0  0  0  0  0  0  0  0  0  0
   -6.9270    3.7704  -35.4411 O   0  0  0  0  0  0  0  0  0  0  0  0
   -7.4245    8.8744  -35.6119 F   0  0  0  0  0  0  0  0  0  0  0  0
   -6.7682    6.4598  -34.5326 F   0  0  0  0  0  0  0  0  0  0  0  0
   -6.1957    7.2843  -39.6522 H   0  0  0  0  0  0  0  0  0  0  0  0
   -7.0632    9.0813  -38.1948 H   0  0  0  0  0  0  0  0  0  0  0  0
   -5.4025    3.6237  -36.8131 H   0  0  0  0  0  0  0  0  0  0  0  0
   -4.9878    4.4435  -35.2990 H   0  0  0  0  0  0  0  0  0  0  0  0
   -5.4242    5.0151  -39.8657 H   0  0  0  0  0  0  0  0  0  0  0  0
   -5.2833    3.9463  -38.4957 H   0  0  0  0  0  0  0  0  0  0  0  0
   -6.6570    2.9204  -35.0575 H   0  0  0  0  0  0  0  0  0  0  0  0
  1  2  1  0  0  0  0
  1  4  2  0  0  0  0
  2  5  2  0  0  0  0
  3  4  1  0  0  0  0
  3  6  2  0  0  0  0
  3  7  1  0  0  0  0
  4  8  1  0  0  0  0
  5  6  1  0  0  0  0
  5 10  1  0  0  0  0
  6 11  1  0  0  0  0
  7  9  1  0  0  0  0
  1 12  1  0  0  0  0
  2 13  1  0  0  0  0
  7 14  1  0  0  0  0
  7 15  1  0  0  0  0
  8 16  1  0  0  0  0
  8 17  1  0  0  0  0
  9 18  1  0  0  0  0
M  END
> <id>
EN300-22153091

> <smiles>
Cl.NC=1C=CC(F)=C(F)C1CO

> <MDLNUMBER>
MFCD30480165

> <IUPAC Name>
(6-amino-2,3-difluorophenyl)methanol hydrochloride

> <CAS>
2763777-22-4

> <Purity>
95

> <URL>
https://www.enaminestore.com/catalog/EN300-22153091

> <ROCS_ShapeQuery>
hit0

> <ROCS_TanimotoCombo>
1.016 

> <ROCS_ShapeTanimoto>
0.454 

> <ROCS_ColorTanimoto>
0.562 

> <ROCS_RefTversky>
1.447 

> <ROCS_RefColorTversky>
0.665 

> <ROCS_RefTverskyCombo>
2.112 

> <ROCS_FitTversky>
0.398 

> <ROCS_FitColorTversky>
0.784 

> <ROCS_FitTverskyCombo>
1.181 

> <ROCS_ColorScore>
-3.957

> <ROCS_Overlap>
183.936

> <ROCS_Rank>
247                 

$$$$
untitled-dbase-170753_6
  -OEChem-06232314393D

 18 18  0     0  0  0  0  0  0999 V2000
   -6.3108    7.1011  -38.5869 C   0  0  0  0  0  0  0  0  0  0  0  0
   -6.8008    8.1180  -37.7675 C   0  0  0  0  0  0  0  0  0  0  0  0
   -6.1272    5.6438  -36.6686 C   0  0  0  0  0  0  0  0  0  0  0  0
   -5.9740    5.8640  -38.0375 C   0  0  0  0  0  0  0  0  0  0  0  0
   -6.9540    7.8978  -36.3987 C   0  0  0  0  0  0  0  0  0  0  0  0
   -6.6171    6.6608  -35.8492 C   0  0  0  0  0  0  0  0  0  0  0  0
   -5.7732    4.3273  -36.0567 C   0  0  0  0  0  0  0  0  0  0  0  0
   -5.4795    4.8463  -38.8825 N   0  0  0  0  0  0  0  0  0  0  0  0
   -6.9270    3.7704  -35.4411 O   0  0  0  0  0  0  0  0  0  0  0  0
   -7.4245    8.8744  -35.6119 F   0  0  0  0  0  0  0  0  0  0  0  0
   -6.7682    6.4598  -34.5326 F   0  0  0  0  0  0  0  0  0  0  0  0
   -6.1957    7.2843  -39.6522 H   0  0  0  0  0  0  0  0  0  0  0  0
   -7.0632    9.0813  -38.1948 H   0  0  0  0  0  0  0  0  0  0  0  0
   -5.4025    3.6237  -36.8131 H   0  0  0  0  0  0  0  0  0  0  0  0
   -4.9878    4.4435  -35.2990 H   0  0  0  0  0  0  0  0  0  0  0  0
   -5.4242    5.0151  -39.8657 H   0  0  0  0  0  0  0  0  0  0  0  0
   -5.2833    3.9463  -38.4957 H   0  0  0  0  0  0  0  0  0  0  0  0
   -6.6570    2.9204  -35.0575 H   0  0  0  0  0  0  0  0  0  0  0  0
  1  2  1  0  0  0  0
  1  4  2  0  0  0  0
  2  5  2  0  0  0  0
  3  4  1  0  0  0  0
  3  6  2  0  0  0  0
  3  7  1  0  0  0  0
  4  8  1  0  0  0  0
  5  6  1  0  0  0  0
  5 10  1  0  0  0  0
  6 11  1  0  0  0  0
  7  9  1  0  0  0  0
  1 12  1  0  0  0  0
  2 13  1  0  0  0  0
  7 14  1  0  0  0  0
  7 15  1  0  0  0  0
  8 16  1  0  0  0  0
  8 17  1  0  0  0  0
  9 18  1  0  0  0  0
M  END
> <id>
EN300-7689076

> <smiles>
NC=1C=CC(F)=C(F)C1CO

> <MDLNUMBER>
MFCD07368107

> <IUPAC Name>
(6-amino-2,3-difluorophenyl)methanol

> <CAS>
144298-16-8

> <URL>
https://www.enaminestore.com/catalog/EN300-7689076

> <ROCS_ShapeQuery>
hit0

> <ROCS_TanimotoCombo>
1.016 

> <ROCS_ShapeTanimoto>
0.454 

> <ROCS_ColorTanimoto>
0.562 

> <ROCS_RefTversky>
1.447 

> <ROCS_RefColorTversky>
0.665 

> <ROCS_RefTverskyCombo>
2.112 

> <ROCS_FitTversky>
0.398 

> <ROCS_FitColorTversky>
0.784 

> <ROCS_FitTverskyCombo>
1.181 

> <ROCS_ColorScore>
-3.957

> <ROCS_Overlap>
183.936

> <ROCS_Rank>
248                 

$$$$
untitled-dbase-180765_59
  -OEChem-06232314393D

 19 19  0     0  0  0  0  0  0999 V2000
   -6.9838    5.8966  -36.7939 C   0  0  0  0  0  0  0  0  0  0  0  0
   -5.0624    5.2998  -36.1590 C   0  0  0  0  0  0  0  0  0  0  0  0
   -6.4816    5.0554  -35.5987 C   0  0  0  0  0  0  0  0  0  0  0  0
   -5.5831    4.8872  -38.4770 C   0  0  0  0  0  0  0  0  0  0  0  0
   -6.7359    5.6638  -34.2275 C   0  0  0  0  0  0  0  0  0  0  0  0
   -5.6375    5.8663  -37.3917 N   0  0  0  0  0  0  0  0  0  0  0  0
   -6.9034    3.6740  -35.5933 O   0  0  0  0  0  0  0  0  0  0  0  0
   -6.4886    7.0570  -34.2971 O   0  0  0  0  0  0  0  0  0  0  0  0
   -7.7841    5.4045  -37.3769 H   0  0  0  0  0  0  0  0  0  0  0  0
   -7.3425    6.9097  -36.5471 H   0  0  0  0  0  0  0  0  0  0  0  0
   -4.4401    6.0081  -35.5872 H   0  0  0  0  0  0  0  0  0  0  0  0
   -4.4690    4.3749  -36.2815 H   0  0  0  0  0  0  0  0  0  0  0  0
   -4.5728    4.8769  -38.9120 H   0  0  0  0  0  0  0  0  0  0  0  0
   -5.8223    3.8887  -38.0822 H   0  0  0  0  0  0  0  0  0  0  0  0
   -6.3136    5.1593  -39.2531 H   0  0  0  0  0  0  0  0  0  0  0  0
   -6.0677    5.2172  -33.4900 H   0  0  0  0  0  0  0  0  0  0  0  0
   -7.7723    5.4978  -33.9304 H   0  0  0  0  0  0  0  0  0  0  0  0
   -7.8677    3.6982  -35.5708 H   0  0  0  0  0  0  0  0  0  0  0  0
   -6.6576    7.4208  -33.4115 H   0  0  0  0  0  0  0  0  0  0  0  0
  1  3  1  0  0  0  0
  1  6  1  0  0  0  0
  2  3  1  0  0  0  0
  2  6  1  0  0  0  0
  3  5  1  0  0  0  0
  3  7  1  0  0  0  0
  4  6  1  0  0  0  0
  5  8  1  0  0  0  0
  1  9  1  0  0  0  0
  1 10  1  0  0  0  0
  2 11  1  0  0  0  0
  2 12  1  0  0  0  0
  4 13  1  0  0  0  0
  4 14  1  0  0  0  0
  4 15  1  0  0  0  0
  5 16  1  0  0  0  0
  5 17  1  0  0  0  0
  7 18  1  0  0  0  0
  8 19  1  0  0  0  0
M  END
> <id>
EN300-45226263

> <smiles>
Cl.CN1CC(O)(CO)C1

> <IUPAC Name>
3-(hydroxymethyl)-1-methylazetidin-3-ol hydrochloride

> <Purity>
95

> <URL>
https://www.enaminestore.com/catalog/EN300-45226263

> <ROCS_ShapeQuery>
hit0

> <ROCS_TanimotoCombo>
1.015 

> <ROCS_ShapeTanimoto>
0.531 

> <ROCS_ColorTanimoto>
0.484 

> <ROCS_RefTversky>
1.270 

> <ROCS_RefColorTversky>
0.653 

> <ROCS_RefTverskyCombo>
1.923 

> <ROCS_FitTversky>
0.477 

> <ROCS_FitColorTversky>
0.652 

> <ROCS_FitTverskyCombo>
1.130 

> <ROCS_ColorScore>
-3.916

> <ROCS_Overlap>
151.773

> <ROCS_Rank>
249                 

$$$$
untitled-dbase-104824_6
  -OEChem-06232314393D

 21 21  0     0  0  0  0  0  0999 V2000
   -6.0591    7.9178  -35.8317 C   0  0  0  0  0  0  0  0  0  0  0  0
   -6.9809    7.4535  -34.8934 C   0  0  0  0  0  0  0  0  0  0  0  0
   -5.4096    7.0174  -36.6761 C   0  0  0  0  0  0  0  0  0  0  0  0
   -7.2531    6.0886  -34.7995 C   0  0  0  0  0  0  0  0  0  0  0  0
   -5.6818    5.6526  -36.5822 C   0  0  0  0  0  0  0  0  0  0  0  0
   -6.6036    5.1882  -35.6439 C   0  0  0  0  0  0  0  0  0  0  0  0
   -8.2448    5.6210  -33.7841 C   0  0  0  0  0  0  0  0  0  0  0  0
   -4.9695    4.7123  -37.4994 C   0  0  0  0  0  0  0  0  0  0  0  0
   -6.8787    3.8044  -35.5480 N   0  0  0  0  0  0  0  0  0  0  0  0
   -5.5296    4.8122  -38.8019 O   0  0  0  0  0  0  0  0  0  0  0  0
   -5.8474    8.9805  -35.9050 H   0  0  0  0  0  0  0  0  0  0  0  0
   -7.4820    8.1636  -34.2404 H   0  0  0  0  0  0  0  0  0  0  0  0
   -4.6929    7.3893  -37.4032 H   0  0  0  0  0  0  0  0  0  0  0  0
   -9.2515    5.6056  -34.2166 H   0  0  0  0  0  0  0  0  0  0  0  0
   -8.0008    4.6128  -33.4282 H   0  0  0  0  0  0  0  0  0  0  0  0
   -8.2508    6.2777  -32.9056 H   0  0  0  0  0  0  0  0  0  0  0  0
   -3.8988    4.9469  -37.5568 H   0  0  0  0  0  0  0  0  0  0  0  0
   -5.0633    3.6756  -37.1512 H   0  0  0  0  0  0  0  0  0  0  0  0
   -6.4414    3.1781  -36.1905 H   0  0  0  0  0  0  0  0  0  0  0  0
   -7.5745    3.4929  -34.9036 H   0  0  0  0  0  0  0  0  0  0  0  0
   -5.0422    4.1892  -39.3649 H   0  0  0  0  0  0  0  0  0  0  0  0
  1  2  1  0  0  0  0
  1  3  2  0  0  0  0
  2  4  2  0  0  0  0
  3  5  1  0  0  0  0
  4  6  1  0  0  0  0
  4  7  1  0  0  0  0
  5  6  2  0  0  0  0
  5  8  1  0  0  0  0
  6  9  1  0  0  0  0
  8 10  1  0  0  0  0
  1 11  1  0  0  0  0
  2 12  1  0  0  0  0
  3 13  1  0  0  0  0
  7 14  1  0  0  0  0
  7 15  1  0  0  0  0
  7 16  1  0  0  0  0
  8 17  1  0  0  0  0
  8 18  1  0  0  0  0
  9 19  1  0  0  0  0
  9 20  1  0  0  0  0
 10 21  1  0  0  0  0
M  END
> <id>
EN300-2991871

> <smiles>
CC=1C=CC=C(CO)C1N

> <MDLNUMBER>
MFCD00075027

> <IUPAC Name>
(2-amino-3-methylphenyl)methanol

> <CAS>
57772-50-6

> <Purity>
95

> <URL>
https://www.enaminestore.com/catalog/EN300-2991871

> <MP>
67-69

> <ROCS_ShapeQuery>
hit0

> <ROCS_TanimotoCombo>
1.015 

> <ROCS_ShapeTanimoto>
0.444 

> <ROCS_ColorTanimoto>
0.571 

> <ROCS_RefTversky>
1.323 

> <ROCS_RefColorTversky>
0.672 

> <ROCS_RefTverskyCombo>
1.995 

> <ROCS_FitTversky>
0.400 

> <ROCS_FitColorTversky>
0.792 

> <ROCS_FitTverskyCombo>
1.192 

> <ROCS_ColorScore>
-3.999

> <ROCS_Overlap>
164.554

> <ROCS_Rank>
250                 

$$$$
untitled-dbase-158971_0
  -OEChem-06232314393D

 14 14  0     1  0  0  0  0  0999 V2000
   -5.8473    7.5058  -35.4192 C   0  0  0  0  0  0  0  0  0  0  0  0
   -5.8027    6.0086  -35.2957 C   0  0  2  0  0  0  0  0  0  0  0  0
   -6.0071    4.8755  -37.5376 C   0  0  0  0  0  0  0  0  0  0  0  0
   -6.6582    5.1188  -36.1846 C   0  0  1  0  0  0  0  0  0  0  0  0
   -6.5420    6.8126  -34.3706 O   0  0  0  0  0  0  0  0  0  0  0  0
   -6.8684    3.8694  -35.5338 O   0  0  0  0  0  0  0  0  0  0  0  0
   -4.9636    8.0669  -35.1446 H   0  0  0  0  0  0  0  0  0  0  0  0
   -6.4432    7.9477  -36.2070 H   0  0  0  0  0  0  0  0  0  0  0  0
   -4.8937    5.5361  -34.9512 H   0  0  0  0  0  0  0  0  0  0  0  0
   -5.0221    4.4118  -37.4269 H   0  0  0  0  0  0  0  0  0  0  0  0
   -5.8903    5.8201  -38.0797 H   0  0  0  0  0  0  0  0  0  0  0  0
   -6.6305    4.2283  -38.1643 H   0  0  0  0  0  0  0  0  0  0  0  0
   -7.6395    5.5824  -36.3293 H   0  0  0  0  0  0  0  0  0  0  0  0
   -7.3212    4.0648  -34.6985 H   0  0  0  0  0  0  0  0  0  0  0  0
  1  2  1  0  0  0  0
  1  5  1  0  0  0  0
  2  4  1  0  0  0  0
  2  5  1  0  0  0  0
  3  4  1  0  0  0  0
  4  6  1  0  0  0  0
  1  7  1  0  0  0  0
  1  8  1  0  0  0  0
  2  9  1  0  0  0  0
  3 10  1  0  0  0  0
  3 11  1  0  0  0  0
  3 12  1  0  0  0  0
  4 13  1  0  0  0  0
  6 14  1  0  0  0  0
M  END
> <id>
EN300-138664

> <smiles>
CC(O)C1CO1

> <MDLNUMBER>
MFCD19300625

> <IUPAC Name>
1-(oxiran-2-yl)ethan-1-ol

> <CAS>
765-44-6

> <Purity>
95

> <URL>
https://www.enaminestore.com/catalog/EN300-138664

> <ROCS_ShapeQuery>
hit0

> <ROCS_TanimotoCombo>
1.015 

> <ROCS_ShapeTanimoto>
0.520 

> <ROCS_ColorTanimoto>
0.495 

> <ROCS_RefTversky>
1.019 

> <ROCS_RefColorTversky>
0.509 

> <ROCS_RefTverskyCombo>
1.528 

> <ROCS_FitTversky>
0.515 

> <ROCS_FitColorTversky>
0.945 

> <ROCS_FitTverskyCombo>
1.461 

> <ROCS_ColorScore>
-2.978

> <ROCS_Overlap>
116.903

> <ROCS_Rank>
251                 

$$$$
untitled-dbase-25305_7
  -OEChem-06232314393D

 21 21  0     1  0  0  0  0  0999 V2000
   -7.0068    7.0899  -35.3278 C   0  0  0  0  0  0  0  0  0  0  0  0
   -4.8149    5.6507  -37.9758 C   0  0  0  0  0  0  0  0  0  0  0  0
   -6.3465    3.8883  -37.9686 C   0  0  0  0  0  0  0  0  0  0  0  0
   -5.4391    5.5840  -36.5901 C   0  0  2  0  0  0  0  0  0  0  0  0
   -5.8739    4.1307  -36.5495 C   0  0  1  0  0  0  0  0  0  0  0  0
   -8.1778    8.0028  -35.4822 C   0  0  0  0  0  0  0  0  0  0  0  0
   -6.5707    6.5082  -36.5112 N   0  0  0  0  0  0  0  0  0  0  0  0
   -6.5192    6.9154  -34.2172 O   0  0  0  0  0  0  0  0  0  0  0  0
   -5.5402    4.7274  -38.8090 O   0  0  0  0  0  0  0  0  0  0  0  0
   -6.8702    3.8680  -35.5850 O   0  0  0  0  0  0  0  0  0  0  0  0
   -4.9123    6.6465  -38.4296 H   0  0  0  0  0  0  0  0  0  0  0  0
   -3.7525    5.3778  -37.9716 H   0  0  0  0  0  0  0  0  0  0  0  0
   -6.1688    2.8527  -38.2755 H   0  0  0  0  0  0  0  0  0  0  0  0
   -7.3991    4.1389  -38.1257 H   0  0  0  0  0  0  0  0  0  0  0  0
   -4.7456    5.8205  -35.8330 H   0  0  0  0  0  0  0  0  0  0  0  0
   -4.9939    3.4462  -36.3015 H   0  0  0  0  0  0  0  0  0  0  0  0
   -9.1392    7.4757  -35.3730 H   0  0  0  0  0  0  0  0  0  0  0  0
   -8.1939    8.7986  -34.7203 H   0  0  0  0  0  0  0  0  0  0  0  0
   -8.2427    8.5265  -36.4494 H   0  0  0  0  0  0  0  0  0  0  0  0
   -7.0671    6.7383  -37.3739 H   0  0  0  0  0  0  0  0  0  0  0  0
   -7.6104    4.4633  -35.7816 H   0  0  0  0  0  0  0  0  0  0  0  0
  1  6  1  0  0  0  0
  1  7  1  0  0  0  0
  1  8  2  0  0  0  0
  2  4  1  0  0  0  0
  2  9  1  0  0  0  0
  3  5  1  0  0  0  0
  3  9  1  0  0  0  0
  4  5  1  0  0  0  0
  4  7  1  6  0  0  0
  5 10  1  6  0  0  0
  2 11  1  0  0  0  0
  2 12  1  0  0  0  0
  3 13  1  0  0  0  0
  3 14  1  0  0  0  0
  4 15  1  0  0  0  0
  5 16  1  0  0  0  0
  6 17  1  0  0  0  0
  6 18  1  0  0  0  0
  6 19  1  0  0  0  0
  7 20  1  0  0  0  0
 10 21  1  0  0  0  0
M  END
> <id>
EN300-359551

> <smiles>
CC(=O)N[C@@H]1COC[C@@H]1O

> <MDLNUMBER>
MFCD30538138

> <IUPAC Name>
N-[(3R,4R)-4-hydroxyoxolan-3-yl]acetamide

> <CAS>
2091265-13-1

> <URL>
https://www.enaminestore.com/catalog/EN300-359551

> <ROCS_ShapeQuery>
hit0

> <ROCS_TanimotoCombo>
1.014 

> <ROCS_ShapeTanimoto>
0.519 

> <ROCS_ColorTanimoto>
0.495 

> <ROCS_RefTversky>
1.460 

> <ROCS_RefColorTversky>
0.662 

> <ROCS_RefTverskyCombo>
2.123 

> <ROCS_FitTversky>
0.446 

> <ROCS_FitColorTversky>
0.662 

> <ROCS_FitTverskyCombo>
1.109 

> <ROCS_ColorScore>
-3.974

> <ROCS_Overlap>
181.259

> <ROCS_Rank>
252                 

$$$$
untitled-dbase-156346_1
  -OEChem-06232314393D

 14 14  0     0  0  0  0  0  0999 V2000
   -6.6733    5.7524  -34.4048 C   0  0  0  0  0  0  0  0  0  0  0  0
   -6.2311    7.7067  -35.5289 C   0  0  0  0  0  0  0  0  0  0  0  0
   -6.4512    5.6910  -36.7720 C   0  0  0  0  0  0  0  0  0  0  0  0
   -6.6831    5.0163  -35.5786 C   0  0  0  0  0  0  0  0  0  0  0  0
   -6.2199    7.0620  -36.7554 C   0  0  0  0  0  0  0  0  0  0  0  0
   -6.4552    4.9422  -38.0249 C   0  0  0  0  0  0  0  0  0  0  0  0
   -6.4526    7.0850  -34.3490 N   0  0  0  0  0  0  0  0  0  0  0  0
   -5.4788    4.8853  -38.7728 O   0  0  0  0  0  0  0  0  0  0  0  0
   -6.9139    3.6786  -35.5404 O   0  0  0  0  0  0  0  0  0  0  0  0
   -5.9250    7.9690  -38.1879 Cl  0  0  0  0  0  0  0  0  0  0  0  0
   -6.8483    5.2784  -33.4440 H   0  0  0  0  0  0  0  0  0  0  0  0
   -6.0577    8.7756  -35.4471 H   0  0  0  0  0  0  0  0  0  0  0  0
   -7.3907    4.4098  -38.2933 H   0  0  0  0  0  0  0  0  0  0  0  0
   -7.0538    3.3843  -34.6251 H   0  0  0  0  0  0  0  0  0  0  0  0
  1  4  2  0  0  0  0
  1  7  1  0  0  0  0
  2  5  1  0  0  0  0
  2  7  2  0  0  0  0
  3  4  1  0  0  0  0
  3  5  2  0  0  0  0
  3  6  1  0  0  0  0
  4  9  1  0  0  0  0
  5 10  1  0  0  0  0
  6  8  2  0  0  0  0
  1 11  1  0  0  0  0
  2 12  1  0  0  0  0
  6 13  1  0  0  0  0
  9 14  1  0  0  0  0
M  END
> <id>
EN300-7243463

> <smiles>
OC=1C=NC=C(Cl)C1C=O

> <MDLNUMBER>
MFCD18257765

> <IUPAC Name>
3-chloro-5-hydroxypyridine-4-carbaldehyde

> <CAS>
1256791-44-2

> <Purity>
95

> <URL>
https://www.enaminestore.com/catalog/EN300-7243463

> <ROCS_ShapeQuery>
hit0

> <ROCS_TanimotoCombo>
1.014 

> <ROCS_ShapeTanimoto>
0.459 

> <ROCS_ColorTanimoto>
0.555 

> <ROCS_RefTversky>
1.362 

> <ROCS_RefColorTversky>
0.660 

> <ROCS_RefTverskyCombo>
2.022 

> <ROCS_FitTversky>
0.409 

> <ROCS_FitColorTversky>
0.778 

> <ROCS_FitTverskyCombo>
1.187 

> <ROCS_ColorScore>
-3.927

> <ROCS_Overlap>
169.729

> <ROCS_Rank>
253                 

$$$$
untitled-dbase-153500_9
  -OEChem-06232314393D

 22 22  0     1  0  0  0  0  0999 V2000
   -5.9559    6.1188  -36.6807 C   0  0  0  0  0  0  0  0  0  0  0  0
   -6.7544    3.7447  -36.9939 C   0  0  0  0  0  0  0  0  0  0  0  0
   -6.5608    4.6484  -34.7184 C   0  0  0  0  0  0  0  0  0  0  0  0
   -5.6539    4.7549  -37.3055 C   0  0  1  0  0  0  0  0  0  0  0  0
   -6.7811    5.9984  -35.3980 C   0  0  1  0  0  0  0  0  0  0  0  0
   -7.0609    8.2719  -34.8750 C   0  0  0  0  0  0  0  0  0  0  0  0
   -6.9504    3.5179  -35.5624 N   0  0  0  0  0  0  0  0  0  0  0  0
   -5.5259    4.8881  -38.7164 O   0  0  0  0  0  0  0  0  0  0  0  0
   -6.4193    7.0563  -34.5174 O   0  0  0  0  0  0  0  0  0  0  0  0
   -5.0116    6.6426  -36.4609 H   0  0  0  0  0  0  0  0  0  0  0  0
   -6.4953    6.7602  -37.3953 H   0  0  0  0  0  0  0  0  0  0  0  0
   -7.7127    4.0924  -37.4140 H   0  0  0  0  0  0  0  0  0  0  0  0
   -6.5345    2.7817  -37.4865 H   0  0  0  0  0  0  0  0  0  0  0  0
   -5.5090    4.5412  -34.4029 H   0  0  0  0  0  0  0  0  0  0  0  0
   -7.1371    4.6106  -33.7799 H   0  0  0  0  0  0  0  0  0  0  0  0
   -4.6949    4.3863  -36.9251 H   0  0  0  0  0  0  0  0  0  0  0  0
   -7.8518    6.1257  -35.6404 H   0  0  0  0  0  0  0  0  0  0  0  0
   -6.7617    9.0607  -34.1804 H   0  0  0  0  0  0  0  0  0  0  0  0
   -8.1448    8.1358  -34.8436 H   0  0  0  0  0  0  0  0  0  0  0  0
   -6.7595    8.5482  -35.8882 H   0  0  0  0  0  0  0  0  0  0  0  0
   -7.9471    3.3147  -35.3961 H   0  0  0  0  0  0  0  0  0  0  0  0
   -5.3363    4.0018  -39.0604 H   0  0  0  0  0  0  0  0  0  0  0  0
  1  4  1  0  0  0  0
  1  5  1  0  0  0  0
  2  4  1  0  0  0  0
  2  7  1  0  0  0  0
  3  5  1  0  0  0  0
  3  7  1  0  0  0  0
  4  8  1  1  0  0  0
  5  9  1  6  0  0  0
  6  9  1  0  0  0  0
  1 10  1  0  0  0  0
  1 11  1  0  0  0  0
  2 12  1  0  0  0  0
  2 13  1  0  0  0  0
  3 14  1  0  0  0  0
  3 15  1  0  0  0  0
  4 16  1  0  0  0  0
  5 17  1  0  0  0  0
  6 18  1  0  0  0  0
  6 19  1  0  0  0  0
  6 20  1  0  0  0  0
  7 21  1  0  0  0  0
  8 22  1  0  0  0  0
M  END
> <id>
EN300-28247432

> <smiles>
CO[C@@H]1CNC[C@@H](O)C1

> <MDLNUMBER>
MFCD34183959

> <IUPAC Name>
(3S,5S)-5-methoxypiperidin-3-ol

> <CAS>
2679835-58-4

> <URL>
https://www.enaminestore.com/catalog/EN300-28247432

> <ROCS_ShapeQuery>
hit0

> <ROCS_TanimotoCombo>
1.014 

> <ROCS_ShapeTanimoto>
0.545 

> <ROCS_ColorTanimoto>
0.469 

> <ROCS_RefTversky>
1.385 

> <ROCS_RefColorTversky>
0.639 

> <ROCS_RefTverskyCombo>
2.023 

> <ROCS_FitTversky>
0.473 

> <ROCS_FitColorTversky>
0.639 

> <ROCS_FitTverskyCombo>
1.112 

> <ROCS_ColorScore>
-3.831

> <ROCS_Overlap>
168.149

> <ROCS_Rank>
254                 

$$$$
untitled-dbase-155675_9
  -OEChem-06232314393D

 22 22  0     1  0  0  0  0  0999 V2000
   -5.9559    6.1188  -36.6807 C   0  0  0  0  0  0  0  0  0  0  0  0
   -6.7544    3.7447  -36.9939 C   0  0  0  0  0  0  0  0  0  0  0  0
   -6.5608    4.6484  -34.7184 C   0  0  0  0  0  0  0  0  0  0  0  0
   -5.6539    4.7549  -37.3055 C   0  0  1  0  0  0  0  0  0  0  0  0
   -6.7811    5.9984  -35.3980 C   0  0  1  0  0  0  0  0  0  0  0  0
   -7.0609    8.2719  -34.8750 C   0  0  0  0  0  0  0  0  0  0  0  0
   -6.9504    3.5179  -35.5624 N   0  0  0  0  0  0  0  0  0  0  0  0
   -5.5259    4.8881  -38.7164 O   0  0  0  0  0  0  0  0  0  0  0  0
   -6.4193    7.0563  -34.5174 O   0  0  0  0  0  0  0  0  0  0  0  0
   -5.0116    6.6426  -36.4609 H   0  0  0  0  0  0  0  0  0  0  0  0
   -6.4953    6.7602  -37.3953 H   0  0  0  0  0  0  0  0  0  0  0  0
   -7.7127    4.0924  -37.4140 H   0  0  0  0  0  0  0  0  0  0  0  0
   -6.5345    2.7817  -37.4865 H   0  0  0  0  0  0  0  0  0  0  0  0
   -5.5090    4.5412  -34.4029 H   0  0  0  0  0  0  0  0  0  0  0  0
   -7.1371    4.6106  -33.7799 H   0  0  0  0  0  0  0  0  0  0  0  0
   -4.6949    4.3863  -36.9251 H   0  0  0  0  0  0  0  0  0  0  0  0
   -7.8518    6.1257  -35.6404 H   0  0  0  0  0  0  0  0  0  0  0  0
   -6.7617    9.0607  -34.1804 H   0  0  0  0  0  0  0  0  0  0  0  0
   -8.1448    8.1358  -34.8436 H   0  0  0  0  0  0  0  0  0  0  0  0
   -6.7595    8.5482  -35.8882 H   0  0  0  0  0  0  0  0  0  0  0  0
   -7.9471    3.3147  -35.3961 H   0  0  0  0  0  0  0  0  0  0  0  0
   -5.3363    4.0018  -39.0604 H   0  0  0  0  0  0  0  0  0  0  0  0
  1  4  1  0  0  0  0
  1  5  1  0  0  0  0
  2  4  1  0  0  0  0
  2  7  1  0  0  0  0
  3  5  1  0  0  0  0
  3  7  1  0  0  0  0
  4  8  1  1  0  0  0
  5  9  1  6  0  0  0
  6  9  1  0  0  0  0
  1 10  1  0  0  0  0
  1 11  1  0  0  0  0
  2 12  1  0  0  0  0
  2 13  1  0  0  0  0
  3 14  1  0  0  0  0
  3 15  1  0  0  0  0
  4 16  1  0  0  0  0
  5 17  1  0  0  0  0
  6 18  1  0  0  0  0
  6 19  1  0  0  0  0
  6 20  1  0  0  0  0
  7 21  1  0  0  0  0
  8 22  1  0  0  0  0
M  END
> <id>
EN300-28247431

> <smiles>
Cl.CO[C@@H]1CNC[C@@H](O)C1

> <MDLNUMBER>
MFCD34183235

> <IUPAC Name>
(3S,5S)-5-methoxypiperidin-3-ol hydrochloride

> <CAS>
2679949-75-6

> <Purity>
95

> <URL>
https://www.enaminestore.com/catalog/EN300-28247431

> <Saltdate>
Cl

> <ROCS_ShapeQuery>
hit0

> <ROCS_TanimotoCombo>
1.014 

> <ROCS_ShapeTanimoto>
0.545 

> <ROCS_ColorTanimoto>
0.469 

> <ROCS_RefTversky>
1.385 

> <ROCS_RefColorTversky>
0.639 

> <ROCS_RefTverskyCombo>
2.023 

> <ROCS_FitTversky>
0.473 

> <ROCS_FitColorTversky>
0.639 

> <ROCS_FitTverskyCombo>
1.112 

> <ROCS_ColorScore>
-3.831

> <ROCS_Overlap>
168.149

> <ROCS_Rank>
255                 

$$$$
untitled-dbase-102426_17
  -OEChem-06232314393D

 16 16  0     1  0  0  0  0  0999 V2000
   -6.1984    5.9483  -34.7956 C   0  0  0  0  0  0  0  0  0  0  0  0
   -5.9879    5.7456  -37.7779 C   0  0  0  0  0  0  0  0  0  0  0  0
   -5.3416    3.7744  -37.8141 C   0  0  0  0  0  0  0  0  0  0  0  0
   -5.1657    4.9048  -36.7750 C   0  0  0  0  0  0  0  0  0  0  0  0
   -5.7700    4.6810  -35.4055 C   0  0  2  0  0  0  0  0  0  0  0  0
   -6.5344    6.9503  -34.3165 N   0  0  0  0  0  0  0  0  0  0  0  0
   -5.5290    4.8237  -38.8412 N   0  0  0  0  0  0  0  0  0  0  0  0
   -6.8918    3.8104  -35.5453 O   0  0  0  0  0  0  0  0  0  0  0  0
   -7.0730    5.7265  -37.6199 H   0  0  0  0  0  0  0  0  0  0  0  0
   -5.6650    6.7828  -37.9020 H   0  0  0  0  0  0  0  0  0  0  0  0
   -4.4691    3.1339  -37.9683 H   0  0  0  0  0  0  0  0  0  0  0  0
   -6.2262    3.1434  -37.6658 H   0  0  0  0  0  0  0  0  0  0  0  0
   -4.1226    5.2450  -36.6986 H   0  0  0  0  0  0  0  0  0  0  0  0
   -5.0402    4.1796  -34.7571 H   0  0  0  0  0  0  0  0  0  0  0  0
   -6.2265    4.6079  -39.5514 H   0  0  0  0  0  0  0  0  0  0  0  0
   -6.5579    2.9950  -35.9491 H   0  0  0  0  0  0  0  0  0  0  0  0
  1  5  1  0  0  0  0
  1  6  3  0  0  0  0
  2  4  1  0  0  0  0
  2  7  1  0  0  0  0
  3  4  1  0  0  0  0
  3  7  1  0  0  0  0
  4  5  1  0  0  0  0
  5  8  1  0  0  0  0
  2  9  1  0  0  0  0
  2 10  1  0  0  0  0
  3 11  1  0  0  0  0
  3 12  1  0  0  0  0
  4 13  1  0  0  0  0
  5 14  1  0  0  0  0
  7 15  1  0  0  0  0
  8 16  1  0  0  0  0
M  END
> <id>
EN300-28317841

> <smiles>
OC(C#N)C1CNC1

> <IUPAC Name>
2-(azetidin-3-yl)-2-hydroxyacetonitrile

> <CAS>
2757927-18-5

> <URL>
https://www.enaminestore.com/catalog/EN300-28317841

> <ROCS_ShapeQuery>
hit0

> <ROCS_TanimotoCombo>
1.014 

> <ROCS_ShapeTanimoto>
0.515 

> <ROCS_ColorTanimoto>
0.499 

> <ROCS_RefTversky>
1.237 

> <ROCS_RefColorTversky>
0.666 

> <ROCS_RefTverskyCombo>
1.903 

> <ROCS_FitTversky>
0.468 

> <ROCS_FitColorTversky>
0.666 

> <ROCS_FitTverskyCombo>
1.134 

> <ROCS_ColorScore>
-3.996

> <ROCS_Overlap>
147.584

> <ROCS_Rank>
256                 

$$$$
untitled-dbase-16882_10
  -OEChem-06232314393D

 18 18  0     0  0  0  0  0  0999 V2000
   -7.4070    3.3644  -34.7224 C   0  0  0  0  0  0  0  0  0  0  0  0
   -6.8277    3.0635  -35.9551 C   0  0  0  0  0  0  0  0  0  0  0  0
   -7.2956    4.6509  -34.1949 C   0  0  0  0  0  0  0  0  0  0  0  0
   -6.1368    4.0490  -36.6601 C   0  0  0  0  0  0  0  0  0  0  0  0
   -6.6047    5.6364  -34.8999 C   0  0  0  0  0  0  0  0  0  0  0  0
   -6.0253    5.3354  -36.1326 C   0  0  0  0  0  0  0  0  0  0  0  0
   -5.5325    3.6799  -37.9770 C   0  0  0  0  0  0  0  0  0  0  0  0
   -6.5115    6.9292  -34.3362 N   0  0  0  0  0  0  0  0  0  0  0  0
   -5.5118    4.8237  -38.8201 O   0  0  0  0  0  0  0  0  0  0  0  0
   -5.1653    6.5556  -37.0139 Cl  0  0  0  0  0  0  0  0  0  0  0  0
   -7.9448    2.5971  -34.1733 H   0  0  0  0  0  0  0  0  0  0  0  0
   -6.9210    2.0582  -36.3566 H   0  0  0  0  0  0  0  0  0  0  0  0
   -7.7510    4.8729  -33.2330 H   0  0  0  0  0  0  0  0  0  0  0  0
   -4.5058    3.3130  -37.8539 H   0  0  0  0  0  0  0  0  0  0  0  0
   -6.1118    2.8874  -38.4670 H   0  0  0  0  0  0  0  0  0  0  0  0
   -6.9799    7.1174  -33.4748 H   0  0  0  0  0  0  0  0  0  0  0  0
   -6.0597    7.6527  -34.8552 H   0  0  0  0  0  0  0  0  0  0  0  0
   -4.9750    5.4951  -38.3686 H   0  0  0  0  0  0  0  0  0  0  0  0
  1  2  2  0  0  0  0
  1  3  1  0  0  0  0
  2  4  1  0  0  0  0
  3  5  2  0  0  0  0
  4  6  2  0  0  0  0
  4  7  1  0  0  0  0
  5  6  1  0  0  0  0
  5  8  1  0  0  0  0
  6 10  1  0  0  0  0
  7  9  1  0  0  0  0
  1 11  1  0  0  0  0
  2 12  1  0  0  0  0
  3 13  1  0  0  0  0
  7 14  1  0  0  0  0
  7 15  1  0  0  0  0
  8 16  1  0  0  0  0
  8 17  1  0  0  0  0
  9 18  1  0  0  0  0
M  END
> <id>
EN300-171937

> <smiles>
NC=1C=CC=C(CO)C1Cl

> <MDLNUMBER>
MFCD18389468

> <IUPAC Name>
(3-amino-2-chlorophenyl)methanol

> <CAS>
136774-74-8

> <Purity>
95

> <URL>
https://www.enaminestore.com/catalog/EN300-171937

> <ROCS_ShapeQuery>
hit0

> <ROCS_TanimotoCombo>
1.013 

> <ROCS_ShapeTanimoto>
0.442 

> <ROCS_ColorTanimoto>
0.571 

> <ROCS_RefTversky>
1.303 

> <ROCS_RefColorTversky>
0.672 

> <ROCS_RefTverskyCombo>
1.975 

> <ROCS_FitTversky>
0.401 

> <ROCS_FitColorTversky>
0.792 

> <ROCS_FitTverskyCombo>
1.193 

> <ROCS_ColorScore>
-3.999

> <ROCS_Overlap>
161.570

> <ROCS_Rank>
257                 

$$$$
untitled-dbase-94776_8
  -OEChem-06232314393D

 24 24  0     1  0  0  0  0  0999 V2000
   -5.3156    6.2544  -38.5628 C   0  0  0  0  0  0  0  0  0  0  0  0
   -5.1015    4.8767  -38.6017 C   0  0  0  0  0  0  0  0  0  0  0  0
   -6.0518    6.8166  -37.5198 C   0  0  0  0  0  0  0  0  0  0  0  0
   -5.6235    4.0610  -37.5978 C   0  0  0  0  0  0  0  0  0  0  0  0
   -6.5739    6.0010  -36.5159 C   0  0  0  0  0  0  0  0  0  0  0  0
   -6.3597    4.6232  -36.5549 C   0  0  0  0  0  0  0  0  0  0  0  0
   -5.3783    2.5885  -37.6670 C   0  0  0  0  0  0  0  0  0  0  0  0
   -8.0532    7.9251  -35.8392 C   0  0  0  0  0  0  0  0  0  0  0  0
   -7.3593    6.6319  -35.4124 C   0  0  2  0  0  0  0  0  0  0  0  0
   -6.8900    3.7962  -35.5377 N   0  0  0  0  0  0  0  0  0  0  0  0
   -6.4768    6.9327  -34.3264 O   0  0  0  0  0  0  0  0  0  0  0  0
   -4.9089    6.8895  -39.3443 H   0  0  0  0  0  0  0  0  0  0  0  0
   -4.5259    4.4486  -39.4186 H   0  0  0  0  0  0  0  0  0  0  0  0
   -6.2134    7.8909  -37.4991 H   0  0  0  0  0  0  0  0  0  0  0  0
   -4.4524    2.3334  -37.1393 H   0  0  0  0  0  0  0  0  0  0  0  0
   -6.2053    2.0282  -37.2145 H   0  0  0  0  0  0  0  0  0  0  0  0
   -5.2937    2.2502  -38.7068 H   0  0  0  0  0  0  0  0  0  0  0  0
   -7.3344    8.6438  -36.2454 H   0  0  0  0  0  0  0  0  0  0  0  0
   -8.5746    8.3954  -34.9978 H   0  0  0  0  0  0  0  0  0  0  0  0
   -8.8143    7.7242  -36.6011 H   0  0  0  0  0  0  0  0  0  0  0  0
   -8.1267    5.9486  -35.0133 H   0  0  0  0  0  0  0  0  0  0  0  0
   -7.3740    4.2183  -34.7736 H   0  0  0  0  0  0  0  0  0  0  0  0
   -6.6889    2.8186  -35.5549 H   0  0  0  0  0  0  0  0  0  0  0  0
   -6.0940    6.0883  -34.0477 H   0  0  0  0  0  0  0  0  0  0  0  0
  1  2  2  0  0  0  0
  1  3  1  0  0  0  0
  2  4  1  0  0  0  0
  3  5  2  0  0  0  0
  4  6  2  0  0  0  0
  4  7  1  0  0  0  0
  5  6  1  0  0  0  0
  5  9  1  0  0  0  0
  6 10  1  0  0  0  0
  8  9  1  0  0  0  0
  9 11  1  0  0  0  0
  1 12  1  0  0  0  0
  2 13  1  0  0  0  0
  3 14  1  0  0  0  0
  7 15  1  0  0  0  0
  7 16  1  0  0  0  0
  7 17  1  0  0  0  0
  8 18  1  0  0  0  0
  8 19  1  0  0  0  0
  8 20  1  0  0  0  0
  9 21  1  0  0  0  0
 10 22  1  0  0  0  0
 10 23  1  0  0  0  0
 11 24  1  0  0  0  0
M  END
> <id>
EN300-6802149

> <smiles>
CC(O)C=1C=CC=C(C)C1N

> <MDLNUMBER>
MFCD01941170

> <IUPAC Name>
1-(2-amino-3-methylphenyl)ethan-1-ol

> <CAS>
196611-19-5

> <Purity>
95

> <URL>
https://www.enaminestore.com/catalog/EN300-6802149

> <ROCS_ShapeQuery>
hit0

> <ROCS_TanimotoCombo>
1.013 

> <ROCS_ShapeTanimoto>
0.442 

> <ROCS_ColorTanimoto>
0.571 

> <ROCS_RefTversky>
1.400 

> <ROCS_RefColorTversky>
0.672 

> <ROCS_RefTverskyCombo>
2.072 

> <ROCS_FitTversky>
0.393 

> <ROCS_FitColorTversky>
0.792 

> <ROCS_FitTverskyCombo>
1.184 

> <ROCS_ColorScore>
-3.997

> <ROCS_Overlap>
177.090

> <ROCS_Rank>
258                 

$$$$
untitled-dbase-12089_5
  -OEChem-06232314393D

 18 18  0     0  0  0  0  0  0999 V2000
   -6.4636    6.8955  -38.4819 C   0  0  0  0  0  0  0  0  0  0  0  0
   -6.8059    8.0793  -37.8285 C   0  0  0  0  0  0  0  0  0  0  0  0
   -6.1524    5.8074  -36.3473 C   0  0  0  0  0  0  0  0  0  0  0  0
   -6.4946    6.9913  -35.6939 C   0  0  0  0  0  0  0  0  0  0  0  0
   -6.1369    5.7595  -37.7413 C   0  0  0  0  0  0  0  0  0  0  0  0
   -6.8214    8.1273  -36.4346 C   0  0  0  0  0  0  0  0  0  0  0  0
   -5.8035    4.5920  -35.5437 C   0  0  0  0  0  0  0  0  0  0  0  0
   -6.5078    7.0307  -34.2790 N   0  0  0  0  0  0  0  0  0  0  0  0
   -6.8892    3.6778  -35.5870 O   0  0  0  0  0  0  0  0  0  0  0  0
   -5.7197    4.3145  -38.5895 Cl  0  0  0  0  0  0  0  0  0  0  0  0
   -7.2515    9.6156  -35.6693 Cl  0  0  0  0  0  0  0  0  0  0  0  0
   -6.4560    6.8751  -39.5689 H   0  0  0  0  0  0  0  0  0  0  0  0
   -7.0570    8.9559  -38.4205 H   0  0  0  0  0  0  0  0  0  0  0  0
   -4.9083    4.1001  -35.9417 H   0  0  0  0  0  0  0  0  0  0  0  0
   -5.6023    4.8592  -34.4999 H   0  0  0  0  0  0  0  0  0  0  0  0
   -6.3167    6.1938  -33.7710 H   0  0  0  0  0  0  0  0  0  0  0  0
   -6.7995    7.8682  -33.8223 H   0  0  0  0  0  0  0  0  0  0  0  0
   -6.6286    2.9061  -35.0580 H   0  0  0  0  0  0  0  0  0  0  0  0
  1  2  2  0  0  0  0
  1  5  1  0  0  0  0
  2  6  1  0  0  0  0
  3  4  1  0  0  0  0
  3  5  2  0  0  0  0
  3  7  1  0  0  0  0
  4  6  2  0  0  0  0
  4  8  1  0  0  0  0
  5 10  1  0  0  0  0
  6 11  1  0  0  0  0
  7  9  1  0  0  0  0
  1 12  1  0  0  0  0
  2 13  1  0  0  0  0
  7 14  1  0  0  0  0
  7 15  1  0  0  0  0
  8 16  1  0  0  0  0
  8 17  1  0  0  0  0
  9 18  1  0  0  0  0
M  END
> <id>
EN300-190262

> <smiles>
NC=1C(Cl)=CC=C(Cl)C1CO

> <MDLNUMBER>
MFCD20695928

> <IUPAC Name>
(2-amino-3,6-dichlorophenyl)methanol

> <CAS>
58579-67-2

> <Purity>
95

> <URL>
https://www.enaminestore.com/catalog/EN300-190262

> <ROCS_ShapeQuery>
hit0

> <ROCS_TanimotoCombo>
1.013 

> <ROCS_ShapeTanimoto>
0.457 

> <ROCS_ColorTanimoto>
0.556 

> <ROCS_RefTversky>
1.406 

> <ROCS_RefColorTversky>
0.661 

> <ROCS_RefTverskyCombo>
2.067 

> <ROCS_FitTversky>
0.404 

> <ROCS_FitColorTversky>
0.778 

> <ROCS_FitTverskyCombo>
1.182 

> <ROCS_ColorScore>
-3.930

> <ROCS_Overlap>
176.965

> <ROCS_Rank>
259                 

$$$$
untitled-dbase-107149_8
  -OEChem-06232314393D

 18 18  0     0  0  0  0  0  0999 V2000
   -7.4626    3.3562  -34.7200 C   0  0  0  0  0  0  0  0  0  0  0  0
   -6.8818    3.0436  -35.9491 C   0  0  0  0  0  0  0  0  0  0  0  0
   -7.3359    4.6426  -34.1958 C   0  0  0  0  0  0  0  0  0  0  0  0
   -6.1742    4.0173  -36.6539 C   0  0  0  0  0  0  0  0  0  0  0  0
   -6.6282    5.6164  -34.9006 C   0  0  0  0  0  0  0  0  0  0  0  0
   -6.0474    5.3037  -36.1297 C   0  0  0  0  0  0  0  0  0  0  0  0
   -5.5548    3.6796  -37.9679 C   0  0  0  0  0  0  0  0  0  0  0  0
   -6.5020    6.9164  -34.3682 N   0  0  0  0  0  0  0  0  0  0  0  0
   -5.5225    4.8417  -38.7874 O   0  0  0  0  0  0  0  0  0  0  0  0
   -5.3673    6.2400  -36.8084 F   0  0  0  0  0  0  0  0  0  0  0  0
   -8.0143    2.5985  -34.1714 H   0  0  0  0  0  0  0  0  0  0  0  0
   -6.9861    2.0387  -36.3492 H   0  0  0  0  0  0  0  0  0  0  0  0
   -7.7923    4.8756  -33.2372 H   0  0  0  0  0  0  0  0  0  0  0  0
   -4.5280    3.3092  -37.8437 H   0  0  0  0  0  0  0  0  0  0  0  0
   -6.1261    2.8976  -38.4866 H   0  0  0  0  0  0  0  0  0  0  0  0
   -6.9634    7.1387  -33.5095 H   0  0  0  0  0  0  0  0  0  0  0  0
   -6.0332    7.6190  -34.9034 H   0  0  0  0  0  0  0  0  0  0  0  0
   -5.1143    4.5791  -39.6279 H   0  0  0  0  0  0  0  0  0  0  0  0
  1  2  2  0  0  0  0
  1  3  1  0  0  0  0
  2  4  1  0  0  0  0
  3  5  2  0  0  0  0
  4  6  2  0  0  0  0
  4  7  1  0  0  0  0
  5  6  1  0  0  0  0
  5  8  1  0  0  0  0
  6 10  1  0  0  0  0
  7  9  1  0  0  0  0
  1 11  1  0  0  0  0
  2 12  1  0  0  0  0
  3 13  1  0  0  0  0
  7 14  1  0  0  0  0
  7 15  1  0  0  0  0
  8 16  1  0  0  0  0
  8 17  1  0  0  0  0
  9 18  1  0  0  0  0
M  END
> <id>
EN300-6206148

> <smiles>
NC=1C=CC=C(CO)C1F

> <MDLNUMBER>
MFCD11846488

> <IUPAC Name>
(3-amino-2-fluorophenyl)methanol

> <CAS>
1051899-73-0

> <Purity>
95

> <URL>
https://www.enaminestore.com/catalog/EN300-6206148

> <ROCS_ShapeQuery>
hit0

> <ROCS_TanimotoCombo>
1.013 

> <ROCS_ShapeTanimoto>
0.442 

> <ROCS_ColorTanimoto>
0.570 

> <ROCS_RefTversky>
1.329 

> <ROCS_RefColorTversky>
0.672 

> <ROCS_RefTverskyCombo>
2.001 

> <ROCS_FitTversky>
0.399 

> <ROCS_FitColorTversky>
0.791 

> <ROCS_FitTverskyCombo>
1.190 

> <ROCS_ColorScore>
-3.996

> <ROCS_Overlap>
165.618

> <ROCS_Rank>
260                 

$$$$
untitled-dbase-6075_6
  -OEChem-06232314393D

 18 18  0     0  0  0  0  0  0999 V2000
   -6.0596    7.9216  -35.8518 C   0  0  0  0  0  0  0  0  0  0  0  0
   -5.4072    7.0212  -36.6939 C   0  0  0  0  0  0  0  0  0  0  0  0
   -6.9771    7.4563  -34.9098 C   0  0  0  0  0  0  0  0  0  0  0  0
   -5.6724    5.6554  -36.5941 C   0  0  0  0  0  0  0  0  0  0  0  0
   -6.5899    5.1901  -35.6521 C   0  0  0  0  0  0  0  0  0  0  0  0
   -7.2423    6.0906  -34.8100 C   0  0  0  0  0  0  0  0  0  0  0  0
   -4.9584    4.7132  -37.5079 C   0  0  0  0  0  0  0  0  0  0  0  0
   -6.8676    3.8100  -35.5380 N   0  0  0  0  0  0  0  0  0  0  0  0
   -5.5217    4.8042  -38.8097 O   0  0  0  0  0  0  0  0  0  0  0  0
   -8.1235    5.6553  -33.8981 F   0  0  0  0  0  0  0  0  0  0  0  0
   -5.8533    8.9850  -35.9302 H   0  0  0  0  0  0  0  0  0  0  0  0
   -4.6948    7.3943  -37.4248 H   0  0  0  0  0  0  0  0  0  0  0  0
   -7.4850    8.1570  -34.2536 H   0  0  0  0  0  0  0  0  0  0  0  0
   -3.8887    4.9517  -37.5689 H   0  0  0  0  0  0  0  0  0  0  0  0
   -5.0473    3.6780  -37.1543 H   0  0  0  0  0  0  0  0  0  0  0  0
   -6.4333    3.1728  -36.1732 H   0  0  0  0  0  0  0  0  0  0  0  0
   -7.5631    3.5066  -34.8882 H   0  0  0  0  0  0  0  0  0  0  0  0
   -5.0331    4.1803  -39.3705 H   0  0  0  0  0  0  0  0  0  0  0  0
  1  2  1  0  0  0  0
  1  3  2  0  0  0  0
  2  4  2  0  0  0  0
  3  6  1  0  0  0  0
  4  5  1  0  0  0  0
  4  7  1  0  0  0  0
  5  6  2  0  0  0  0
  5  8  1  0  0  0  0
  6 10  1  0  0  0  0
  7  9  1  0  0  0  0
  1 11  1  0  0  0  0
  2 12  1  0  0  0  0
  3 13  1  0  0  0  0
  7 14  1  0  0  0  0
  7 15  1  0  0  0  0
  8 16  1  0  0  0  0
  8 17  1  0  0  0  0
  9 18  1  0  0  0  0
M  END
> <id>
EN300-116272

> <smiles>
NC=1C(F)=CC=CC1CO

> <MDLNUMBER>
MFCD12923270

> <IUPAC Name>
(2-amino-3-fluorophenyl)methanol

> <CAS>
906811-49-2

> <Purity>
95

> <URL>
https://www.enaminestore.com/catalog/EN300-116272

> <ROCS_ShapeQuery>
hit0

> <ROCS_TanimotoCombo>
1.013 

> <ROCS_ShapeTanimoto>
0.441 

> <ROCS_ColorTanimoto>
0.571 

> <ROCS_RefTversky>
1.327 

> <ROCS_RefColorTversky>
0.672 

> <ROCS_RefTverskyCombo>
1.999 

> <ROCS_FitTversky>
0.398 

> <ROCS_FitColorTversky>
0.792 

> <ROCS_FitTverskyCombo>
1.190 

> <ROCS_ColorScore>
-3.999

> <ROCS_Overlap>
165.407

> <ROCS_Rank>
261                 

$$$$
untitled-dbase-143760_2
  -OEChem-06232314393D

 19 19  0     0  0  0  0  0  0999 V2000
   -5.9568    5.9844  -36.6216 C   0  0  0  0  0  0  0  0  0  0  0  0
   -6.4705    3.6750  -36.8653 C   0  0  0  0  0  0  0  0  0  0  0  0
   -5.9775    4.8456  -37.4190 C   0  0  0  0  0  0  0  0  0  0  0  0
   -6.4232    5.9189  -35.3133 C   0  0  0  0  0  0  0  0  0  0  0  0
   -6.8964    4.7003  -34.8540 C   0  0  0  0  0  0  0  0  0  0  0  0
   -7.4094    4.5761  -33.4570 C   0  0  0  0  0  0  0  0  0  0  0  0
   -7.5666    7.8589  -34.5489 C   0  0  0  0  0  0  0  0  0  0  0  0
   -6.9321    3.5727  -35.5989 N   0  0  0  0  0  0  0  0  0  0  0  0
   -5.5308    4.8808  -38.6987 O   0  0  0  0  0  0  0  0  0  0  0  0
   -6.4072    7.0250  -34.5263 O   0  0  0  0  0  0  0  0  0  0  0  0
   -5.5769    6.9218  -37.0193 H   0  0  0  0  0  0  0  0  0  0  0  0
   -6.5101    2.7557  -37.4415 H   0  0  0  0  0  0  0  0  0  0  0  0
   -8.4843    4.7887  -33.4266 H   0  0  0  0  0  0  0  0  0  0  0  0
   -7.2414    3.5669  -33.0612 H   0  0  0  0  0  0  0  0  0  0  0  0
   -6.8959    5.2729  -32.7827 H   0  0  0  0  0  0  0  0  0  0  0  0
   -7.4198    8.7066  -33.8751 H   0  0  0  0  0  0  0  0  0  0  0  0
   -8.4395    7.2794  -34.2379 H   0  0  0  0  0  0  0  0  0  0  0  0
   -7.7198    8.2273  -35.5660 H   0  0  0  0  0  0  0  0  0  0  0  0
   -5.2222    5.7738  -38.9283 H   0  0  0  0  0  0  0  0  0  0  0  0
  1  3  1  0  0  0  0
  1  4  2  0  0  0  0
  2  3  2  0  0  0  0
  2  8  1  0  0  0  0
  3  9  1  0  0  0  0
  4  5  1  0  0  0  0
  4 10  1  0  0  0  0
  5  6  1  0  0  0  0
  5  8  2  0  0  0  0
  7 10  1  0  0  0  0
  1 11  1  0  0  0  0
  2 12  1  0  0  0  0
  6 13  1  0  0  0  0
  6 14  1  0  0  0  0
  6 15  1  0  0  0  0
  7 16  1  0  0  0  0
  7 17  1  0  0  0  0
  7 18  1  0  0  0  0
  9 19  1  0  0  0  0
M  END
> <id>
EN300-39672499

> <smiles>
Cl.COC=1C=C(O)C=NC1C

> <IUPAC Name>
5-methoxy-6-methylpyridin-3-ol hydrochloride

> <CAS>
2839157-48-9

> <Purity>
95

> <URL>
https://www.enaminestore.com/catalog/EN300-39672499

> <ROCS_ShapeQuery>
hit0

> <ROCS_TanimotoCombo>
1.013 

> <ROCS_ShapeTanimoto>
0.473 

> <ROCS_ColorTanimoto>
0.539 

> <ROCS_RefTversky>
1.402 

> <ROCS_RefColorTversky>
0.648 

> <ROCS_RefTverskyCombo>
2.050 

> <ROCS_FitTversky>
0.417 

> <ROCS_FitColorTversky>
0.763 

> <ROCS_FitTverskyCombo>
1.180 

> <ROCS_ColorScore>
-3.854

> <ROCS_Overlap>
175.025

> <ROCS_Rank>
262                 

$$$$
untitled-dbase-140488_2
  -OEChem-06232314393D

 19 19  0     0  0  0  0  0  0999 V2000
   -5.9568    5.9844  -36.6216 C   0  0  0  0  0  0  0  0  0  0  0  0
   -6.4705    3.6750  -36.8653 C   0  0  0  0  0  0  0  0  0  0  0  0
   -5.9775    4.8456  -37.4190 C   0  0  0  0  0  0  0  0  0  0  0  0
   -6.4232    5.9189  -35.3133 C   0  0  0  0  0  0  0  0  0  0  0  0
   -6.8964    4.7003  -34.8540 C   0  0  0  0  0  0  0  0  0  0  0  0
   -7.4094    4.5761  -33.4570 C   0  0  0  0  0  0  0  0  0  0  0  0
   -7.5666    7.8589  -34.5489 C   0  0  0  0  0  0  0  0  0  0  0  0
   -6.9321    3.5727  -35.5989 N   0  0  0  0  0  0  0  0  0  0  0  0
   -5.5308    4.8808  -38.6987 O   0  0  0  0  0  0  0  0  0  0  0  0
   -6.4072    7.0250  -34.5263 O   0  0  0  0  0  0  0  0  0  0  0  0
   -5.5769    6.9218  -37.0193 H   0  0  0  0  0  0  0  0  0  0  0  0
   -6.5101    2.7557  -37.4415 H   0  0  0  0  0  0  0  0  0  0  0  0
   -8.4843    4.7887  -33.4266 H   0  0  0  0  0  0  0  0  0  0  0  0
   -7.2414    3.5669  -33.0612 H   0  0  0  0  0  0  0  0  0  0  0  0
   -6.8959    5.2729  -32.7827 H   0  0  0  0  0  0  0  0  0  0  0  0
   -7.4198    8.7066  -33.8751 H   0  0  0  0  0  0  0  0  0  0  0  0
   -8.4395    7.2794  -34.2379 H   0  0  0  0  0  0  0  0  0  0  0  0
   -7.7198    8.2273  -35.5660 H   0  0  0  0  0  0  0  0  0  0  0  0
   -5.2222    5.7738  -38.9283 H   0  0  0  0  0  0  0  0  0  0  0  0
  1  3  1  0  0  0  0
  1  4  2  0  0  0  0
  2  3  2  0  0  0  0
  2  8  1  0  0  0  0
  3  9  1  0  0  0  0
  4  5  1  0  0  0  0
  4 10  1  0  0  0  0
  5  6  1  0  0  0  0
  5  8  2  0  0  0  0
  7 10  1  0  0  0  0
  1 11  1  0  0  0  0
  2 12  1  0  0  0  0
  6 13  1  0  0  0  0
  6 14  1  0  0  0  0
  6 15  1  0  0  0  0
  7 16  1  0  0  0  0
  7 17  1  0  0  0  0
  7 18  1  0  0  0  0
  9 19  1  0  0  0  0
M  END
> <id>
EN300-5190695

> <smiles>
COC=1C=C(O)C=NC1C

> <MDLNUMBER>
MFCD18255608

> <IUPAC Name>
5-methoxy-6-methylpyridin-3-ol

> <CAS>
1256793-06-2

> <Purity>
95

> <URL>
https://www.enaminestore.com/catalog/EN300-5190695

> <ROCS_ShapeQuery>
hit0

> <ROCS_TanimotoCombo>
1.013 

> <ROCS_ShapeTanimoto>
0.473 

> <ROCS_ColorTanimoto>
0.539 

> <ROCS_RefTversky>
1.402 

> <ROCS_RefColorTversky>
0.648 

> <ROCS_RefTverskyCombo>
2.050 

> <ROCS_FitTversky>
0.417 

> <ROCS_FitColorTversky>
0.763 

> <ROCS_FitTverskyCombo>
1.180 

> <ROCS_ColorScore>
-3.854

> <ROCS_Overlap>
175.025

> <ROCS_Rank>
263                 

$$$$
untitled-dbase-38575_19
  -OEChem-06232314393D

 19 19  0     1  0  0  0  0  0999 V2000
   -7.1696    6.1223  -36.5915 C   0  0  0  0  0  0  0  0  0  0  0  0
   -7.6775    6.7056  -35.2870 C   0  0  0  0  0  0  0  0  0  0  0  0
   -5.5809    5.7363  -34.8181 C   0  0  0  0  0  0  0  0  0  0  0  0
   -6.1195    5.1273  -36.1165 C   0  0  2  0  0  0  0  0  0  0  0  0
   -5.0445    4.8597  -37.1602 C   0  0  0  0  0  0  0  0  0  0  0  0
   -6.4645    6.8687  -34.4801 N   0  0  0  0  0  0  0  0  0  0  0  0
   -6.7789    3.8953  -35.8161 O   0  0  0  0  0  0  0  0  0  0  0  0
   -5.6594    4.7729  -38.4339 O   0  0  0  0  0  0  0  0  0  0  0  0
   -7.9712    5.6345  -37.1410 H   0  0  0  0  0  0  0  0  0  0  0  0
   -6.7387    6.9140  -37.2005 H   0  0  0  0  0  0  0  0  0  0  0  0
   -8.1451    7.6749  -35.4587 H   0  0  0  0  0  0  0  0  0  0  0  0
   -8.3905    6.0509  -34.7923 H   0  0  0  0  0  0  0  0  0  0  0  0
   -5.5701    5.0098  -33.9799 H   0  0  0  0  0  0  0  0  0  0  0  0
   -4.5406    6.1062  -34.9430 H   0  0  0  0  0  0  0  0  0  0  0  0
   -4.5363    3.9187  -36.9433 H   0  0  0  0  0  0  0  0  0  0  0  0
   -4.3176    5.6736  -37.1684 H   0  0  0  0  0  0  0  0  0  0  0  0
   -6.0067    7.7562  -34.6871 H   0  0  0  0  0  0  0  0  0  0  0  0
   -6.0896    3.2840  -35.5178 H   0  0  0  0  0  0  0  0  0  0  0  0
   -6.2963    4.0397  -38.3928 H   0  0  0  0  0  0  0  0  0  0  0  0
  1  2  1  0  0  0  0
  1  4  1  0  0  0  0
  2  6  1  0  0  0  0
  3  4  1  0  0  0  0
  3  6  1  0  0  0  0
  4  5  1  0  0  0  0
  4  7  1  0  0  0  0
  5  8  1  0  0  0  0
  1  9  1  0  0  0  0
  1 10  1  0  0  0  0
  2 11  1  0  0  0  0
  2 12  1  0  0  0  0
  3 13  1  0  0  0  0
  3 14  1  0  0  0  0
  5 15  1  0  0  0  0
  5 16  1  0  0  0  0
  6 17  1  0  0  0  0
  7 18  1  0  0  0  0
  8 19  1  0  0  0  0
M  END
> <id>
EN300-252521

> <smiles>
OCC1(O)CCNC1

> <MDLNUMBER>
MFCD22393911

> <IUPAC Name>
3-(hydroxymethyl)pyrrolidin-3-ol

> <CAS>
1363381-92-3

> <URL>
https://www.enaminestore.com/catalog/EN300-252521

> <ROCS_ShapeQuery>
hit0

> <ROCS_TanimotoCombo>
1.013 

> <ROCS_ShapeTanimoto>
0.483 

> <ROCS_ColorTanimoto>
0.530 

> <ROCS_RefTversky>
1.199 

> <ROCS_RefColorTversky>
0.744 

> <ROCS_RefTverskyCombo>
1.943 

> <ROCS_FitTversky>
0.447 

> <ROCS_FitColorTversky>
0.648 

> <ROCS_FitTverskyCombo>
1.095 

> <ROCS_ColorScore>
-4.502

> <ROCS_Overlap>
143.413

> <ROCS_Rank>
264                 

$$$$
untitled-dbase-123050_19
  -OEChem-06232314393D

 19 19  0     1  0  0  0  0  0999 V2000
   -7.1696    6.1223  -36.5915 C   0  0  0  0  0  0  0  0  0  0  0  0
   -7.6775    6.7056  -35.2870 C   0  0  0  0  0  0  0  0  0  0  0  0
   -5.5809    5.7363  -34.8181 C   0  0  0  0  0  0  0  0  0  0  0  0
   -6.1195    5.1273  -36.1165 C   0  0  2  0  0  0  0  0  0  0  0  0
   -5.0445    4.8597  -37.1602 C   0  0  0  0  0  0  0  0  0  0  0  0
   -6.4645    6.8687  -34.4801 N   0  0  0  0  0  0  0  0  0  0  0  0
   -6.7789    3.8953  -35.8161 O   0  0  0  0  0  0  0  0  0  0  0  0
   -5.6594    4.7729  -38.4339 O   0  0  0  0  0  0  0  0  0  0  0  0
   -7.9712    5.6345  -37.1410 H   0  0  0  0  0  0  0  0  0  0  0  0
   -6.7387    6.9140  -37.2005 H   0  0  0  0  0  0  0  0  0  0  0  0
   -8.1451    7.6749  -35.4587 H   0  0  0  0  0  0  0  0  0  0  0  0
   -8.3905    6.0509  -34.7923 H   0  0  0  0  0  0  0  0  0  0  0  0
   -5.5701    5.0098  -33.9799 H   0  0  0  0  0  0  0  0  0  0  0  0
   -4.5406    6.1062  -34.9430 H   0  0  0  0  0  0  0  0  0  0  0  0
   -4.5363    3.9187  -36.9433 H   0  0  0  0  0  0  0  0  0  0  0  0
   -4.3176    5.6736  -37.1684 H   0  0  0  0  0  0  0  0  0  0  0  0
   -6.0067    7.7562  -34.6871 H   0  0  0  0  0  0  0  0  0  0  0  0
   -6.0896    3.2840  -35.5178 H   0  0  0  0  0  0  0  0  0  0  0  0
   -6.2963    4.0397  -38.3928 H   0  0  0  0  0  0  0  0  0  0  0  0
  1  2  1  0  0  0  0
  1  4  1  0  0  0  0
  2  6  1  0  0  0  0
  3  4  1  0  0  0  0
  3  6  1  0  0  0  0
  4  5  1  0  0  0  0
  4  7  1  0  0  0  0
  5  8  1  0  0  0  0
  1  9  1  0  0  0  0
  1 10  1  0  0  0  0
  2 11  1  0  0  0  0
  2 12  1  0  0  0  0
  3 13  1  0  0  0  0
  3 14  1  0  0  0  0
  5 15  1  0  0  0  0
  5 16  1  0  0  0  0
  6 17  1  0  0  0  0
  7 18  1  0  0  0  0
  8 19  1  0  0  0  0
M  END
> <id>
EN300-781107

> <smiles>
Cl.OCC1(O)CCNC1

> <MDLNUMBER>
MFCD26096974

> <IUPAC Name>
3-(hydroxymethyl)pyrrolidin-3-ol hydrochloride

> <CAS>
1439900-52-3

> <Purity>
95

> <URL>
https://www.enaminestore.com/catalog/EN300-781107

> <Saltdate>
Cl

> <ROCS_ShapeQuery>
hit0

> <ROCS_TanimotoCombo>
1.013 

> <ROCS_ShapeTanimoto>
0.483 

> <ROCS_ColorTanimoto>
0.530 

> <ROCS_RefTversky>
1.199 

> <ROCS_RefColorTversky>
0.744 

> <ROCS_RefTverskyCombo>
1.943 

> <ROCS_FitTversky>
0.447 

> <ROCS_FitColorTversky>
0.648 

> <ROCS_FitTverskyCombo>
1.095 

> <ROCS_ColorScore>
-4.502

> <ROCS_Overlap>
143.413

> <ROCS_Rank>
265                 

$$$$
untitled-dbase-164066_0
  -OEChem-06232314393D

 15 15  0     1  0  0  0  0  0999 V2000
   -6.5139    4.6897  -35.7312 C   0  0  0  0  0  0  0  0  0  0  0  0
   -6.1315    5.7849  -36.6888 C   0  0  1  0  0  0  0  0  0  0  0  0
   -5.8061    5.9190  -35.2226 C   0  0  1  0  0  0  0  0  0  0  0  0
   -5.0419    5.5654  -37.6807 C   0  0  0  0  0  0  0  0  0  0  0  0
   -6.5208    6.8931  -34.3915 N   0  0  0  0  0  0  0  0  0  0  0  0
   -5.5374    4.8149  -38.7896 O   0  0  0  0  0  0  0  0  0  0  0  0
   -7.5667    4.5657  -35.5066 H   0  0  0  0  0  0  0  0  0  0  0  0
   -5.9547    3.7620  -35.7551 H   0  0  0  0  0  0  0  0  0  0  0  0
   -6.9308    6.3919  -37.0979 H   0  0  0  0  0  0  0  0  0  0  0  0
   -4.7689    5.7876  -34.9308 H   0  0  0  0  0  0  0  0  0  0  0  0
   -4.2000    5.0028  -37.2439 H   0  0  0  0  0  0  0  0  0  0  0  0
   -4.6463    6.5183  -38.0700 H   0  0  0  0  0  0  0  0  0  0  0  0
   -6.4968    6.5705  -33.4552 H   0  0  0  0  0  0  0  0  0  0  0  0
   -6.0581    7.7648  -34.4788 H   0  0  0  0  0  0  0  0  0  0  0  0
   -5.8508    3.9711  -38.4309 H   0  0  0  0  0  0  0  0  0  0  0  0
  1  2  1  0  0  0  0
  1  3  1  0  0  0  0
  2  3  1  0  0  0  0
  2  4  1  0  0  0  0
  3  5  1  0  0  0  0
  4  6  1  0  0  0  0
  1  7  1  0  0  0  0
  1  8  1  0  0  0  0
  2  9  1  0  0  0  0
  3 10  1  0  0  0  0
  4 11  1  0  0  0  0
  4 12  1  0  0  0  0
  5 13  1  0  0  0  0
  5 14  1  0  0  0  0
  6 15  1  0  0  0  0
M  END
> <id>
EN300-719119

> <smiles>
Cl.NC1CC1CO

> <MDLNUMBER>
MFCD31440497

> <IUPAC Name>
(2-aminocyclopropyl)methanol hydrochloride

> <CAS>
2138345-68-1

> <URL>
https://www.enaminestore.com/catalog/EN300-719119

> <Saltdate>
Cl

> <ROCS_ShapeQuery>
hit0

> <ROCS_TanimotoCombo>
1.012 

> <ROCS_ShapeTanimoto>
0.585 

> <ROCS_ColorTanimoto>
0.428 

> <ROCS_RefTversky>
1.089 

> <ROCS_RefColorTversky>
0.508 

> <ROCS_RefTverskyCombo>
1.597 

> <ROCS_FitTversky>
0.558 

> <ROCS_FitColorTversky>
0.730 

> <ROCS_FitTverskyCombo>
1.288 

> <ROCS_ColorScore>
-2.995

> <ROCS_Overlap>
124.698

> <ROCS_Rank>
266                 

$$$$
untitled-dbase-96050_0
  -OEChem-06232314393D

 15 15  0     1  0  0  0  0  0999 V2000
   -6.5139    4.6897  -35.7312 C   0  0  0  0  0  0  0  0  0  0  0  0
   -6.1315    5.7849  -36.6888 C   0  0  1  0  0  0  0  0  0  0  0  0
   -5.8061    5.9190  -35.2226 C   0  0  1  0  0  0  0  0  0  0  0  0
   -5.0419    5.5654  -37.6807 C   0  0  0  0  0  0  0  0  0  0  0  0
   -6.5208    6.8931  -34.3915 N   0  0  0  0  0  0  0  0  0  0  0  0
   -5.5374    4.8149  -38.7896 O   0  0  0  0  0  0  0  0  0  0  0  0
   -7.5667    4.5657  -35.5066 H   0  0  0  0  0  0  0  0  0  0  0  0
   -5.9547    3.7620  -35.7551 H   0  0  0  0  0  0  0  0  0  0  0  0
   -6.9308    6.3919  -37.0979 H   0  0  0  0  0  0  0  0  0  0  0  0
   -4.7689    5.7876  -34.9308 H   0  0  0  0  0  0  0  0  0  0  0  0
   -4.2000    5.0028  -37.2439 H   0  0  0  0  0  0  0  0  0  0  0  0
   -4.6463    6.5183  -38.0700 H   0  0  0  0  0  0  0  0  0  0  0  0
   -6.4968    6.5705  -33.4552 H   0  0  0  0  0  0  0  0  0  0  0  0
   -6.0581    7.7648  -34.4788 H   0  0  0  0  0  0  0  0  0  0  0  0
   -5.8508    3.9711  -38.4309 H   0  0  0  0  0  0  0  0  0  0  0  0
  1  2  1  0  0  0  0
  1  3  1  0  0  0  0
  2  3  1  0  0  0  0
  2  4  1  0  0  0  0
  3  5  1  0  0  0  0
  4  6  1  0  0  0  0
  1  7  1  0  0  0  0
  1  8  1  0  0  0  0
  2  9  1  0  0  0  0
  3 10  1  0  0  0  0
  4 11  1  0  0  0  0
  4 12  1  0  0  0  0
  5 13  1  0  0  0  0
  5 14  1  0  0  0  0
  6 15  1  0  0  0  0
M  END
> <id>
EN300-135353

> <smiles>
NC1CC1CO

> <MDLNUMBER>
MFCD19211285

> <IUPAC Name>
(2-aminocyclopropyl)methanol

> <CAS>
1314929-43-5

> <URL>
https://www.enaminestore.com/catalog/EN300-135353

> <ROCS_ShapeQuery>
hit0

> <ROCS_TanimotoCombo>
1.012 

> <ROCS_ShapeTanimoto>
0.585 

> <ROCS_ColorTanimoto>
0.428 

> <ROCS_RefTversky>
1.089 

> <ROCS_RefColorTversky>
0.508 

> <ROCS_RefTverskyCombo>
1.597 

> <ROCS_FitTversky>
0.558 

> <ROCS_FitColorTversky>
0.730 

> <ROCS_FitTverskyCombo>
1.288 

> <ROCS_ColorScore>
-2.995

> <ROCS_Overlap>
124.698

> <ROCS_Rank>
267                 

$$$$
untitled-dbase-60559_4
  -OEChem-06232314393D

 17 17  0     0  0  0  0  0  0999 V2000
   -6.0271    7.8647  -35.7555 C   0  0  0  0  0  0  0  0  0  0  0  0
   -5.3853    6.9795  -36.6217 C   0  0  0  0  0  0  0  0  0  0  0  0
   -6.9494    7.3849  -34.8255 C   0  0  0  0  0  0  0  0  0  0  0  0
   -5.6659    5.6147  -36.5579 C   0  0  0  0  0  0  0  0  0  0  0  0
   -6.5882    5.1349  -35.6279 C   0  0  0  0  0  0  0  0  0  0  0  0
   -7.2300    6.0201  -34.7617 C   0  0  0  0  0  0  0  0  0  0  0  0
   -4.9697    4.6820  -37.4930 C   0  0  0  0  0  0  0  0  0  0  0  0
   -6.8723    3.8046  -35.5529 O   0  0  0  0  0  0  0  0  0  0  0  0
   -5.5340    4.8094  -38.7918 O   0  0  0  0  0  0  0  0  0  0  0  0
   -8.1165    5.5654  -33.8654 F   0  0  0  0  0  0  0  0  0  0  0  0
   -5.8093    8.9275  -35.8053 H   0  0  0  0  0  0  0  0  0  0  0  0
   -4.6687    7.3630  -37.3436 H   0  0  0  0  0  0  0  0  0  0  0  0
   -7.4494    8.0738  -34.1512 H   0  0  0  0  0  0  0  0  0  0  0  0
   -3.8960    4.9039  -37.5524 H   0  0  0  0  0  0  0  0  0  0  0  0
   -5.0738    3.6401  -37.1624 H   0  0  0  0  0  0  0  0  0  0  0  0
   -7.5295    3.6410  -34.8584 H   0  0  0  0  0  0  0  0  0  0  0  0
   -6.4742    4.5813  -38.7118 H   0  0  0  0  0  0  0  0  0  0  0  0
  1  2  1  0  0  0  0
  1  3  2  0  0  0  0
  2  4  2  0  0  0  0
  3  6  1  0  0  0  0
  4  5  1  0  0  0  0
  4  7  1  0  0  0  0
  5  6  2  0  0  0  0
  5  8  1  0  0  0  0
  6 10  1  0  0  0  0
  7  9  1  0  0  0  0
  1 11  1  0  0  0  0
  2 12  1  0  0  0  0
  3 13  1  0  0  0  0
  7 14  1  0  0  0  0
  7 15  1  0  0  0  0
  8 16  1  0  0  0  0
  9 17  1  0  0  0  0
M  END
> <id>
EN300-1853105

> <smiles>
OCC=1C=CC=C(F)C1O

> <MDLNUMBER>
MFCD06202611

> <IUPAC Name>
2-fluoro-6-(hydroxymethyl)phenol

> <CAS>
446-58-2

> <URL>
https://www.enaminestore.com/catalog/EN300-1853105

> <ROCS_ShapeQuery>
hit0

> <ROCS_TanimotoCombo>
1.012 

> <ROCS_ShapeTanimoto>
0.441 

> <ROCS_ColorTanimoto>
0.571 

> <ROCS_RefTversky>
1.329 

> <ROCS_RefColorTversky>
0.672 

> <ROCS_RefTverskyCombo>
2.001 

> <ROCS_FitTversky>
0.397 

> <ROCS_FitColorTversky>
0.792 

> <ROCS_FitTverskyCombo>
1.189 

> <ROCS_ColorScore>
-3.998

> <ROCS_Overlap>
165.769

> <ROCS_Rank>
268                 

$$$$
untitled-dbase-38597_5
  -OEChem-06232314393D

 14 14  0     0  0  0  0  0  0999 V2000
   -6.3724    7.2059  -36.6906 C   0  0  0  0  0  0  0  0  0  0  0  0
   -6.6558    5.7515  -34.3993 C   0  0  0  0  0  0  0  0  0  0  0  0
   -6.5439    5.8286  -36.7737 C   0  0  0  0  0  0  0  0  0  0  0  0
   -6.6891    5.0803  -35.6109 C   0  0  0  0  0  0  0  0  0  0  0  0
   -6.3534    7.7821  -35.4307 C   0  0  0  0  0  0  0  0  0  0  0  0
   -6.5687    5.1909  -38.0824 C   0  0  0  0  0  0  0  0  0  0  0  0
   -6.4911    7.0879  -34.2787 N   0  0  0  0  0  0  0  0  0  0  0  0
   -5.5553    4.7666  -38.6427 O   0  0  0  0  0  0  0  0  0  0  0  0
   -6.8589    3.7336  -35.6413 O   0  0  0  0  0  0  0  0  0  0  0  0
   -6.1471    9.4739  -35.2317 Cl  0  0  0  0  0  0  0  0  0  0  0  0
   -6.2572    7.8090  -37.5861 H   0  0  0  0  0  0  0  0  0  0  0  0
   -6.7639    5.2186  -33.4597 H   0  0  0  0  0  0  0  0  0  0  0  0
   -7.5557    5.0921  -38.5828 H   0  0  0  0  0  0  0  0  0  0  0  0
   -6.9425    3.3812  -34.7396 H   0  0  0  0  0  0  0  0  0  0  0  0
  1  3  2  0  0  0  0
  1  5  1  0  0  0  0
  2  4  2  0  0  0  0
  2  7  1  0  0  0  0
  3  4  1  0  0  0  0
  3  6  1  0  0  0  0
  4  9  1  0  0  0  0
  5  7  2  0  0  0  0
  5 10  1  0  0  0  0
  6  8  2  0  0  0  0
  1 11  1  0  0  0  0
  2 12  1  0  0  0  0
  6 13  1  0  0  0  0
  9 14  1  0  0  0  0
M  END
> <id>
EN300-153644

> <smiles>
OC=1C=NC(Cl)=CC1C=O

> <MDLNUMBER>
MFCD13189121

> <IUPAC Name>
2-chloro-5-hydroxypyridine-4-carbaldehyde

> <CAS>
1060804-53-6

> <Purity>
95

> <URL>
https://www.enaminestore.com/catalog/EN300-153644

> <ROCS_ShapeQuery>
hit0

> <ROCS_TanimotoCombo>
1.012 

> <ROCS_ShapeTanimoto>
0.461 

> <ROCS_ColorTanimoto>
0.551 

> <ROCS_RefTversky>
1.371 

> <ROCS_RefColorTversky>
0.657 

> <ROCS_RefTverskyCombo>
2.027 

> <ROCS_FitTversky>
0.410 

> <ROCS_FitColorTversky>
0.773 

> <ROCS_FitTverskyCombo>
1.183 

> <ROCS_ColorScore>
-3.906

> <ROCS_Overlap>
170.873

> <ROCS_Rank>
269                 

$$$$
untitled-dbase-73377_191
  -OEChem-06232314393D

 25 25  0     0  0  0  0  0  0999 V2000
   -4.3109    4.8858  -36.9136 C   0  0  0  0  0  0  0  0  0  0  0  0
   -6.0624    6.5983  -37.6628 C   0  0  0  0  0  0  0  0  0  0  0  0
   -4.9222    5.2510  -35.5596 C   0  0  0  0  0  0  0  0  0  0  0  0
   -7.0915    5.9537  -36.7301 C   0  0  0  0  0  0  0  0  0  0  0  0
   -4.9598    5.6294  -38.0853 C   0  0  0  0  0  0  0  0  0  0  0  0
   -6.4622    5.1745  -35.5469 C   0  0  0  0  0  0  0  0  0  0  0  0
   -6.9865    5.7236  -34.2108 C   0  0  0  0  0  0  0  0  0  0  0  0
   -6.8704    3.7621  -35.6166 N   0  0  0  0  0  0  0  0  0  0  0  0
   -5.4857    4.6834  -39.0163 O   0  0  0  0  0  0  0  0  0  0  0  0
   -6.5544    7.0627  -34.0847 O   0  0  0  0  0  0  0  0  0  0  0  0
   -3.2295    5.1013  -36.9016 H   0  0  0  0  0  0  0  0  0  0  0  0
   -4.3727    3.7979  -37.0833 H   0  0  0  0  0  0  0  0  0  0  0  0
   -6.5590    7.0117  -38.5549 H   0  0  0  0  0  0  0  0  0  0  0  0
   -5.6114    7.4706  -37.1643 H   0  0  0  0  0  0  0  0  0  0  0  0
   -4.4978    4.5981  -34.7860 H   0  0  0  0  0  0  0  0  0  0  0  0
   -4.6067    6.2716  -35.3042 H   0  0  0  0  0  0  0  0  0  0  0  0
   -7.7405    6.7474  -36.3326 H   0  0  0  0  0  0  0  0  0  0  0  0
   -7.7460    5.2942  -37.3168 H   0  0  0  0  0  0  0  0  0  0  0  0
   -4.1691    6.1969  -38.6270 H   0  0  0  0  0  0  0  0  0  0  0  0
   -6.5858    5.1303  -33.3933 H   0  0  0  0  0  0  0  0  0  0  0  0
   -8.0725    5.6864  -34.2050 H   0  0  0  0  0  0  0  0  0  0  0  0
   -6.5095    3.3856  -36.4576 H   0  0  0  0  0  0  0  0  0  0  0  0
   -6.4925    3.3008  -34.8269 H   0  0  0  0  0  0  0  0  0  0  0  0
   -5.8846    5.1955  -39.7374 H   0  0  0  0  0  0  0  0  0  0  0  0
   -6.8932    7.3967  -33.2356 H   0  0  0  0  0  0  0  0  0  0  0  0
  1  3  1  0  0  0  0
  1  5  1  0  0  0  0
  2  4  1  0  0  0  0
  2  5  1  0  0  0  0
  3  6  1  0  0  0  0
  4  6  1  0  0  0  0
  5  9  1  0  0  0  0
  6  7  1  0  0  0  0
  6  8  1  0  0  0  0
  7 10  1  0  0  0  0
  1 11  1  0  0  0  0
  1 12  1  0  0  0  0
  2 13  1  0  0  0  0
  2 14  1  0  0  0  0
  3 15  1  0  0  0  0
  3 16  1  0  0  0  0
  4 17  1  0  0  0  0
  4 18  1  0  0  0  0
  5 19  1  0  0  0  0
  7 20  1  0  0  0  0
  7 21  1  0  0  0  0
  8 22  1  0  0  0  0
  8 23  1  0  0  0  0
  9 24  1  0  0  0  0
 10 25  1  0  0  0  0
M  END
> <id>
EN300-748918

> <smiles>
Cl.NC1(CO)CCC(O)CC1

> <MDLNUMBER>
MFCD32640344

> <IUPAC Name>
4-amino-4-(hydroxymethyl)cyclohexan-1-ol hydrochloride

> <CAS>
2106726-96-7

> <URL>
https://www.enaminestore.com/catalog/EN300-748918

> <ROCS_ShapeQuery>
hit0

> <ROCS_TanimotoCombo>
1.011 

> <ROCS_ShapeTanimoto>
0.445 

> <ROCS_ColorTanimoto>
0.567 

> <ROCS_RefTversky>
1.287 

> <ROCS_RefColorTversky>
0.777 

> <ROCS_RefTverskyCombo>
2.064 

> <ROCS_FitTversky>
0.405 

> <ROCS_FitColorTversky>
0.677 

> <ROCS_FitTverskyCombo>
1.081 

> <ROCS_ColorScore>
-4.703

> <ROCS_Overlap>
158.794

> <ROCS_Rank>
270                 

$$$$
untitled-dbase-121878_21
  -OEChem-06232314393D

 23 23  0     1  0  0  0  0  0999 V2000
   -5.9891    5.1247  -37.9177 C   0  0  0  0  0  0  0  0  0  0  0  0
   -7.6294    5.7542  -36.4327 C   0  0  0  0  0  0  0  0  0  0  0  0
   -5.3225    5.1583  -36.5531 C   0  0  0  0  0  0  0  0  0  0  0  0
   -6.5516    5.0481  -35.6306 C   0  0  1  0  0  0  0  0  0  0  0  0
   -4.5687    6.4912  -36.4413 C   0  0  0  0  0  0  0  0  0  0  0  0
   -4.3412    3.9916  -36.4059 C   0  0  0  0  0  0  0  0  0  0  0  0
   -6.3929    5.6187  -34.2264 C   0  0  0  0  0  0  0  0  0  0  0  0
   -5.4408    4.8654  -38.9786 O   0  0  0  0  0  0  0  0  0  0  0  0
   -7.3102    5.4639  -37.8018 O   0  0  0  0  0  0  0  0  0  0  0  0
   -6.9333    3.6724  -35.5016 O   0  0  0  0  0  0  0  0  0  0  0  0
   -6.4957    7.0295  -34.2975 O   0  0  0  0  0  0  0  0  0  0  0  0
   -8.6328    5.3690  -36.2253 H   0  0  0  0  0  0  0  0  0  0  0  0
   -7.6272    6.8421  -36.3086 H   0  0  0  0  0  0  0  0  0  0  0  0
   -4.0785    6.5487  -35.4739 H   0  0  0  0  0  0  0  0  0  0  0  0
   -5.2717    7.3130  -36.5414 H   0  0  0  0  0  0  0  0  0  0  0  0
   -3.8243    6.5521  -37.2298 H   0  0  0  0  0  0  0  0  0  0  0  0
   -3.8731    4.0298  -35.4252 H   0  0  0  0  0  0  0  0  0  0  0  0
   -3.5742    4.0607  -37.1736 H   0  0  0  0  0  0  0  0  0  0  0  0
   -4.8746    3.0501  -36.5137 H   0  0  0  0  0  0  0  0  0  0  0  0
   -5.4167    5.3493  -33.8221 H   0  0  0  0  0  0  0  0  0  0  0  0
   -7.1785    5.2334  -33.5756 H   0  0  0  0  0  0  0  0  0  0  0  0
   -7.7843    3.6720  -35.0413 H   0  0  0  0  0  0  0  0  0  0  0  0
   -6.3915    7.3690  -33.3923 H   0  0  0  0  0  0  0  0  0  0  0  0
  1  3  1  0  0  0  0
  1  8  2  0  0  0  0
  1  9  1  0  0  0  0
  2  4  1  0  0  0  0
  2  9  1  0  0  0  0
  3  4  1  0  0  0  0
  3  5  1  0  0  0  0
  3  6  1  0  0  0  0
  4  7  1  0  0  0  0
  4 10  1  0  0  0  0
  7 11  1  0  0  0  0
  2 12  1  0  0  0  0
  2 13  1  0  0  0  0
  5 14  1  0  0  0  0
  5 15  1  0  0  0  0
  5 16  1  0  0  0  0
  6 17  1  0  0  0  0
  6 18  1  0  0  0  0
  6 19  1  0  0  0  0
  7 20  1  0  0  0  0
  7 21  1  0  0  0  0
 10 22  1  0  0  0  0
 11 23  1  0  0  0  0
M  END
> <id>
EN300-6493583

> <smiles>
CC1(C)C(=O)OCC1(O)CO

> <MDLNUMBER>
MFCD31737346

> <IUPAC Name>
4-hydroxy-4-(hydroxymethyl)-3,3-dimethyloxolan-2-one

> <CAS>
2260932-18-9

> <Purity>
95

> <URL>
https://www.enaminestore.com/catalog/EN300-6493583

> <ROCS_ShapeQuery>
hit0

> <ROCS_TanimotoCombo>
1.011 

> <ROCS_ShapeTanimoto>
0.408 

> <ROCS_ColorTanimoto>
0.603 

> <ROCS_RefTversky>
1.337 

> <ROCS_RefColorTversky>
0.808 

> <ROCS_RefTverskyCombo>
2.145 

> <ROCS_FitTversky>
0.370 

> <ROCS_FitColorTversky>
0.703 

> <ROCS_FitTverskyCombo>
1.073 

> <ROCS_ColorScore>
-4.889

> <ROCS_Overlap>
169.576

> <ROCS_Rank>
271                 

$$$$
untitled-dbase-86020_2
  -OEChem-06232314393D

 15 15  0     0  0  0  0  0  0999 V2000
   -4.9555    6.4866  -37.1234 C   0  0  0  0  0  0  0  0  0  0  0  0
   -4.9438    5.9989  -38.4203 C   0  0  0  0  0  0  0  0  0  0  0  0
   -5.6119    5.7384  -36.1526 C   0  0  0  0  0  0  0  0  0  0  0  0
   -6.2279    4.5421  -36.5033 C   0  0  0  0  0  0  0  0  0  0  0  0
   -6.1594    4.1415  -37.8279 C   0  0  0  0  0  0  0  0  0  0  0  0
   -5.6338    6.2352  -34.7830 C   0  0  0  0  0  0  0  0  0  0  0  0
   -5.5309    4.8415  -38.7989 N   0  0  0  0  0  0  0  0  0  0  0  0
   -6.8975    3.7675  -35.5353 N   0  0  0  0  0  0  0  0  0  0  0  0
   -6.5203    6.9750  -34.3516 O   0  0  0  0  0  0  0  0  0  0  0  0
   -6.8794    2.6831  -38.3932 Cl  0  0  0  0  0  0  0  0  0  0  0  0
   -4.4640    7.4241  -36.8854 H   0  0  0  0  0  0  0  0  0  0  0  0
   -4.4451    6.5446  -39.2145 H   0  0  0  0  0  0  0  0  0  0  0  0
   -4.8044    5.9212  -34.1146 H   0  0  0  0  0  0  0  0  0  0  0  0
   -7.3736    2.9345  -35.8192 H   0  0  0  0  0  0  0  0  0  0  0  0
   -6.9671    4.1099  -34.5976 H   0  0  0  0  0  0  0  0  0  0  0  0
  1  2  1  0  0  0  0
  1  3  2  0  0  0  0
  2  7  2  0  0  0  0
  3  4  1  0  0  0  0
  3  6  1  0  0  0  0
  4  5  2  0  0  0  0
  4  8  1  0  0  0  0
  5  7  1  0  0  0  0
  5 10  1  0  0  0  0
  6  9  2  0  0  0  0
  1 11  1  0  0  0  0
  2 12  1  0  0  0  0
  6 13  1  0  0  0  0
  8 14  1  0  0  0  0
  8 15  1  0  0  0  0
M  END
> <id>
EN300-2994980

> <smiles>
NC=1C(Cl)=NC=CC1C=O

> <MDLNUMBER>
MFCD17168843

> <IUPAC Name>
3-amino-2-chloropyridine-4-carbaldehyde

> <CAS>
1289046-28-1

> <Purity>
95

> <URL>
https://www.enaminestore.com/catalog/EN300-2994980

> <ROCS_ShapeQuery>
hit0

> <ROCS_TanimotoCombo>
1.011 

> <ROCS_ShapeTanimoto>
0.441 

> <ROCS_ColorTanimoto>
0.569 

> <ROCS_RefTversky>
1.327 

> <ROCS_RefColorTversky>
0.671 

> <ROCS_RefTverskyCombo>
1.998 

> <ROCS_FitTversky>
0.398 

> <ROCS_FitColorTversky>
0.790 

> <ROCS_FitTverskyCombo>
1.188 

> <ROCS_ColorScore>
-3.992

> <ROCS_Overlap>
165.421

> <ROCS_Rank>
272                 

$$$$
untitled-dbase-56711_5
  -OEChem-06232314393D

 21 21  0     0  0  0  0  0  0999 V2000
   -6.7909    8.0798  -37.8233 C   0  0  0  0  0  0  0  0  0  0  0  0
   -6.4487    6.8964  -38.4776 C   0  0  0  0  0  0  0  0  0  0  0  0
   -6.8106    8.1254  -36.4293 C   0  0  0  0  0  0  0  0  0  0  0  0
   -6.1461    5.8042  -36.3439 C   0  0  0  0  0  0  0  0  0  0  0  0
   -6.4883    6.9876  -35.6896 C   0  0  0  0  0  0  0  0  0  0  0  0
   -6.1264    5.7586  -37.7379 C   0  0  0  0  0  0  0  0  0  0  0  0
   -7.1797    9.4083  -35.7574 C   0  0  0  0  0  0  0  0  0  0  0  0
   -5.8022    4.5878  -35.5401 C   0  0  0  0  0  0  0  0  0  0  0  0
   -6.5078    7.0379  -34.2762 N   0  0  0  0  0  0  0  0  0  0  0  0
   -6.8894    3.6754  -35.5876 O   0  0  0  0  0  0  0  0  0  0  0  0
   -5.7085    4.3142  -38.5869 Cl  0  0  0  0  0  0  0  0  0  0  0  0
   -7.0372    8.9614  -38.4093 H   0  0  0  0  0  0  0  0  0  0  0  0
   -6.4380    6.8780  -39.5645 H   0  0  0  0  0  0  0  0  0  0  0  0
   -8.2621    9.4515  -35.5918 H   0  0  0  0  0  0  0  0  0  0  0  0
   -6.6730    9.5081  -34.7900 H   0  0  0  0  0  0  0  0  0  0  0  0
   -6.8833   10.2722  -36.3646 H   0  0  0  0  0  0  0  0  0  0  0  0
   -4.9065    4.0944  -35.9353 H   0  0  0  0  0  0  0  0  0  0  0  0
   -5.6040    4.8537  -34.4953 H   0  0  0  0  0  0  0  0  0  0  0  0
   -6.3212    6.2046  -33.7598 H   0  0  0  0  0  0  0  0  0  0  0  0
   -6.7995    7.8797  -33.8262 H   0  0  0  0  0  0  0  0  0  0  0  0
   -6.6317    2.9030  -35.0582 H   0  0  0  0  0  0  0  0  0  0  0  0
  1  2  1  0  0  0  0
  1  3  2  0  0  0  0
  2  6  2  0  0  0  0
  3  5  1  0  0  0  0
  3  7  1  0  0  0  0
  4  5  2  0  0  0  0
  4  6  1  0  0  0  0
  4  8  1  0  0  0  0
  5  9  1  0  0  0  0
  6 11  1  0  0  0  0
  8 10  1  0  0  0  0
  1 12  1  0  0  0  0
  2 13  1  0  0  0  0
  7 14  1  0  0  0  0
  7 15  1  0  0  0  0
  7 16  1  0  0  0  0
  8 17  1  0  0  0  0
  8 18  1  0  0  0  0
  9 19  1  0  0  0  0
  9 20  1  0  0  0  0
 10 21  1  0  0  0  0
M  END
> <id>
EN300-1696998

> <smiles>
CC=1C=CC(Cl)=C(CO)C1N

> <MDLNUMBER>
MFCD29495600

> <IUPAC Name>
(2-amino-6-chloro-3-methylphenyl)methanol

> <CAS>
1603354-77-3

> <Purity>
95

> <URL>
https://www.enaminestore.com/catalog/EN300-1696998

> <ROCS_ShapeQuery>
hit0

> <ROCS_TanimotoCombo>
1.010 

> <ROCS_ShapeTanimoto>
0.456 

> <ROCS_ColorTanimoto>
0.555 

> <ROCS_RefTversky>
1.417 

> <ROCS_RefColorTversky>
0.660 

> <ROCS_RefTverskyCombo>
2.077 

> <ROCS_FitTversky>
0.402 

> <ROCS_FitColorTversky>
0.777 

> <ROCS_FitTverskyCombo>
1.179 

> <ROCS_ColorScore>
-3.925

> <ROCS_Overlap>
178.844

> <ROCS_Rank>
273                 

$$$$
untitled-dbase-96066_3
  -OEChem-06232314393D

 19 19  0     0  0  0  0  0  0999 V2000
   -6.3785    5.7790  -36.7096 C   0  0  0  0  0  0  0  0  0  0  0  0
   -5.8009    6.0537  -37.9821 C   0  0  0  0  0  0  0  0  0  0  0  0
   -6.4646    4.4179  -36.5126 C   0  0  0  0  0  0  0  0  0  0  0  0
   -6.8189    6.7544  -35.7465 C   0  0  0  0  0  0  0  0  0  0  0  0
   -5.5527    7.4026  -38.5362 C   0  0  0  0  0  0  0  0  0  0  0  0
   -8.3230    8.5861  -35.3842 C   0  0  0  0  0  0  0  0  0  0  0  0
   -5.4563    5.0100  -38.7327 N   0  0  0  0  0  0  0  0  0  0  0  0
   -6.9504    3.7440  -35.4424 N   0  0  0  0  0  0  0  0  0  0  0  0
   -6.3748    6.8653  -34.5871 O   0  0  0  0  0  0  0  0  0  0  0  0
   -7.8022    7.5712  -36.2493 O   0  0  0  0  0  0  0  0  0  0  0  0
   -5.8339    3.6258  -37.8941 S   0  0  0  0  0  0  0  0  0  0  0  0
   -4.5506    7.7645  -38.2583 H   0  0  0  0  0  0  0  0  0  0  0  0
   -5.6231    7.4140  -39.6361 H   0  0  0  0  0  0  0  0  0  0  0  0
   -6.2900    8.1374  -38.1735 H   0  0  0  0  0  0  0  0  0  0  0  0
   -9.0920    9.1560  -35.9115 H   0  0  0  0  0  0  0  0  0  0  0  0
   -7.5132    9.2498  -35.0709 H   0  0  0  0  0  0  0  0  0  0  0  0
   -8.7635    8.1115  -34.5043 H   0  0  0  0  0  0  0  0  0  0  0  0
   -7.2834    4.2299  -34.5996 H   0  0  0  0  0  0  0  0  0  0  0  0
   -6.9204    2.7177  -35.3874 H   0  0  0  0  0  0  0  0  0  0  0  0
  1  2  1  0  0  0  0
  1  3  2  0  0  0  0
  1  4  1  0  0  0  0
  2  5  1  0  0  0  0
  2  7  2  0  0  0  0
  3  8  1  0  0  0  0
  3 11  1  0  0  0  0
  4  9  2  0  0  0  0
  4 10  1  0  0  0  0
  6 10  1  0  0  0  0
  7 11  1  0  0  0  0
  5 12  1  0  0  0  0
  5 13  1  0  0  0  0
  5 14  1  0  0  0  0
  6 15  1  0  0  0  0
  6 16  1  0  0  0  0
  6 17  1  0  0  0  0
  8 18  1  0  0  0  0
  8 19  1  0  0  0  0
M  END
> <id>
EN300-34882

> <smiles>
COC(=O)C=1C(C)=NSC1N

> <MDLNUMBER>
MFCD20542754

> <IUPAC Name>
methyl 5-amino-3-methyl-1,2-thiazole-4-carboxylate

> <CAS>
1421637-14-0

> <Purity>
95

> <URL>
https://www.enaminestore.com/catalog/EN300-34882

> <ROCS_ShapeQuery>
hit0

> <ROCS_TanimotoCombo>
1.010 

> <ROCS_ShapeTanimoto>
0.474 

> <ROCS_ColorTanimoto>
0.536 

> <ROCS_RefTversky>
1.464 

> <ROCS_RefColorTversky>
0.645 

> <ROCS_RefTverskyCombo>
2.110 

> <ROCS_FitTversky>
0.412 

> <ROCS_FitColorTversky>
0.760 

> <ROCS_FitTverskyCombo>
1.173 

> <ROCS_ColorScore>
-3.839

> <ROCS_Overlap>
185.071

> <ROCS_Rank>
274                 

$$$$
untitled-dbase-29537_1
  -OEChem-06232314393D

 20 20  0     0  0  0  0  0  0999 V2000
   -7.0014    7.3752  -34.8218 C   0  0  0  0  0  0  0  0  0  0  0  0
   -6.0793    7.8714  -35.7433 C   0  0  0  0  0  0  0  0  0  0  0  0
   -7.2636    6.0063  -34.7655 C   0  0  0  0  0  0  0  0  0  0  0  0
   -5.4194    6.9987  -36.6085 C   0  0  0  0  0  0  0  0  0  0  0  0
   -5.6815    5.6298  -36.5522 C   0  0  0  0  0  0  0  0  0  0  0  0
   -6.6036    5.1336  -35.6306 C   0  0  0  0  0  0  0  0  0  0  0  0
   -4.4366    7.5553  -37.5858 C   0  0  0  0  0  0  0  0  0  0  0  0
   -4.9784    4.6896  -37.4784 C   0  0  0  0  0  0  0  0  0  0  0  0
   -6.8737    3.8000  -35.5617 O   0  0  0  0  0  0  0  0  0  0  0  0
   -5.5390    4.8066  -38.7789 O   0  0  0  0  0  0  0  0  0  0  0  0
   -7.5151    8.0556  -34.1489 H   0  0  0  0  0  0  0  0  0  0  0  0
   -5.8825    8.9396  -35.7807 H   0  0  0  0  0  0  0  0  0  0  0  0
   -7.9842    5.6270  -34.0461 H   0  0  0  0  0  0  0  0  0  0  0  0
   -3.4341    7.5811  -37.1433 H   0  0  0  0  0  0  0  0  0  0  0  0
   -4.4001    6.9497  -38.4997 H   0  0  0  0  0  0  0  0  0  0  0  0
   -4.7118    8.5734  -37.8881 H   0  0  0  0  0  0  0  0  0  0  0  0
   -3.9061    4.9150  -37.5340 H   0  0  0  0  0  0  0  0  0  0  0  0
   -5.0825    3.6518  -37.1381 H   0  0  0  0  0  0  0  0  0  0  0  0
   -7.5340    3.6272  -34.8724 H   0  0  0  0  0  0  0  0  0  0  0  0
   -5.0587    4.1839  -39.3484 H   0  0  0  0  0  0  0  0  0  0  0  0
  1  2  1  0  0  0  0
  1  3  2  0  0  0  0
  2  4  2  0  0  0  0
  3  6  1  0  0  0  0
  4  5  1  0  0  0  0
  4  7  1  0  0  0  0
  5  6  2  0  0  0  0
  5  8  1  0  0  0  0
  6  9  1  0  0  0  0
  8 10  1  0  0  0  0
  1 11  1  0  0  0  0
  2 12  1  0  0  0  0
  3 13  1  0  0  0  0
  7 14  1  0  0  0  0
  7 15  1  0  0  0  0
  7 16  1  0  0  0  0
  8 17  1  0  0  0  0
  8 18  1  0  0  0  0
  9 19  1  0  0  0  0
 10 20  1  0  0  0  0
M  END
> <id>
EN300-698231

> <smiles>
CC=1C=CC=C(O)C1CO

> <MDLNUMBER>
MFCD18397251

> <IUPAC Name>
2-(hydroxymethyl)-3-methylphenol

> <CAS>
29922-52-9

> <URL>
https://www.enaminestore.com/catalog/EN300-698231

> <ROCS_ShapeQuery>
hit0

> <ROCS_TanimotoCombo>
1.010 

> <ROCS_ShapeTanimoto>
0.440 

> <ROCS_ColorTanimoto>
0.571 

> <ROCS_RefTversky>
1.318 

> <ROCS_RefColorTversky>
0.672 

> <ROCS_RefTverskyCombo>
1.990 

> <ROCS_FitTversky>
0.397 

> <ROCS_FitColorTversky>
0.791 

> <ROCS_FitTverskyCombo>
1.189 

> <ROCS_ColorScore>
-3.997

> <ROCS_Overlap>
164.078

> <ROCS_Rank>
275                 

$$$$
untitled-dbase-137760_6
  -OEChem-06232314393D

 18 18  0     0  0  0  0  0  0999 V2000
   -5.7816    7.1172  -36.7955 C   0  0  0  0  0  0  0  0  0  0  0  0
   -7.5628    6.0412  -34.9375 C   0  0  0  0  0  0  0  0  0  0  0  0
   -5.8754    5.7344  -36.6392 C   0  0  0  0  0  0  0  0  0  0  0  0
   -6.7660    5.1963  -35.7103 C   0  0  0  0  0  0  0  0  0  0  0  0
   -6.5782    7.9621  -36.0227 C   0  0  0  0  0  0  0  0  0  0  0  0
   -7.4689    7.4241  -35.0937 C   0  0  0  0  0  0  0  0  0  0  0  0
   -5.0104    4.8526  -37.4800 C   0  0  0  0  0  0  0  0  0  0  0  0
   -6.8745    3.7986  -35.5393 N   0  0  0  0  0  0  0  0  0  0  0  0
   -5.5259    4.8137  -38.8040 O   0  0  0  0  0  0  0  0  0  0  0  0
   -6.4159    9.6666  -36.2618 Cl  0  0  0  0  0  0  0  0  0  0  0  0
   -8.4821    8.4187  -34.1072 Cl  0  0  0  0  0  0  0  0  0  0  0  0
   -5.0843    7.5296  -37.5218 H   0  0  0  0  0  0  0  0  0  0  0  0
   -8.2557    5.6157  -34.2143 H   0  0  0  0  0  0  0  0  0  0  0  0
   -3.9779    5.2235  -37.5141 H   0  0  0  0  0  0  0  0  0  0  0  0
   -4.9823    3.8310  -37.0798 H   0  0  0  0  0  0  0  0  0  0  0  0
   -6.3378    3.1941  -36.1263 H   0  0  0  0  0  0  0  0  0  0  0  0
   -7.5538    3.4386  -34.9014 H   0  0  0  0  0  0  0  0  0  0  0  0
   -4.9393    4.2337  -39.3160 H   0  0  0  0  0  0  0  0  0  0  0  0
  1  3  2  0  0  0  0
  1  5  1  0  0  0  0
  2  4  2  0  0  0  0
  2  6  1  0  0  0  0
  3  4  1  0  0  0  0
  3  7  1  0  0  0  0
  4  8  1  0  0  0  0
  5  6  2  0  0  0  0
  5 10  1  0  0  0  0
  6 11  1  0  0  0  0
  7  9  1  0  0  0  0
  1 12  1  0  0  0  0
  2 13  1  0  0  0  0
  7 14  1  0  0  0  0
  7 15  1  0  0  0  0
  8 16  1  0  0  0  0
  8 17  1  0  0  0  0
  9 18  1  0  0  0  0
M  END
> <id>
EN300-206093

> <smiles>
NC=1C=C(Cl)C(Cl)=CC1CO

> <MDLNUMBER>
MFCD20726404

> <IUPAC Name>
(2-amino-4,5-dichlorophenyl)methanol

> <CAS>
1379313-51-5

> <Purity>
95

> <URL>
https://www.enaminestore.com/catalog/EN300-206093

> <ROCS_ShapeQuery>
hit0

> <ROCS_TanimotoCombo>
1.010 

> <ROCS_ShapeTanimoto>
0.439 

> <ROCS_ColorTanimoto>
0.571 

> <ROCS_RefTversky>
1.365 

> <ROCS_RefColorTversky>
0.672 

> <ROCS_RefTverskyCombo>
2.037 

> <ROCS_FitTversky>
0.393 

> <ROCS_FitColorTversky>
0.792 

> <ROCS_FitTverskyCombo>
1.185 

> <ROCS_ColorScore>
-3.999

> <ROCS_Overlap>
171.681

> <ROCS_Rank>
276                 

$$$$
untitled-dbase-159046_4
  -OEChem-06232314393D

 19 19  0     0  0  0  0  0  0999 V2000
   -5.8092    6.1101  -37.9169 C   0  0  0  0  0  0  0  0  0  0  0  0
   -6.3884    5.8957  -36.6519 C   0  0  0  0  0  0  0  0  0  0  0  0
   -6.4553    4.5290  -36.5321 C   0  0  0  0  0  0  0  0  0  0  0  0
   -6.8231    6.8572  -35.6838 C   0  0  0  0  0  0  0  0  0  0  0  0
   -7.9004    7.8390  -36.0840 C   0  0  0  0  0  0  0  0  0  0  0  0
   -5.7845    2.6356  -38.0482 C   0  0  0  0  0  0  0  0  0  0  0  0
   -5.5280    4.9710  -38.5551 N   0  0  0  0  0  0  0  0  0  0  0  0
   -5.9321    4.0276  -37.6875 N   0  0  0  0  0  0  0  0  0  0  0  0
   -6.9108    3.7204  -35.5519 N   0  0  0  0  0  0  0  0  0  0  0  0
   -6.3883    6.9693  -34.5218 O   0  0  0  0  0  0  0  0  0  0  0  0
   -5.5787    7.0474  -38.4030 H   0  0  0  0  0  0  0  0  0  0  0  0
   -8.9207    7.4790  -35.8773 H   0  0  0  0  0  0  0  0  0  0  0  0
   -7.8565    8.1130  -37.1495 H   0  0  0  0  0  0  0  0  0  0  0  0
   -7.8493    8.8040  -35.5489 H   0  0  0  0  0  0  0  0  0  0  0  0
   -6.6953    2.3228  -38.5656 H   0  0  0  0  0  0  0  0  0  0  0  0
   -4.9148    2.5188  -38.7008 H   0  0  0  0  0  0  0  0  0  0  0  0
   -5.6348    2.0415  -37.1424 H   0  0  0  0  0  0  0  0  0  0  0  0
   -7.2646    4.0893  -34.6567 H   0  0  0  0  0  0  0  0  0  0  0  0
   -6.8404    2.6937  -35.6113 H   0  0  0  0  0  0  0  0  0  0  0  0
  1  2  1  0  0  0  0
  1  7  2  0  0  0  0
  2  3  2  0  0  0  0
  2  4  1  0  0  0  0
  3  8  1  0  0  0  0
  3  9  1  0  0  0  0
  4  5  1  0  0  0  0
  4 10  2  0  0  0  0
  6  8  1  0  0  0  0
  7  8  1  0  0  0  0
  1 11  1  0  0  0  0
  5 12  1  0  0  0  0
  5 13  1  0  0  0  0
  5 14  1  0  0  0  0
  6 15  1  0  0  0  0
  6 16  1  0  0  0  0
  6 17  1  0  0  0  0
  9 18  1  0  0  0  0
  9 19  1  0  0  0  0
M  END
> <id>
EN300-94936

> <smiles>
CC(=O)C=1C=NN(C)C1N

> <MDLNUMBER>
MFCD19213343

> <IUPAC Name>
1-(5-amino-1-methyl-1H-pyrazol-4-yl)ethan-1-one

> <CAS>
856860-17-8

> <Purity>
95

> <URL>
https://www.enaminestore.com/catalog/EN300-94936

> <ROCS_ShapeQuery>
hit0

> <ROCS_TanimotoCombo>
1.010 

> <ROCS_ShapeTanimoto>
0.471 

> <ROCS_ColorTanimoto>
0.539 

> <ROCS_RefTversky>
1.410 

> <ROCS_RefColorTversky>
0.647 

> <ROCS_RefTverskyCombo>
2.058 

> <ROCS_FitTversky>
0.414 

> <ROCS_FitColorTversky>
0.763 

> <ROCS_FitTverskyCombo>
1.177 

> <ROCS_ColorScore>
-3.851

> <ROCS_Overlap>
176.517

> <ROCS_Rank>
277                 

$$$$
untitled-dbase-88108_2
  -OEChem-06232314393D

 15 15  0     0  0  0  0  0  0999 V2000
   -6.3621    7.2236  -36.6990 C   0  0  0  0  0  0  0  0  0  0  0  0
   -6.6514    5.7806  -34.4012 C   0  0  0  0  0  0  0  0  0  0  0  0
   -6.5380    5.8465  -36.7760 C   0  0  0  0  0  0  0  0  0  0  0  0
   -6.6862    5.1039  -35.6098 C   0  0  0  0  0  0  0  0  0  0  0  0
   -6.3420    7.8054  -35.4416 C   0  0  0  0  0  0  0  0  0  0  0  0
   -6.5629    5.2128  -38.0878 C   0  0  0  0  0  0  0  0  0  0  0  0
   -6.4825    7.1170  -34.2866 N   0  0  0  0  0  0  0  0  0  0  0  0
   -6.8669    3.7094  -35.6350 N   0  0  0  0  0  0  0  0  0  0  0  0
   -5.5500    4.7879  -38.6471 O   0  0  0  0  0  0  0  0  0  0  0  0
   -6.1304    9.4975  -35.2501 Cl  0  0  0  0  0  0  0  0  0  0  0  0
   -6.2444    7.8227  -37.5969 H   0  0  0  0  0  0  0  0  0  0  0  0
   -6.7615    5.2561  -33.4568 H   0  0  0  0  0  0  0  0  0  0  0  0
   -7.5496    5.1189  -38.5887 H   0  0  0  0  0  0  0  0  0  0  0  0
   -6.9229    3.2050  -34.7711 H   0  0  0  0  0  0  0  0  0  0  0  0
   -6.8431    3.2264  -36.5125 H   0  0  0  0  0  0  0  0  0  0  0  0
  1  3  2  0  0  0  0
  1  5  1  0  0  0  0
  2  4  2  0  0  0  0
  2  7  1  0  0  0  0
  3  4  1  0  0  0  0
  3  6  1  0  0  0  0
  4  8  1  0  0  0  0
  5  7  2  0  0  0  0
  5 10  1  0  0  0  0
  6  9  2  0  0  0  0
  1 11  1  0  0  0  0
  2 12  1  0  0  0  0
  6 13  1  0  0  0  0
  8 14  1  0  0  0  0
  8 15  1  0  0  0  0
M  END
> <id>
EN300-197622

> <smiles>
NC=1C=NC(Cl)=CC1C=O

> <MDLNUMBER>
MFCD11848211

> <IUPAC Name>
5-amino-2-chloropyridine-4-carbaldehyde

> <CAS>
1060804-23-0

> <Purity>
95

> <URL>
https://www.enaminestore.com/catalog/EN300-197622

> <MP>
164-166

> <ROCS_ShapeQuery>
hit0

> <ROCS_TanimotoCombo>
1.010 

> <ROCS_ShapeTanimoto>
0.462 

> <ROCS_ColorTanimoto>
0.548 

> <ROCS_RefTversky>
1.368 

> <ROCS_RefColorTversky>
0.655 

> <ROCS_RefTverskyCombo>
2.023 

> <ROCS_FitTversky>
0.411 

> <ROCS_FitColorTversky>
0.771 

> <ROCS_FitTverskyCombo>
1.182 

> <ROCS_ColorScore>
-3.895

> <ROCS_Overlap>
170.427

> <ROCS_Rank>
278                 

$$$$
untitled-dbase-63880_2
  -OEChem-06232314393D

 17 17  0     0  0  0  0  0  0999 V2000
   -6.5134    8.1587  -37.7323 C   0  0  0  0  0  0  0  0  0  0  0  0
   -6.1215    7.1107  -38.5651 C   0  0  0  0  0  0  0  0  0  0  0  0
   -6.6562    7.9441  -36.3614 C   0  0  0  0  0  0  0  0  0  0  0  0
   -6.0151    5.6335  -36.6562 C   0  0  0  0  0  0  0  0  0  0  0  0
   -5.8724    5.8481  -38.0271 C   0  0  0  0  0  0  0  0  0  0  0  0
   -6.4070    6.6816  -35.8234 C   0  0  0  0  0  0  0  0  0  0  0  0
   -5.7426    4.2708  -36.1006 C   0  0  0  0  0  0  0  0  0  0  0  0
   -5.4904    4.8374  -38.8577 O   0  0  0  0  0  0  0  0  0  0  0  0
   -6.9172    3.7799  -35.4703 O   0  0  0  0  0  0  0  0  0  0  0  0
   -6.5950    6.4568  -34.1221 Cl  0  0  0  0  0  0  0  0  0  0  0  0
   -6.7074    9.1417  -38.1513 H   0  0  0  0  0  0  0  0  0  0  0  0
   -6.0122    7.2848  -39.6321 H   0  0  0  0  0  0  0  0  0  0  0  0
   -6.9623    8.7716  -35.7262 H   0  0  0  0  0  0  0  0  0  0  0  0
   -5.4471    3.5724  -36.8929 H   0  0  0  0  0  0  0  0  0  0  0  0
   -4.9300    4.3033  -35.3648 H   0  0  0  0  0  0  0  0  0  0  0  0
   -5.4407    5.1565  -39.7723 H   0  0  0  0  0  0  0  0  0  0  0  0
   -6.7026    2.8984  -35.1239 H   0  0  0  0  0  0  0  0  0  0  0  0
  1  2  2  0  0  0  0
  1  3  1  0  0  0  0
  2  5  1  0  0  0  0
  3  6  2  0  0  0  0
  4  5  2  0  0  0  0
  4  6  1  0  0  0  0
  4  7  1  0  0  0  0
  5  8  1  0  0  0  0
  6 10  1  0  0  0  0
  7  9  1  0  0  0  0
  1 11  1  0  0  0  0
  2 12  1  0  0  0  0
  3 13  1  0  0  0  0
  7 14  1  0  0  0  0
  7 15  1  0  0  0  0
  8 16  1  0  0  0  0
  9 17  1  0  0  0  0
M  END
> <id>
EN300-1984453

> <smiles>
OCC=1C(O)=CC=CC1Cl

> <MDLNUMBER>
MFCD09910142

> <IUPAC Name>
3-chloro-2-(hydroxymethyl)phenol

> <CAS>
1094627-55-0

> <URL>
https://www.enaminestore.com/catalog/EN300-1984453

> <ROCS_ShapeQuery>
hit0

> <ROCS_TanimotoCombo>
1.010 

> <ROCS_ShapeTanimoto>
0.444 

> <ROCS_ColorTanimoto>
0.566 

> <ROCS_RefTversky>
1.320 

> <ROCS_RefColorTversky>
0.669 

> <ROCS_RefTverskyCombo>
1.988 

> <ROCS_FitTversky>
0.401 

> <ROCS_FitColorTversky>
0.786 

> <ROCS_FitTverskyCombo>
1.187 

> <ROCS_ColorScore>
-3.978

> <ROCS_Overlap>
164.048

> <ROCS_Rank>
279                 

$$$$
untitled-dbase-89037_19
  -OEChem-06232314393D

 19 19  0     1  0  0  0  0  0999 V2000
   -6.8664    6.8430  -35.9096 C   0  0  0  0  0  0  0  0  0  0  0  0
   -5.6560    5.6208  -34.3305 C   0  0  0  0  0  0  0  0  0  0  0  0
   -5.9905    5.8384  -36.6406 C   0  0  1  0  0  0  0  0  0  0  0  0
   -5.7824    4.7621  -35.5827 C   0  0  2  0  0  0  0  0  0  0  0  0
   -6.5570    5.3878  -37.9763 C   0  0  0  0  0  0  0  0  0  0  0  0
   -6.9220    3.8573  -35.4367 N   0  0  0  0  0  0  0  0  0  0  0  0
   -6.4768    6.7849  -34.5281 O   0  0  0  0  0  0  0  0  0  0  0  0
   -5.5033    4.8605  -38.7651 O   0  0  0  0  0  0  0  0  0  0  0  0
   -6.7299    7.8631  -36.2809 H   0  0  0  0  0  0  0  0  0  0  0  0
   -7.9310    6.5918  -35.9698 H   0  0  0  0  0  0  0  0  0  0  0  0
   -5.9537    5.1151  -33.4061 H   0  0  0  0  0  0  0  0  0  0  0  0
   -4.6244    5.9689  -34.2036 H   0  0  0  0  0  0  0  0  0  0  0  0
   -5.0150    6.3088  -36.8298 H   0  0  0  0  0  0  0  0  0  0  0  0
   -4.8784    4.1703  -35.7590 H   0  0  0  0  0  0  0  0  0  0  0  0
   -7.0061    6.2336  -38.5015 H   0  0  0  0  0  0  0  0  0  0  0  0
   -7.3114    4.6125  -37.8254 H   0  0  0  0  0  0  0  0  0  0  0  0
   -7.3155    3.9993  -34.5373 H   0  0  0  0  0  0  0  0  0  0  0  0
   -7.5797    4.0732  -36.1470 H   0  0  0  0  0  0  0  0  0  0  0  0
   -5.8941    4.5815  -39.6101 H   0  0  0  0  0  0  0  0  0  0  0  0
  1  3  1  0  0  0  0
  1  7  1  0  0  0  0
  2  4  1  0  0  0  0
  2  7  1  0  0  0  0
  3  4  1  0  0  0  0
  3  5  1  6  0  0  0
  4  6  1  6  0  0  0
  5  8  1  0  0  0  0
  1  9  1  0  0  0  0
  1 10  1  0  0  0  0
  2 11  1  0  0  0  0
  2 12  1  0  0  0  0
  3 13  1  0  0  0  0
  4 14  1  0  0  0  0
  5 15  1  0  0  0  0
  5 16  1  0  0  0  0
  6 17  1  0  0  0  0
  6 18  1  0  0  0  0
  8 19  1  0  0  0  0
M  END
> <id>
EN300-1663229

> <smiles>
N[C@@H]1COC[C@@H]1CO |&1:1,5,r|

> <MDLNUMBER>
MFCD30619640

> <IUPAC Name>
rac-[(3R,4R)-4-aminooxolan-3-yl]methanol

> <CAS>
1354427-84-1

> <Purity>
95

> <URL>
https://www.enaminestore.com/catalog/EN300-1663229

> <ROCS_ShapeQuery>
hit0

> <ROCS_TanimotoCombo>
1.010 

> <ROCS_ShapeTanimoto>
0.524 

> <ROCS_ColorTanimoto>
0.486 

> <ROCS_RefTversky>
1.255 

> <ROCS_RefColorTversky>
0.654 

> <ROCS_RefTverskyCombo>
1.909 

> <ROCS_FitTversky>
0.473 

> <ROCS_FitColorTversky>
0.654 

> <ROCS_FitTverskyCombo>
1.127 

> <ROCS_ColorScore>
-3.924

> <ROCS_Overlap>
149.810

> <ROCS_Rank>
280                 

$$$$
untitled-dbase-54495_19
  -OEChem-06232314393D

 19 19  0     1  0  0  0  0  0999 V2000
   -6.8664    6.8430  -35.9096 C   0  0  0  0  0  0  0  0  0  0  0  0
   -5.6560    5.6208  -34.3305 C   0  0  0  0  0  0  0  0  0  0  0  0
   -5.9905    5.8384  -36.6406 C   0  0  1  0  0  0  0  0  0  0  0  0
   -5.7824    4.7621  -35.5827 C   0  0  2  0  0  0  0  0  0  0  0  0
   -6.5570    5.3878  -37.9763 C   0  0  0  0  0  0  0  0  0  0  0  0
   -6.9220    3.8573  -35.4367 N   0  0  0  0  0  0  0  0  0  0  0  0
   -6.4768    6.7849  -34.5281 O   0  0  0  0  0  0  0  0  0  0  0  0
   -5.5033    4.8605  -38.7651 O   0  0  0  0  0  0  0  0  0  0  0  0
   -6.7299    7.8631  -36.2809 H   0  0  0  0  0  0  0  0  0  0  0  0
   -7.9310    6.5918  -35.9698 H   0  0  0  0  0  0  0  0  0  0  0  0
   -5.9537    5.1151  -33.4061 H   0  0  0  0  0  0  0  0  0  0  0  0
   -4.6244    5.9689  -34.2036 H   0  0  0  0  0  0  0  0  0  0  0  0
   -5.0150    6.3088  -36.8298 H   0  0  0  0  0  0  0  0  0  0  0  0
   -4.8784    4.1703  -35.7590 H   0  0  0  0  0  0  0  0  0  0  0  0
   -7.0061    6.2336  -38.5015 H   0  0  0  0  0  0  0  0  0  0  0  0
   -7.3114    4.6125  -37.8254 H   0  0  0  0  0  0  0  0  0  0  0  0
   -7.3155    3.9993  -34.5373 H   0  0  0  0  0  0  0  0  0  0  0  0
   -7.5797    4.0732  -36.1470 H   0  0  0  0  0  0  0  0  0  0  0  0
   -5.8941    4.5815  -39.6101 H   0  0  0  0  0  0  0  0  0  0  0  0
  1  3  1  0  0  0  0
  1  7  1  0  0  0  0
  2  4  1  0  0  0  0
  2  7  1  0  0  0  0
  3  4  1  0  0  0  0
  3  5  1  6  0  0  0
  4  6  1  6  0  0  0
  5  8  1  0  0  0  0
  1  9  1  0  0  0  0
  1 10  1  0  0  0  0
  2 11  1  0  0  0  0
  2 12  1  0  0  0  0
  3 13  1  0  0  0  0
  4 14  1  0  0  0  0
  5 15  1  0  0  0  0
  5 16  1  0  0  0  0
  6 17  1  0  0  0  0
  6 18  1  0  0  0  0
  8 19  1  0  0  0  0
M  END
> <id>
EN300-1663228

> <smiles>
Cl.N[C@@H]1COC[C@@H]1CO |&1:2,6,r|

> <MDLNUMBER>
MFCD28892345

> <IUPAC Name>
rac-[(3R,4R)-4-aminooxolan-3-yl]methanol hydrochloride

> <CAS>
2307738-94-7

> <Purity>
95

> <URL>
https://www.enaminestore.com/catalog/EN300-1663228

> <Saltdate>
Cl

> <ROCS_ShapeQuery>
hit0

> <ROCS_TanimotoCombo>
1.010 

> <ROCS_ShapeTanimoto>
0.524 

> <ROCS_ColorTanimoto>
0.486 

> <ROCS_RefTversky>
1.255 

> <ROCS_RefColorTversky>
0.654 

> <ROCS_RefTverskyCombo>
1.909 

> <ROCS_FitTversky>
0.473 

> <ROCS_FitColorTversky>
0.654 

> <ROCS_FitTverskyCombo>
1.127 

> <ROCS_ColorScore>
-3.924

> <ROCS_Overlap>
149.810

> <ROCS_Rank>
281                 

$$$$
untitled-dbase-161213_9
  -OEChem-06232314393D

 20 20  0     0  0  0  0  0  0999 V2000
   -6.0494    7.8731  -35.7683 C   0  0  0  0  0  0  0  0  0  0  0  0
   -6.9728    7.3946  -34.8388 C   0  0  0  0  0  0  0  0  0  0  0  0
   -5.4018    6.9861  -36.6283 C   0  0  0  0  0  0  0  0  0  0  0  0
   -7.2485    6.0290  -34.7692 C   0  0  0  0  0  0  0  0  0  0  0  0
   -5.6776    5.6206  -36.5587 C   0  0  0  0  0  0  0  0  0  0  0  0
   -6.6009    5.1420  -35.6292 C   0  0  0  0  0  0  0  0  0  0  0  0
   -8.2404    5.5364  -33.7675 C   0  0  0  0  0  0  0  0  0  0  0  0
   -4.9737    4.6871  -37.4879 C   0  0  0  0  0  0  0  0  0  0  0  0
   -6.8697    3.8066  -35.5602 O   0  0  0  0  0  0  0  0  0  0  0  0
   -5.5342    4.8070  -38.7889 O   0  0  0  0  0  0  0  0  0  0  0  0
   -5.8349    8.9364  -35.8226 H   0  0  0  0  0  0  0  0  0  0  0  0
   -7.4721    8.0934  -34.1731 H   0  0  0  0  0  0  0  0  0  0  0  0
   -4.6839    7.3685  -37.3489 H   0  0  0  0  0  0  0  0  0  0  0  0
   -9.2470    5.5281  -34.2017 H   0  0  0  0  0  0  0  0  0  0  0  0
   -7.9956    4.5205  -33.4335 H   0  0  0  0  0  0  0  0  0  0  0  0
   -8.2505    6.1724  -32.8736 H   0  0  0  0  0  0  0  0  0  0  0  0
   -3.9010    4.9138  -37.5442 H   0  0  0  0  0  0  0  0  0  0  0  0
   -5.0745    3.6463  -37.1532 H   0  0  0  0  0  0  0  0  0  0  0  0
   -7.5270    3.6339  -34.8687 H   0  0  0  0  0  0  0  0  0  0  0  0
   -6.4736    4.5750  -38.7113 H   0  0  0  0  0  0  0  0  0  0  0  0
  1  2  1  0  0  0  0
  1  3  2  0  0  0  0
  2  4  2  0  0  0  0
  3  5  1  0  0  0  0
  4  6  1  0  0  0  0
  4  7  1  0  0  0  0
  5  6  2  0  0  0  0
  5  8  1  0  0  0  0
  6  9  1  0  0  0  0
  8 10  1  0  0  0  0
  1 11  1  0  0  0  0
  2 12  1  0  0  0  0
  3 13  1  0  0  0  0
  7 14  1  0  0  0  0
  7 15  1  0  0  0  0
  7 16  1  0  0  0  0
  8 17  1  0  0  0  0
  8 18  1  0  0  0  0
  9 19  1  0  0  0  0
 10 20  1  0  0  0  0
M  END
> <id>
EN300-155838

> <smiles>
CC=1C=CC=C(CO)C1O

> <MDLNUMBER>
MFCD06202776

> <IUPAC Name>
2-(hydroxymethyl)-6-methylphenol

> <CAS>
22470-99-1

> <Purity>
80

> <URL>
https://www.enaminestore.com/catalog/EN300-155838

> <ROCS_ShapeQuery>
hit0

> <ROCS_TanimotoCombo>
1.009 

> <ROCS_ShapeTanimoto>
0.439 

> <ROCS_ColorTanimoto>
0.570 

> <ROCS_RefTversky>
1.323 

> <ROCS_RefColorTversky>
0.672 

> <ROCS_RefTverskyCombo>
1.995 

> <ROCS_FitTversky>
0.397 

> <ROCS_FitColorTversky>
0.790 

> <ROCS_FitTverskyCombo>
1.187 

> <ROCS_ColorScore>
-3.998

> <ROCS_Overlap>
164.867

> <ROCS_Rank>
282                 

$$$$
untitled-dbase-5961_6
  -OEChem-06232314393D

 17 17  0     1  0  0  0  0  0999 V2000
   -6.3025    6.0410  -35.0309 C   0  0  0  0  0  0  0  0  0  0  0  0
   -5.1972    5.3437  -38.3776 C   0  0  0  0  0  0  0  0  0  0  0  0
   -6.2199    4.2449  -38.4585 C   0  0  0  0  0  0  0  0  0  0  0  0
   -6.3140    5.2807  -37.3727 C   0  0  0  0  0  0  0  0  0  0  0  0
   -4.5735    4.4462  -35.7579 C   0  0  0  0  0  0  0  0  0  0  0  0
   -6.0232    4.9018  -35.9209 C   0  0  1  0  0  0  0  0  0  0  0  0
   -6.5221    6.9385  -34.3287 N   0  0  0  0  0  0  0  0  0  0  0  0
   -6.8799    3.8199  -35.5564 O   0  0  0  0  0  0  0  0  0  0  0  0
   -4.1969    5.0781  -38.0589 H   0  0  0  0  0  0  0  0  0  0  0  0
   -5.2369    6.1253  -39.1264 H   0  0  0  0  0  0  0  0  0  0  0  0
   -6.9455    4.2896  -39.2614 H   0  0  0  0  0  0  0  0  0  0  0  0
   -5.9044    3.2431  -38.1942 H   0  0  0  0  0  0  0  0  0  0  0  0
   -7.1018    6.0203  -37.4500 H   0  0  0  0  0  0  0  0  0  0  0  0
   -4.3526    3.5978  -36.4156 H   0  0  0  0  0  0  0  0  0  0  0  0
   -4.3832    4.1027  -34.7337 H   0  0  0  0  0  0  0  0  0  0  0  0
   -3.8659    5.2519  -35.9828 H   0  0  0  0  0  0  0  0  0  0  0  0
   -7.7879    4.1402  -35.6667 H   0  0  0  0  0  0  0  0  0  0  0  0
  1  6  1  0  0  0  0
  1  7  3  0  0  0  0
  2  3  1  0  0  0  0
  2  4  1  0  0  0  0
  3  4  1  0  0  0  0
  4  6  1  0  0  0  0
  5  6  1  0  0  0  0
  6  8  1  0  0  0  0
  2  9  1  0  0  0  0
  2 10  1  0  0  0  0
  3 11  1  0  0  0  0
  3 12  1  0  0  0  0
  4 13  1  0  0  0  0
  5 14  1  0  0  0  0
  5 15  1  0  0  0  0
  5 16  1  0  0  0  0
  8 17  1  0  0  0  0
M  END
> <id>
EN300-115153

> <smiles>
CC(O)(C#N)C1CC1

> <MDLNUMBER>
MFCD12169337

> <IUPAC Name>
2-cyclopropyl-2-hydroxypropanenitrile

> <CAS>
4111-11-9

> <URL>
https://www.enaminestore.com/catalog/EN300-115153

> <ROCS_ShapeQuery>
hit0

> <ROCS_TanimotoCombo>
1.009 

> <ROCS_ShapeTanimoto>
0.510 

> <ROCS_ColorTanimoto>
0.500 

> <ROCS_RefTversky>
1.226 

> <ROCS_RefColorTversky>
0.512 

> <ROCS_RefTverskyCombo>
1.739 

> <ROCS_FitTversky>
0.466 

> <ROCS_FitColorTversky>
0.952 

> <ROCS_FitTverskyCombo>
1.418 

> <ROCS_ColorScore>
-2.998

> <ROCS_Overlap>
146.227

> <ROCS_Rank>
283                 

$$$$
untitled-dbase-101867_80
  -OEChem-06232314393D

 19 18  0     1  0  0  0  0  0999 V2000
   -4.4648    6.4566  -35.4698 C   0  0  0  0  0  0  0  0  0  0  0  0
   -7.9930    5.8341  -36.1323 C   0  0  0  0  0  0  0  0  0  0  0  0
   -5.9364    5.0691  -37.3328 C   0  0  0  0  0  0  0  0  0  0  0  0
   -5.7576    5.8619  -34.9166 C   0  0  2  0  0  0  0  0  0  0  0  0
   -6.6325    5.1433  -35.9711 C   0  0  0  0  0  0  0  0  0  0  0  0
   -6.5140    6.9294  -34.3393 O   0  0  0  0  0  0  0  0  0  0  0  0
   -6.8782    3.7978  -35.5518 O   0  0  0  0  0  0  0  0  0  0  0  0
   -4.6548    7.1618  -36.2831 H   0  0  0  0  0  0  0  0  0  0  0  0
   -3.7885    5.6738  -35.8294 H   0  0  0  0  0  0  0  0  0  0  0  0
   -3.9250    6.9915  -34.6802 H   0  0  0  0  0  0  0  0  0  0  0  0
   -8.5229    5.9061  -35.1760 H   0  0  0  0  0  0  0  0  0  0  0  0
   -8.6466    5.2552  -36.7952 H   0  0  0  0  0  0  0  0  0  0  0  0
   -7.8841    6.8413  -36.5475 H   0  0  0  0  0  0  0  0  0  0  0  0
   -4.9591    4.5810  -37.2589 H   0  0  0  0  0  0  0  0  0  0  0  0
   -6.5195    4.4607  -38.0342 H   0  0  0  0  0  0  0  0  0  0  0  0
   -5.8016    6.0634  -37.7705 H   0  0  0  0  0  0  0  0  0  0  0  0
   -5.5152    5.1636  -34.1064 H   0  0  0  0  0  0  0  0  0  0  0  0
   -6.6841    7.5594  -35.0548 H   0  0  0  0  0  0  0  0  0  0  0  0
   -7.3543    3.8588  -34.7109 H   0  0  0  0  0  0  0  0  0  0  0  0
  1  4  1  6  0  0  0
  2  5  1  0  0  0  0
  3  5  1  0  0  0  0
  4  5  1  0  0  0  0
  4  6  1  0  0  0  0
  5  7  1  0  0  0  0
  1  8  1  0  0  0  0
  1  9  1  0  0  0  0
  1 10  1  0  0  0  0
  2 11  1  0  0  0  0
  2 12  1  0  0  0  0
  2 13  1  0  0  0  0
  3 14  1  0  0  0  0
  3 15  1  0  0  0  0
  3 16  1  0  0  0  0
  4 17  1  0  0  0  0
  6 18  1  0  0  0  0
  7 19  1  0  0  0  0
M  END
> <id>
EN300-1588871

> <smiles>
C[C@@H](O)C(C)(C)O

> <MDLNUMBER>
MFCD31616171

> <IUPAC Name>
(3R)-2-methylbutane-2,3-diol

> <CAS>
53399-77-2

> <Purity>
95

> <URL>
https://www.enaminestore.com/catalog/EN300-1588871

> <ROCS_ShapeQuery>
hit0

> <ROCS_TanimotoCombo>
1.009 

> <ROCS_ShapeTanimoto>
0.438 

> <ROCS_ColorTanimoto>
0.571 

> <ROCS_RefTversky>
0.983 

> <ROCS_RefColorTversky>
0.672 

> <ROCS_RefTverskyCombo>
1.655 

> <ROCS_FitTversky>
0.441 

> <ROCS_FitColorTversky>
0.792 

> <ROCS_FitTverskyCombo>
1.233 

> <ROCS_ColorScore>
-3.999

> <ROCS_Overlap>
114.414

> <ROCS_Rank>
284                 

$$$$
untitled-dbase-69190_12
  -OEChem-06232314393D

 20 20  0     1  0  0  0  0  0999 V2000
   -5.2910    6.1736  -38.5474 C   0  0  0  0  0  0  0  0  0  0  0  0
   -6.0315    6.7616  -37.5219 C   0  0  0  0  0  0  0  0  0  0  0  0
   -5.0907    4.7932  -38.5599 C   0  0  0  0  0  0  0  0  0  0  0  0
   -6.5715    5.9693  -36.5089 C   0  0  0  0  0  0  0  0  0  0  0  0
   -6.3712    4.5889  -36.5214 C   0  0  0  0  0  0  0  0  0  0  0  0
   -5.6308    4.0009  -37.5469 C   0  0  0  0  0  0  0  0  0  0  0  0
   -8.0437    7.9097  -35.8635 C   0  0  0  0  0  0  0  0  0  0  0  0
   -7.3610    6.6158  -35.4191 C   0  0  2  0  0  0  0  0  0  0  0  0
   -6.8927    3.8016  -35.5394 O   0  0  0  0  0  0  0  0  0  0  0  0
   -6.4858    6.9224  -34.3282 O   0  0  0  0  0  0  0  0  0  0  0  0
   -5.4352    2.6752  -37.5651 F   0  0  0  0  0  0  0  0  0  0  0  0
   -4.8700    6.7904  -39.3359 H   0  0  0  0  0  0  0  0  0  0  0  0
   -6.1815    7.8383  -37.5203 H   0  0  0  0  0  0  0  0  0  0  0  0
   -4.5141    4.3352  -39.3580 H   0  0  0  0  0  0  0  0  0  0  0  0
   -7.3171    8.6193  -36.2720 H   0  0  0  0  0  0  0  0  0  0  0  0
   -8.5669    8.3918  -35.0300 H   0  0  0  0  0  0  0  0  0  0  0  0
   -8.8014    7.7069  -36.6284 H   0  0  0  0  0  0  0  0  0  0  0  0
   -8.1366    5.9421  -35.0184 H   0  0  0  0  0  0  0  0  0  0  0  0
   -6.6621    2.8726  -35.6969 H   0  0  0  0  0  0  0  0  0  0  0  0
   -6.1110    6.0786  -34.0378 H   0  0  0  0  0  0  0  0  0  0  0  0
  1  2  1  0  0  0  0
  1  3  2  0  0  0  0
  2  4  2  0  0  0  0
  3  6  1  0  0  0  0
  4  5  1  0  0  0  0
  4  8  1  0  0  0  0
  5  6  2  0  0  0  0
  5  9  1  0  0  0  0
  6 11  1  0  0  0  0
  7  8  1  6  0  0  0
  8 10  1  0  0  0  0
  1 12  1  0  0  0  0
  2 13  1  0  0  0  0
  3 14  1  0  0  0  0
  7 15  1  0  0  0  0
  7 16  1  0  0  0  0
  7 17  1  0  0  0  0
  8 18  1  0  0  0  0
  9 19  1  0  0  0  0
 10 20  1  0  0  0  0
M  END
> <id>
EN300-1849694

> <smiles>
C[C@H](O)C=1C=CC=C(F)C1O

> <MDLNUMBER>
MFCD22570071

> <IUPAC Name>
2-fluoro-6-[(1S)-1-hydroxyethyl]phenol

> <CAS>
1932309-57-3

> <URL>
https://www.enaminestore.com/catalog/EN300-1849694

> <ROCS_ShapeQuery>
hit0

> <ROCS_TanimotoCombo>
1.009 

> <ROCS_ShapeTanimoto>
0.437 

> <ROCS_ColorTanimoto>
0.571 

> <ROCS_RefTversky>
1.403 

> <ROCS_RefColorTversky>
0.672 

> <ROCS_RefTverskyCombo>
2.075 

> <ROCS_FitTversky>
0.389 

> <ROCS_FitColorTversky>
0.792 

> <ROCS_FitTverskyCombo>
1.180 

> <ROCS_ColorScore>
-3.999

> <ROCS_Overlap>
177.969

> <ROCS_Rank>
285                 

$$$$
untitled-dbase-150221_48
  -OEChem-06232314393D

 22 22  0     1  0  0  0  0  0999 V2000
   -5.8161    6.0137  -36.6143 C   0  0  0  0  0  0  0  0  0  0  0  0
   -6.7605    3.7124  -37.0009 C   0  0  0  0  0  0  0  0  0  0  0  0
   -7.2132    4.8111  -34.8962 C   0  0  0  0  0  0  0  0  0  0  0  0
   -5.6093    4.6716  -37.3087 C   0  0  1  0  0  0  0  0  0  0  0  0
   -6.0790    5.8116  -35.1249 C   0  0  2  0  0  0  0  0  0  0  0  0
   -7.5722    7.6262  -35.1119 C   0  0  0  0  0  0  0  0  0  0  0  0
   -6.9469    3.5363  -35.5612 N   0  0  0  0  0  0  0  0  0  0  0  0
   -5.5311    4.8941  -38.7120 O   0  0  0  0  0  0  0  0  0  0  0  0
   -6.4099    7.0588  -34.5246 O   0  0  0  0  0  0  0  0  0  0  0  0
   -4.9448    6.6632  -36.7661 H   0  0  0  0  0  0  0  0  0  0  0  0
   -6.6500    6.5582  -37.0784 H   0  0  0  0  0  0  0  0  0  0  0  0
   -7.6889    4.0657  -37.4684 H   0  0  0  0  0  0  0  0  0  0  0  0
   -6.5505    2.7383  -37.4582 H   0  0  0  0  0  0  0  0  0  0  0  0
   -7.3314    4.6381  -33.8200 H   0  0  0  0  0  0  0  0  0  0  0  0
   -8.1689    5.2308  -35.2366 H   0  0  0  0  0  0  0  0  0  0  0  0
   -4.6573    4.2342  -36.9842 H   0  0  0  0  0  0  0  0  0  0  0  0
   -5.1583    5.4433  -34.6403 H   0  0  0  0  0  0  0  0  0  0  0  0
   -7.7970    8.5801  -34.6287 H   0  0  0  0  0  0  0  0  0  0  0  0
   -8.4136    6.9387  -34.9942 H   0  0  0  0  0  0  0  0  0  0  0  0
   -7.3873    7.7938  -36.1756 H   0  0  0  0  0  0  0  0  0  0  0  0
   -7.7275    2.9011  -35.3976 H   0  0  0  0  0  0  0  0  0  0  0  0
   -5.4000    4.0257  -39.1246 H   0  0  0  0  0  0  0  0  0  0  0  0
  1  4  1  0  0  0  0
  1  5  1  0  0  0  0
  2  4  1  0  0  0  0
  2  7  1  0  0  0  0
  3  5  1  0  0  0  0
  3  7  1  0  0  0  0
  4  8  1  1  0  0  0
  5  9  1  1  0  0  0
  6  9  1  0  0  0  0
  1 10  1  0  0  0  0
  1 11  1  0  0  0  0
  2 12  1  0  0  0  0
  2 13  1  0  0  0  0
  3 14  1  0  0  0  0
  3 15  1  0  0  0  0
  4 16  1  0  0  0  0
  5 17  1  0  0  0  0
  6 18  1  0  0  0  0
  6 19  1  0  0  0  0
  6 20  1  0  0  0  0
  7 21  1  0  0  0  0
  8 22  1  0  0  0  0
M  END
> <id>
EN300-27750788

> <smiles>
Cl.CO[C@H]1CNC[C@@H](O)C1

> <MDLNUMBER>
MFCD33550840

> <IUPAC Name>
(3S,5R)-5-methoxypiperidin-3-ol hydrochloride

> <CAS>
2624109-21-1

> <Purity>
95

> <URL>
https://www.enaminestore.com/catalog/EN300-27750788

> <Saltdate>
Cl

> <ROCS_ShapeQuery>
hit0

> <ROCS_TanimotoCombo>
1.009 

> <ROCS_ShapeTanimoto>
0.539 

> <ROCS_ColorTanimoto>
0.469 

> <ROCS_RefTversky>
1.379 

> <ROCS_RefColorTversky>
0.639 

> <ROCS_RefTverskyCombo>
2.018 

> <ROCS_FitTversky>
0.470 

> <ROCS_FitColorTversky>
0.639 

> <ROCS_FitTverskyCombo>
1.108 

> <ROCS_ColorScore>
-3.833

> <ROCS_Overlap>
167.621

> <ROCS_Rank>
286                 

$$$$
untitled-dbase-149807_48
  -OEChem-06232314393D

 22 22  0     1  0  0  0  0  0999 V2000
   -5.8161    6.0137  -36.6143 C   0  0  0  0  0  0  0  0  0  0  0  0
   -6.7605    3.7124  -37.0009 C   0  0  0  0  0  0  0  0  0  0  0  0
   -7.2132    4.8111  -34.8962 C   0  0  0  0  0  0  0  0  0  0  0  0
   -5.6093    4.6716  -37.3087 C   0  0  1  0  0  0  0  0  0  0  0  0
   -6.0790    5.8116  -35.1249 C   0  0  2  0  0  0  0  0  0  0  0  0
   -7.5722    7.6262  -35.1119 C   0  0  0  0  0  0  0  0  0  0  0  0
   -6.9469    3.5363  -35.5612 N   0  0  0  0  0  0  0  0  0  0  0  0
   -5.5311    4.8941  -38.7120 O   0  0  0  0  0  0  0  0  0  0  0  0
   -6.4099    7.0588  -34.5246 O   0  0  0  0  0  0  0  0  0  0  0  0
   -4.9448    6.6632  -36.7661 H   0  0  0  0  0  0  0  0  0  0  0  0
   -6.6500    6.5582  -37.0784 H   0  0  0  0  0  0  0  0  0  0  0  0
   -7.6889    4.0657  -37.4684 H   0  0  0  0  0  0  0  0  0  0  0  0
   -6.5505    2.7383  -37.4582 H   0  0  0  0  0  0  0  0  0  0  0  0
   -7.3314    4.6381  -33.8200 H   0  0  0  0  0  0  0  0  0  0  0  0
   -8.1689    5.2308  -35.2366 H   0  0  0  0  0  0  0  0  0  0  0  0
   -4.6573    4.2342  -36.9842 H   0  0  0  0  0  0  0  0  0  0  0  0
   -5.1583    5.4433  -34.6403 H   0  0  0  0  0  0  0  0  0  0  0  0
   -7.7970    8.5801  -34.6287 H   0  0  0  0  0  0  0  0  0  0  0  0
   -8.4136    6.9387  -34.9942 H   0  0  0  0  0  0  0  0  0  0  0  0
   -7.3873    7.7938  -36.1756 H   0  0  0  0  0  0  0  0  0  0  0  0
   -7.7275    2.9011  -35.3976 H   0  0  0  0  0  0  0  0  0  0  0  0
   -5.4000    4.0257  -39.1246 H   0  0  0  0  0  0  0  0  0  0  0  0
  1  4  1  0  0  0  0
  1  5  1  0  0  0  0
  2  4  1  0  0  0  0
  2  7  1  0  0  0  0
  3  5  1  0  0  0  0
  3  7  1  0  0  0  0
  4  8  1  1  0  0  0
  5  9  1  1  0  0  0
  6  9  1  0  0  0  0
  1 10  1  0  0  0  0
  1 11  1  0  0  0  0
  2 12  1  0  0  0  0
  2 13  1  0  0  0  0
  3 14  1  0  0  0  0
  3 15  1  0  0  0  0
  4 16  1  0  0  0  0
  5 17  1  0  0  0  0
  6 18  1  0  0  0  0
  6 19  1  0  0  0  0
  6 20  1  0  0  0  0
  7 21  1  0  0  0  0
  8 22  1  0  0  0  0
M  END
> <id>
EN300-27113805

> <smiles>
CO[C@H]1CNC[C@@H](O)C1

> <MDLNUMBER>
MFCD33550690

> <IUPAC Name>
(3S,5R)-5-methoxypiperidin-3-ol

> <CAS>
2624108-99-0

> <URL>
https://www.enaminestore.com/catalog/EN300-27113805

> <ROCS_ShapeQuery>
hit0

> <ROCS_TanimotoCombo>
1.009 

> <ROCS_ShapeTanimoto>
0.539 

> <ROCS_ColorTanimoto>
0.469 

> <ROCS_RefTversky>
1.379 

> <ROCS_RefColorTversky>
0.639 

> <ROCS_RefTverskyCombo>
2.018 

> <ROCS_FitTversky>
0.470 

> <ROCS_FitColorTversky>
0.639 

> <ROCS_FitTverskyCombo>
1.108 

> <ROCS_ColorScore>
-3.833

> <ROCS_Overlap>
167.621

> <ROCS_Rank>
287                 

$$$$
untitled-dbase-100848_3
  -OEChem-06232314393D

 18 18  0     1  0  0  0  0  0999 V2000
   -6.4318    4.3595  -36.2537 C   0  0  0  0  0  0  0  0  0  0  0  0
   -7.8593    8.3877  -38.2095 C   0  0  0  0  0  0  0  0  0  0  0  0
   -8.1202    9.0496  -37.0098 C   0  0  0  0  0  0  0  0  0  0  0  0
   -7.1040    7.2150  -38.2092 C   0  0  0  0  0  0  0  0  0  0  0  0
   -7.6257    8.5389  -35.8097 C   0  0  0  0  0  0  0  0  0  0  0  0
   -6.6095    6.7043  -37.0090 C   0  0  0  0  0  0  0  0  0  0  0  0
   -6.8704    7.3662  -35.8093 C   0  0  0  0  0  0  0  0  0  0  0  0
   -5.8028    5.4483  -37.0277 C   0  0  2  0  0  0  0  0  0  0  0  0
   -6.9332    3.5103  -35.6420 N   0  0  0  0  0  0  0  0  0  0  0  0
   -6.3941    6.8812  -34.6284 O   0  0  0  0  0  0  0  0  0  0  0  0
   -5.6026    5.0174  -38.3801 O   0  0  0  0  0  0  0  0  0  0  0  0
   -8.2437    8.7853  -39.1445 H   0  0  0  0  0  0  0  0  0  0  0  0
   -8.7075    9.9631  -37.0107 H   0  0  0  0  0  0  0  0  0  0  0  0
   -6.9050    6.7076  -39.1494 H   0  0  0  0  0  0  0  0  0  0  0  0
   -7.8321    9.0591  -34.8782 H   0  0  0  0  0  0  0  0  0  0  0  0
   -4.7945    5.6343  -36.6221 H   0  0  0  0  0  0  0  0  0  0  0  0
   -6.6639    7.4577  -33.8964 H   0  0  0  0  0  0  0  0  0  0  0  0
   -5.0239    4.2436  -38.3319 H   0  0  0  0  0  0  0  0  0  0  0  0
  1  8  1  0  0  0  0
  1  9  3  0  0  0  0
  2  3  2  0  0  0  0
  2  4  1  0  0  0  0
  3  5  1  0  0  0  0
  4  6  2  0  0  0  0
  5  7  2  0  0  0  0
  6  7  1  0  0  0  0
  6  8  1  0  0  0  0
  7 10  1  0  0  0  0
  8 11  1  0  0  0  0
  2 12  1  0  0  0  0
  3 13  1  0  0  0  0
  4 14  1  0  0  0  0
  5 15  1  0  0  0  0
  8 16  1  0  0  0  0
 10 17  1  0  0  0  0
 11 18  1  0  0  0  0
M  END
> <id>
EN300-6808985

> <smiles>
OC(C#N)C=1C=CC=CC1O

> <MDLNUMBER>
MFCD24713525

> <IUPAC Name>
2-hydroxy-2-(2-hydroxyphenyl)acetonitrile

> <CAS>
13312-85-1

> <Purity>
95

> <URL>
https://www.enaminestore.com/catalog/EN300-6808985

> <ROCS_ShapeQuery>
hit0

> <ROCS_TanimotoCombo>
1.008 

> <ROCS_ShapeTanimoto>
0.448 

> <ROCS_ColorTanimoto>
0.560 

> <ROCS_RefTversky>
1.422 

> <ROCS_RefColorTversky>
0.718 

> <ROCS_RefTverskyCombo>
2.140 

> <ROCS_FitTversky>
0.395 

> <ROCS_FitColorTversky>
0.718 

> <ROCS_FitTverskyCombo>
1.113 

> <ROCS_ColorScore>
-4.308

> <ROCS_Overlap>
180.240

> <ROCS_Rank>
288                 

$$$$
untitled-dbase-103640_36
  -OEChem-06232314393D

 26 26  0     1  0  0  0  0  0999 V2000
   -6.2457    7.1019  -35.0495 C   0  0  0  0  0  0  0  0  0  0  0  0
   -4.7886    5.0831  -35.0826 C   0  0  0  0  0  0  0  0  0  0  0  0
   -5.6647    6.1280  -37.2585 C   0  0  0  0  0  0  0  0  0  0  0  0
   -5.3367    3.6210  -37.0952 C   0  0  0  0  0  0  0  0  0  0  0  0
   -5.1890    6.3701  -35.8234 C   0  0  0  0  0  0  0  0  0  0  0  0
   -5.5253    3.8429  -35.5914 C   0  0  2  0  0  0  0  0  0  0  0  0
   -4.9990    4.9001  -37.8695 C   0  0  1  0  0  0  0  0  0  0  0  0
   -7.5449    9.0757  -35.0463 C   0  0  0  0  0  0  0  0  0  0  0  0
   -6.7462    6.6875  -34.0127 O   0  0  0  0  0  0  0  0  0  0  0  0
   -6.9220    3.9715  -35.3255 O   0  0  0  0  0  0  0  0  0  0  0  0
   -5.4183    4.7378  -39.2205 O   0  0  0  0  0  0  0  0  0  0  0  0
   -6.5445    8.2728  -35.6808 O   0  0  0  0  0  0  0  0  0  0  0  0
   -3.6996    4.9246  -35.1625 H   0  0  0  0  0  0  0  0  0  0  0  0
   -4.9661    5.1996  -33.9985 H   0  0  0  0  0  0  0  0  0  0  0  0
   -6.7568    6.0092  -37.2849 H   0  0  0  0  0  0  0  0  0  0  0  0
   -5.4604    7.0094  -37.8799 H   0  0  0  0  0  0  0  0  0  0  0  0
   -4.5519    2.8617  -37.2668 H   0  0  0  0  0  0  0  0  0  0  0  0
   -6.2430    3.1516  -37.5229 H   0  0  0  0  0  0  0  0  0  0  0  0
   -4.3030    7.0483  -35.8530 H   0  0  0  0  0  0  0  0  0  0  0  0
   -5.1721    2.9528  -35.0443 H   0  0  0  0  0  0  0  0  0  0  0  0
   -3.9056    5.0382  -37.8786 H   0  0  0  0  0  0  0  0  0  0  0  0
   -7.7074    9.9852  -35.6299 H   0  0  0  0  0  0  0  0  0  0  0  0
   -7.2199    9.3323  -34.0348 H   0  0  0  0  0  0  0  0  0  0  0  0
   -8.4766    8.5074  -34.9944 H   0  0  0  0  0  0  0  0  0  0  0  0
   -7.0151    4.0568  -34.3635 H   0  0  0  0  0  0  0  0  0  0  0  0
   -4.9679    3.9477  -39.5585 H   0  0  0  0  0  0  0  0  0  0  0  0
  1  5  1  1  0  0  0
  1  9  2  0  0  0  0
  1 12  1  0  0  0  0
  2  5  1  0  0  0  0
  2  6  1  0  0  0  0
  3  5  1  0  0  0  0
  3  7  1  0  0  0  0
  4  6  1  0  0  0  0
  4  7  1  0  0  0  0
  6 10  1  1  0  0  0
  7 11  1  1  0  0  0
  8 12  1  0  0  0  0
  2 13  1  0  0  0  0
  2 14  1  0  0  0  0
  3 15  1  0  0  0  0
  3 16  1  0  0  0  0
  4 17  1  0  0  0  0
  4 18  1  0  0  0  0
  5 19  1  0  0  0  0
  6 20  1  0  0  0  0
  7 21  1  0  0  0  0
  8 22  1  0  0  0  0
  8 23  1  0  0  0  0
  8 24  1  0  0  0  0
 10 25  1  0  0  0  0
 11 26  1  0  0  0  0
M  END
> <id>
EN300-7543922

> <smiles>
COC(=O)[C@H]1C[C@@H](O)C[C@@H](O)C1

> <MDLNUMBER>
MFCD32648927

> <IUPAC Name>
methyl (1r,3R,5S)-3,5-dihydroxycyclohexane-1-carboxylate

> <CAS>
156526-48-6

> <Purity>
95

> <URL>
https://www.enaminestore.com/catalog/EN300-7543922

> <MP>
132-135

> <ROCS_ShapeQuery>
hit0

> <ROCS_TanimotoCombo>
1.008 

> <ROCS_ShapeTanimoto>
0.446 

> <ROCS_ColorTanimoto>
0.562 

> <ROCS_RefTversky>
1.468 

> <ROCS_RefColorTversky>
0.720 

> <ROCS_RefTverskyCombo>
2.187 

> <ROCS_FitTversky>
0.390 

> <ROCS_FitColorTversky>
0.720 

> <ROCS_FitTverskyCombo>
1.110 

> <ROCS_ColorScore>
-4.317

> <ROCS_Overlap>
187.993

> <ROCS_Rank>
289                 

$$$$
untitled-dbase-54845_5
  -OEChem-06232314393D

 18 18  0     0  0  0  0  0  0999 V2000
   -6.8442    8.0892  -37.8044 C   0  0  0  0  0  0  0  0  0  0  0  0
   -6.5037    6.9121  -38.4708 C   0  0  0  0  0  0  0  0  0  0  0  0
   -6.1656    5.8084  -36.3483 C   0  0  0  0  0  0  0  0  0  0  0  0
   -6.5061    6.9856  -35.6820 C   0  0  0  0  0  0  0  0  0  0  0  0
   -6.8453    8.1260  -36.4100 C   0  0  0  0  0  0  0  0  0  0  0  0
   -6.1644    5.7717  -37.7427 C   0  0  0  0  0  0  0  0  0  0  0  0
   -5.8043    4.5899  -35.5557 C   0  0  0  0  0  0  0  0  0  0  0  0
   -6.5125    7.0425  -34.2706 N   0  0  0  0  0  0  0  0  0  0  0  0
   -6.8866    3.6712  -35.5941 O   0  0  0  0  0  0  0  0  0  0  0  0
   -7.1734    9.2637  -35.7811 F   0  0  0  0  0  0  0  0  0  0  0  0
   -5.7513    4.3347  -38.6062 Cl  0  0  0  0  0  0  0  0  0  0  0  0
   -7.1062    8.9773  -38.3720 H   0  0  0  0  0  0  0  0  0  0  0  0
   -6.5077    6.9001  -39.5577 H   0  0  0  0  0  0  0  0  0  0  0  0
   -4.9109    4.1039  -35.9649 H   0  0  0  0  0  0  0  0  0  0  0  0
   -5.5942    4.8513  -34.5119 H   0  0  0  0  0  0  0  0  0  0  0  0
   -6.3151    6.2131  -33.7501 H   0  0  0  0  0  0  0  0  0  0  0  0
   -6.8058    7.8844  -33.8200 H   0  0  0  0  0  0  0  0  0  0  0  0
   -6.6175    2.8976  -35.0723 H   0  0  0  0  0  0  0  0  0  0  0  0
  1  2  2  0  0  0  0
  1  5  1  0  0  0  0
  2  6  1  0  0  0  0
  3  4  1  0  0  0  0
  3  6  2  0  0  0  0
  3  7  1  0  0  0  0
  4  5  2  0  0  0  0
  4  8  1  0  0  0  0
  5 10  1  0  0  0  0
  6 11  1  0  0  0  0
  7  9  1  0  0  0  0
  1 12  1  0  0  0  0
  2 13  1  0  0  0  0
  7 14  1  0  0  0  0
  7 15  1  0  0  0  0
  8 16  1  0  0  0  0
  8 17  1  0  0  0  0
  9 18  1  0  0  0  0
M  END
> <id>
EN300-1655742

> <smiles>
NC=1C(F)=CC=C(Cl)C1CO

> <MDLNUMBER>
MFCD31616670

> <IUPAC Name>
(2-amino-6-chloro-3-fluorophenyl)methanol

> <CAS>
1595577-00-6

> <Purity>
95

> <URL>
https://www.enaminestore.com/catalog/EN300-1655742

> <ROCS_ShapeQuery>
hit0

> <ROCS_TanimotoCombo>
1.008 

> <ROCS_ShapeTanimoto>
0.455 

> <ROCS_ColorTanimoto>
0.553 

> <ROCS_RefTversky>
1.426 

> <ROCS_RefColorTversky>
0.658 

> <ROCS_RefTverskyCombo>
2.084 

> <ROCS_FitTversky>
0.400 

> <ROCS_FitColorTversky>
0.776 

> <ROCS_FitTverskyCombo>
1.176 

> <ROCS_ColorScore>
-3.918

> <ROCS_Overlap>
180.250

> <ROCS_Rank>
290                 

$$$$
untitled-dbase-73963_273
  -OEChem-06232314393D

 26 26  0     1  0  0  0  0  0999 V2000
   -7.1923    8.3573  -36.8011 C   0  0  0  0  0  0  0  0  0  0  0  0
   -6.3013    7.6669  -37.8319 C   0  0  0  0  0  0  0  0  0  0  0  0
   -8.1374    7.4342  -36.0369 C   0  0  0  0  0  0  0  0  0  0  0  0
   -5.1556    6.8873  -37.1904 C   0  0  0  0  0  0  0  0  0  0  0  0
   -7.4948    6.2663  -35.2866 C   0  0  1  0  0  0  0  0  0  0  0  0
   -5.4986    5.4591  -36.7640 C   0  0  1  0  0  0  0  0  0  0  0  0
   -6.9110    5.2065  -36.2245 C   0  0  1  0  0  0  0  0  0  0  0  0
   -6.2508    5.0688  -38.9220 N   0  0  0  0  0  0  0  0  0  0  0  0
   -6.5144    6.7531  -34.3769 O   0  0  0  0  0  0  0  0  0  0  0  0
   -6.8643    3.9748  -35.4846 O   0  0  0  0  0  0  0  0  0  0  0  0
   -5.3394    4.5944  -37.8986 O   0  0  0  0  0  0  0  0  0  0  0  0
   -6.5743    8.9226  -36.0927 H   0  0  0  0  0  0  0  0  0  0  0  0
   -7.8059    9.1017  -37.3246 H   0  0  0  0  0  0  0  0  0  0  0  0
   -6.8911    7.0325  -38.5031 H   0  0  0  0  0  0  0  0  0  0  0  0
   -5.8590    8.4534  -38.4568 H   0  0  0  0  0  0  0  0  0  0  0  0
   -8.6705    8.0573  -35.3066 H   0  0  0  0  0  0  0  0  0  0  0  0
   -8.8985    7.0475  -36.7261 H   0  0  0  0  0  0  0  0  0  0  0  0
   -4.3293    6.8465  -37.9126 H   0  0  0  0  0  0  0  0  0  0  0  0
   -4.7760    7.4453  -36.3259 H   0  0  0  0  0  0  0  0  0  0  0  0
   -8.2785    5.8027  -34.6732 H   0  0  0  0  0  0  0  0  0  0  0  0
   -4.7516    5.1243  -36.0300 H   0  0  0  0  0  0  0  0  0  0  0  0
   -7.6121    5.0214  -37.0508 H   0  0  0  0  0  0  0  0  0  0  0  0
   -6.7693    4.2125  -39.1120 H   0  0  0  0  0  0  0  0  0  0  0  0
   -5.6018    5.1937  -39.6973 H   0  0  0  0  0  0  0  0  0  0  0  0
   -6.1401    5.9774  -33.9300 H   0  0  0  0  0  0  0  0  0  0  0  0
   -6.4944    3.3183  -36.0893 H   0  0  0  0  0  0  0  0  0  0  0  0
  1  2  1  0  0  0  0
  1  3  1  0  0  0  0
  2  4  1  0  0  0  0
  3  5  1  0  0  0  0
  4  6  1  0  0  0  0
  5  7  1  0  0  0  0
  5  9  1  0  0  0  0
  6  7  1  0  0  0  0
  6 11  1  0  0  0  0
  7 10  1  0  0  0  0
  8 11  1  0  0  0  0
  1 12  1  0  0  0  0
  1 13  1  0  0  0  0
  2 14  1  0  0  0  0
  2 15  1  0  0  0  0
  3 16  1  0  0  0  0
  3 17  1  0  0  0  0
  4 18  1  0  0  0  0
  4 19  1  0  0  0  0
  5 20  1  0  0  0  0
  6 21  1  0  0  0  0
  7 22  1  0  0  0  0
  8 23  1  0  0  0  0
  8 24  1  0  0  0  0
  9 25  1  0  0  0  0
 10 26  1  0  0  0  0
M  END
> <id>
EN300-27107674

> <smiles>
Cl.NOC1CCCCC(O)C1O

> <MDLNUMBER>
MFCD32711361

> <IUPAC Name>
3-(aminooxy)cycloheptane-1,2-diol hydrochloride

> <CAS>
2470440-90-3

> <Purity>
95

> <URL>
https://www.enaminestore.com/catalog/EN300-27107674

> <Saltdate>
Cl

> <ROCS_ShapeQuery>
hit0

> <ROCS_TanimotoCombo>
1.007 

> <ROCS_ShapeTanimoto>
0.462 

> <ROCS_ColorTanimoto>
0.545 

> <ROCS_RefTversky>
1.404 

> <ROCS_RefColorTversky>
0.652 

> <ROCS_RefTverskyCombo>
2.056 

> <ROCS_FitTversky>
0.408 

> <ROCS_FitColorTversky>
0.769 

> <ROCS_FitTverskyCombo>
1.177 

> <ROCS_ColorScore>
-3.882

> <ROCS_Overlap>
176.132

> <ROCS_Rank>
291                 

$$$$
untitled-dbase-74117_273
  -OEChem-06232314393D

 26 26  0     1  0  0  0  0  0999 V2000
   -7.1923    8.3573  -36.8011 C   0  0  0  0  0  0  0  0  0  0  0  0
   -6.3013    7.6669  -37.8319 C   0  0  0  0  0  0  0  0  0  0  0  0
   -8.1374    7.4342  -36.0369 C   0  0  0  0  0  0  0  0  0  0  0  0
   -5.1556    6.8873  -37.1904 C   0  0  0  0  0  0  0  0  0  0  0  0
   -7.4948    6.2663  -35.2866 C   0  0  1  0  0  0  0  0  0  0  0  0
   -5.4986    5.4591  -36.7640 C   0  0  1  0  0  0  0  0  0  0  0  0
   -6.9110    5.2065  -36.2245 C   0  0  1  0  0  0  0  0  0  0  0  0
   -6.2508    5.0688  -38.9220 N   0  0  0  0  0  0  0  0  0  0  0  0
   -6.5144    6.7531  -34.3769 O   0  0  0  0  0  0  0  0  0  0  0  0
   -6.8643    3.9748  -35.4846 O   0  0  0  0  0  0  0  0  0  0  0  0
   -5.3394    4.5944  -37.8986 O   0  0  0  0  0  0  0  0  0  0  0  0
   -6.5743    8.9226  -36.0927 H   0  0  0  0  0  0  0  0  0  0  0  0
   -7.8059    9.1017  -37.3246 H   0  0  0  0  0  0  0  0  0  0  0  0
   -6.8911    7.0325  -38.5031 H   0  0  0  0  0  0  0  0  0  0  0  0
   -5.8590    8.4534  -38.4568 H   0  0  0  0  0  0  0  0  0  0  0  0
   -8.6705    8.0573  -35.3066 H   0  0  0  0  0  0  0  0  0  0  0  0
   -8.8985    7.0475  -36.7261 H   0  0  0  0  0  0  0  0  0  0  0  0
   -4.3293    6.8465  -37.9126 H   0  0  0  0  0  0  0  0  0  0  0  0
   -4.7760    7.4453  -36.3259 H   0  0  0  0  0  0  0  0  0  0  0  0
   -8.2785    5.8027  -34.6732 H   0  0  0  0  0  0  0  0  0  0  0  0
   -4.7516    5.1243  -36.0300 H   0  0  0  0  0  0  0  0  0  0  0  0
   -7.6121    5.0214  -37.0508 H   0  0  0  0  0  0  0  0  0  0  0  0
   -6.7693    4.2125  -39.1120 H   0  0  0  0  0  0  0  0  0  0  0  0
   -5.6018    5.1937  -39.6973 H   0  0  0  0  0  0  0  0  0  0  0  0
   -6.1401    5.9774  -33.9300 H   0  0  0  0  0  0  0  0  0  0  0  0
   -6.4944    3.3183  -36.0893 H   0  0  0  0  0  0  0  0  0  0  0  0
  1  2  1  0  0  0  0
  1  3  1  0  0  0  0
  2  4  1  0  0  0  0
  3  5  1  0  0  0  0
  4  6  1  0  0  0  0
  5  7  1  0  0  0  0
  5  9  1  0  0  0  0
  6  7  1  0  0  0  0
  6 11  1  0  0  0  0
  7 10  1  0  0  0  0
  8 11  1  0  0  0  0
  1 12  1  0  0  0  0
  1 13  1  0  0  0  0
  2 14  1  0  0  0  0
  2 15  1  0  0  0  0
  3 16  1  0  0  0  0
  3 17  1  0  0  0  0
  4 18  1  0  0  0  0
  4 19  1  0  0  0  0
  5 20  1  0  0  0  0
  6 21  1  0  0  0  0
  7 22  1  0  0  0  0
  8 23  1  0  0  0  0
  8 24  1  0  0  0  0
  9 25  1  0  0  0  0
 10 26  1  0  0  0  0
M  END
> <id>
EN300-27107492

> <smiles>
NOC1CCCCC(O)C1O

> <MDLNUMBER>
MFCD32711380

> <IUPAC Name>
3-(aminooxy)cycloheptane-1,2-diol

> <CAS>
2470440-23-2

> <URL>
https://www.enaminestore.com/catalog/EN300-27107492

> <ROCS_ShapeQuery>
hit0

> <ROCS_TanimotoCombo>
1.007 

> <ROCS_ShapeTanimoto>
0.462 

> <ROCS_ColorTanimoto>
0.545 

> <ROCS_RefTversky>
1.404 

> <ROCS_RefColorTversky>
0.652 

> <ROCS_RefTverskyCombo>
2.056 

> <ROCS_FitTversky>
0.408 

> <ROCS_FitColorTversky>
0.769 

> <ROCS_FitTverskyCombo>
1.177 

> <ROCS_ColorScore>
-3.882

> <ROCS_Overlap>
176.132

> <ROCS_Rank>
292                 

$$$$
untitled-dbase-108649_3
  -OEChem-06232314393D

 13 12  0     1  0  0  0  0  0999 V2000
   -5.7554    4.8161  -37.4881 C   0  0  0  0  0  0  0  0  0  0  0  0
   -6.8070    6.3494  -34.1177 C   0  0  0  0  0  0  0  0  0  0  0  0
   -6.5367    6.2525  -35.6124 C   0  0  0  0  0  0  0  0  0  0  0  0
   -5.9495    4.9029  -36.0348 C   0  0  1  0  0  0  0  0  0  0  0  0
   -5.6000    4.7459  -38.6359 N   0  0  0  0  0  0  0  0  0  0  0  0
   -6.8464    3.8683  -35.6363 O   0  0  0  0  0  0  0  0  0  0  0  0
   -7.4723    5.5388  -33.8032 H   0  0  0  0  0  0  0  0  0  0  0  0
   -7.2888    7.2965  -33.8567 H   0  0  0  0  0  0  0  0  0  0  0  0
   -5.8777    6.2649  -33.5456 H   0  0  0  0  0  0  0  0  0  0  0  0
   -5.8693    7.0687  -35.9182 H   0  0  0  0  0  0  0  0  0  0  0  0
   -7.4771    6.4214  -36.1523 H   0  0  0  0  0  0  0  0  0  0  0  0
   -4.9967    4.7267  -35.5229 H   0  0  0  0  0  0  0  0  0  0  0  0
   -6.4291    3.0302  -35.8879 H   0  0  0  0  0  0  0  0  0  0  0  0
  1  4  1  0  0  0  0
  1  5  3  0  0  0  0
  2  3  1  0  0  0  0
  3  4  1  0  0  0  0
  4  6  1  0  0  0  0
  2  7  1  0  0  0  0
  2  8  1  0  0  0  0
  2  9  1  0  0  0  0
  3 10  1  0  0  0  0
  3 11  1  0  0  0  0
  4 12  1  0  0  0  0
  6 13  1  0  0  0  0
M  END
> <id>
EN300-96603

> <smiles>
CCC(O)C#N

> <MDLNUMBER>
MFCD00042729

> <IUPAC Name>
2-hydroxybutanenitrile

> <CAS>
4476-02-2

> <Purity>
95

> <URL>
https://www.enaminestore.com/catalog/EN300-96603

> <ROCS_ShapeQuery>
hit0

> <ROCS_TanimotoCombo>
1.007 

> <ROCS_ShapeTanimoto>
0.592 

> <ROCS_ColorTanimoto>
0.415 

> <ROCS_RefTversky>
1.080 

> <ROCS_RefColorTversky>
0.497 

> <ROCS_RefTverskyCombo>
1.577 

> <ROCS_FitTversky>
0.568 

> <ROCS_FitColorTversky>
0.715 

> <ROCS_FitTverskyCombo>
1.283 

> <ROCS_ColorScore>
-2.933

> <ROCS_Overlap>
123.268

> <ROCS_Rank>
293                 

$$$$
untitled-dbase-100460_0
  -OEChem-06232314393D

 24 24  0     0  0  0  0  0  0999 V2000
   -6.4459    6.8779  -38.4770 C   0  0  0  0  0  0  0  0  0  0  0  0
   -6.7853    8.0659  -37.8297 C   0  0  0  0  0  0  0  0  0  0  0  0
   -6.1262    5.7437  -37.7306 C   0  0  0  0  0  0  0  0  0  0  0  0
   -6.8050    8.1198  -36.4361 C   0  0  0  0  0  0  0  0  0  0  0  0
   -6.1459    5.7976  -36.3369 C   0  0  0  0  0  0  0  0  0  0  0  0
   -6.4853    6.9856  -35.6896 C   0  0  0  0  0  0  0  0  0  0  0  0
   -5.7676    4.4842  -38.4495 C   0  0  0  0  0  0  0  0  0  0  0  0
   -7.1714    9.4068  -35.7711 C   0  0  0  0  0  0  0  0  0  0  0  0
   -5.8031    4.5768  -35.5414 C   0  0  0  0  0  0  0  0  0  0  0  0
   -6.5057    7.0424  -34.2765 N   0  0  0  0  0  0  0  0  0  0  0  0
   -6.8931    3.6670  -35.5893 O   0  0  0  0  0  0  0  0  0  0  0  0
   -6.4348    6.8459  -39.5632 H   0  0  0  0  0  0  0  0  0  0  0  0
   -7.0325    8.9441  -38.4201 H   0  0  0  0  0  0  0  0  0  0  0  0
   -4.6872    4.4447  -38.6297 H   0  0  0  0  0  0  0  0  0  0  0  0
   -6.0581    3.6003  -37.8687 H   0  0  0  0  0  0  0  0  0  0  0  0
   -6.2860    4.4175  -39.4139 H   0  0  0  0  0  0  0  0  0  0  0  0
   -8.2537    9.4533  -35.6055 H   0  0  0  0  0  0  0  0  0  0  0  0
   -6.6644    9.5109  -34.8042 H   0  0  0  0  0  0  0  0  0  0  0  0
   -6.8733   10.2670  -36.3828 H   0  0  0  0  0  0  0  0  0  0  0  0
   -4.9102    4.0818  -35.9418 H   0  0  0  0  0  0  0  0  0  0  0  0
   -5.6002    4.8356  -34.4953 H   0  0  0  0  0  0  0  0  0  0  0  0
   -6.3209    6.2111  -33.7561 H   0  0  0  0  0  0  0  0  0  0  0  0
   -6.7963    7.8867  -33.8305 H   0  0  0  0  0  0  0  0  0  0  0  0
   -6.6349    2.8916  -35.0648 H   0  0  0  0  0  0  0  0  0  0  0  0
  1  2  1  0  0  0  0
  1  3  2  0  0  0  0
  2  4  2  0  0  0  0
  3  5  1  0  0  0  0
  3  7  1  0  0  0  0
  4  6  1  0  0  0  0
  4  8  1  0  0  0  0
  5  6  2  0  0  0  0
  5  9  1  0  0  0  0
  6 10  1  0  0  0  0
  9 11  1  0  0  0  0
  1 12  1  0  0  0  0
  2 13  1  0  0  0  0
  7 14  1  0  0  0  0
  7 15  1  0  0  0  0
  7 16  1  0  0  0  0
  8 17  1  0  0  0  0
  8 18  1  0  0  0  0
  8 19  1  0  0  0  0
  9 20  1  0  0  0  0
  9 21  1  0  0  0  0
 10 22  1  0  0  0  0
 10 23  1  0  0  0  0
 11 24  1  0  0  0  0
M  END
> <id>
EN300-7694361

> <smiles>
CC=1C=CC(C)=C(CO)C1N

> <MDLNUMBER>
MFCD18825439

> <IUPAC Name>
(2-amino-3,6-dimethylphenyl)methanol

> <CAS>
177531-96-3

> <Purity>
95

> <URL>
https://www.enaminestore.com/catalog/EN300-7694361

> <MP>
106-108

> <ROCS_ShapeQuery>
hit0

> <ROCS_TanimotoCombo>
1.006 

> <ROCS_ShapeTanimoto>
0.453 

> <ROCS_ColorTanimoto>
0.553 

> <ROCS_RefTversky>
1.425 

> <ROCS_RefColorTversky>
0.658 

> <ROCS_RefTverskyCombo>
2.083 

> <ROCS_FitTversky>
0.399 

> <ROCS_FitColorTversky>
0.776 

> <ROCS_FitTverskyCombo>
1.175 

> <ROCS_ColorScore>
-3.918

> <ROCS_Overlap>
180.228

> <ROCS_Rank>
294                 

$$$$
untitled-dbase-19161_0
  -OEChem-06232314393D

 15 15  0     1  0  0  0  0  0999 V2000
   -6.5178    4.6765  -35.7248 C   0  0  0  0  0  0  0  0  0  0  0  0
   -5.9076    5.7248  -36.6146 C   0  0  2  0  0  0  0  0  0  0  0  0
   -6.9212    6.1202  -35.5705 C   0  0  2  0  0  0  0  0  0  0  0  0
   -6.2629    5.7784  -38.0605 C   0  0  0  0  0  0  0  0  0  0  0  0
   -6.4948    6.8764  -34.3899 N   0  0  0  0  0  0  0  0  0  0  0  0
   -5.5110    4.8029  -38.7825 O   0  0  0  0  0  0  0  0  0  0  0  0
   -7.2444    3.9946  -36.1500 H   0  0  0  0  0  0  0  0  0  0  0  0
   -5.8843    4.2311  -34.9665 H   0  0  0  0  0  0  0  0  0  0  0  0
   -4.8673    5.9785  -36.4468 H   0  0  0  0  0  0  0  0  0  0  0  0
   -7.9159    6.3814  -35.9175 H   0  0  0  0  0  0  0  0  0  0  0  0
   -6.0405    6.7656  -38.4987 H   0  0  0  0  0  0  0  0  0  0  0  0
   -7.3326    5.5680  -38.2259 H   0  0  0  0  0  0  0  0  0  0  0  0
   -6.4983    7.8389  -34.6257 H   0  0  0  0  0  0  0  0  0  0  0  0
   -7.1369    6.6882  -33.6589 H   0  0  0  0  0  0  0  0  0  0  0  0
   -5.7437    3.9421  -38.4031 H   0  0  0  0  0  0  0  0  0  0  0  0
  1  2  1  0  0  0  0
  1  3  1  0  0  0  0
  2  3  1  0  0  0  0
  2  4  1  1  0  0  0
  3  5  1  6  0  0  0
  4  6  1  0  0  0  0
  1  7  1  0  0  0  0
  1  8  1  0  0  0  0
  2  9  1  0  0  0  0
  3 10  1  0  0  0  0
  4 11  1  0  0  0  0
  4 12  1  0  0  0  0
  5 13  1  0  0  0  0
  5 14  1  0  0  0  0
  6 15  1  0  0  0  0
M  END
> <id>
EN300-196962

> <smiles>
N[C@@H]1C[C@H]1CO |&1:1,3,r|

> <MDLNUMBER>
MFCD28145421

> <IUPAC Name>
rac-[(1R,2R)-2-aminocyclopropyl]methanol

> <CAS>
873537-21-4

> <Purity>
95

> <URL>
https://www.enaminestore.com/catalog/EN300-196962

> <ROCS_ShapeQuery>
hit0

> <ROCS_TanimotoCombo>
1.006 

> <ROCS_ShapeTanimoto>
0.578 

> <ROCS_ColorTanimoto>
0.427 

> <ROCS_RefTversky>
1.082 

> <ROCS_RefColorTversky>
0.508 

> <ROCS_RefTverskyCombo>
1.589 

> <ROCS_FitTversky>
0.554 

> <ROCS_FitColorTversky>
0.730 

> <ROCS_FitTverskyCombo>
1.285 

> <ROCS_ColorScore>
-2.994

> <ROCS_Overlap>
123.890

> <ROCS_Rank>
295                 

$$$$
untitled-dbase-117115_13
  -OEChem-06232314393D

 19 19  0     1  0  0  0  0  0999 V2000
   -6.9202    6.2938  -37.1670 C   0  0  0  0  0  0  0  0  0  0  0  0
   -5.8978    4.6328  -36.2363 C   0  0  1  0  0  0  0  0  0  0  0  0
   -6.4820    4.8903  -37.6456 C   0  0  2  0  0  0  0  0  0  0  0  0
   -5.9571    6.1531  -35.9678 C   0  0  2  0  0  0  0  0  0  0  0  0
   -6.7985    7.9622  -34.7314 C   0  0  0  0  0  0  0  0  0  0  0  0
   -6.8974    3.9354  -35.4249 N   0  0  0  0  0  0  0  0  0  0  0  0
   -5.5154    4.8790  -38.7163 O   0  0  0  0  0  0  0  0  0  0  0  0
   -6.4564    6.5913  -34.6912 O   0  0  0  0  0  0  0  0  0  0  0  0
   -6.6588    7.1097  -37.8545 H   0  0  0  0  0  0  0  0  0  0  0  0
   -7.9827    6.3842  -36.9121 H   0  0  0  0  0  0  0  0  0  0  0  0
   -4.8992    4.1926  -36.2133 H   0  0  0  0  0  0  0  0  0  0  0  0
   -7.3423    4.2652  -37.9172 H   0  0  0  0  0  0  0  0  0  0  0  0
   -4.9809    6.6489  -36.1491 H   0  0  0  0  0  0  0  0  0  0  0  0
   -7.1745    8.2735  -33.7538 H   0  0  0  0  0  0  0  0  0  0  0  0
   -7.5618    8.1258  -35.4963 H   0  0  0  0  0  0  0  0  0  0  0  0
   -5.9073    8.5439  -34.9786 H   0  0  0  0  0  0  0  0  0  0  0  0
   -7.2453    4.5695  -34.7442 H   0  0  0  0  0  0  0  0  0  0  0  0
   -7.6284    3.6306  -36.0241 H   0  0  0  0  0  0  0  0  0  0  0  0
   -5.3418    3.9474  -38.9040 H   0  0  0  0  0  0  0  0  0  0  0  0
  1  3  1  0  0  0  0
  1  4  1  0  0  0  0
  2  3  1  0  0  0  0
  2  4  1  0  0  0  0
  2  6  1  6  0  0  0
  3  7  1  1  0  0  0
  4  8  1  6  0  0  0
  5  8  1  0  0  0  0
  1  9  1  0  0  0  0
  1 10  1  0  0  0  0
  2 11  1  0  0  0  0
  3 12  1  0  0  0  0
  4 13  1  0  0  0  0
  5 14  1  0  0  0  0
  5 15  1  0  0  0  0
  5 16  1  0  0  0  0
  6 17  1  0  0  0  0
  6 18  1  0  0  0  0
  7 19  1  0  0  0  0
M  END
> <id>
EN300-37465960

> <smiles>
CO[C@@H]1C[C@@H](O)[C@@H]1N |&1:2,4,6,r|

> <IUPAC Name>
rac-(1R,2S,3R)-2-amino-3-methoxycyclobutan-1-ol

> <URL>
https://www.enaminestore.com/catalog/EN300-37465960

> <ROCS_ShapeQuery>
hit0

> <ROCS_TanimotoCombo>
1.006 

> <ROCS_ShapeTanimoto>
0.553 

> <ROCS_ColorTanimoto>
0.452 

> <ROCS_RefTversky>
1.292 

> <ROCS_RefColorTversky>
0.623 

> <ROCS_RefTverskyCombo>
1.915 

> <ROCS_FitTversky>
0.492 

> <ROCS_FitColorTversky>
0.623 

> <ROCS_FitTverskyCombo>
1.115 

> <ROCS_ColorScore>
-3.738

> <ROCS_Overlap>
154.025

> <ROCS_Rank>
296                 

$$$$
untitled-dbase-117114_13
  -OEChem-06232314393D

 19 19  0     1  0  0  0  0  0999 V2000
   -6.9202    6.2938  -37.1670 C   0  0  0  0  0  0  0  0  0  0  0  0
   -5.8978    4.6328  -36.2363 C   0  0  1  0  0  0  0  0  0  0  0  0
   -6.4820    4.8903  -37.6456 C   0  0  2  0  0  0  0  0  0  0  0  0
   -5.9571    6.1531  -35.9678 C   0  0  2  0  0  0  0  0  0  0  0  0
   -6.7985    7.9622  -34.7314 C   0  0  0  0  0  0  0  0  0  0  0  0
   -6.8974    3.9354  -35.4249 N   0  0  0  0  0  0  0  0  0  0  0  0
   -5.5154    4.8790  -38.7163 O   0  0  0  0  0  0  0  0  0  0  0  0
   -6.4564    6.5913  -34.6912 O   0  0  0  0  0  0  0  0  0  0  0  0
   -6.6588    7.1097  -37.8545 H   0  0  0  0  0  0  0  0  0  0  0  0
   -7.9827    6.3842  -36.9121 H   0  0  0  0  0  0  0  0  0  0  0  0
   -4.8992    4.1926  -36.2133 H   0  0  0  0  0  0  0  0  0  0  0  0
   -7.3423    4.2652  -37.9172 H   0  0  0  0  0  0  0  0  0  0  0  0
   -4.9809    6.6489  -36.1491 H   0  0  0  0  0  0  0  0  0  0  0  0
   -7.1745    8.2735  -33.7538 H   0  0  0  0  0  0  0  0  0  0  0  0
   -7.5618    8.1258  -35.4963 H   0  0  0  0  0  0  0  0  0  0  0  0
   -5.9073    8.5439  -34.9786 H   0  0  0  0  0  0  0  0  0  0  0  0
   -7.2453    4.5695  -34.7442 H   0  0  0  0  0  0  0  0  0  0  0  0
   -7.6284    3.6306  -36.0241 H   0  0  0  0  0  0  0  0  0  0  0  0
   -5.3418    3.9474  -38.9040 H   0  0  0  0  0  0  0  0  0  0  0  0
  1  3  1  0  0  0  0
  1  4  1  0  0  0  0
  2  3  1  0  0  0  0
  2  4  1  0  0  0  0
  2  6  1  6  0  0  0
  3  7  1  1  0  0  0
  4  8  1  6  0  0  0
  5  8  1  0  0  0  0
  1  9  1  0  0  0  0
  1 10  1  0  0  0  0
  2 11  1  0  0  0  0
  3 12  1  0  0  0  0
  4 13  1  0  0  0  0
  5 14  1  0  0  0  0
  5 15  1  0  0  0  0
  5 16  1  0  0  0  0
  6 17  1  0  0  0  0
  6 18  1  0  0  0  0
  7 19  1  0  0  0  0
M  END
> <id>
EN300-37465959

> <smiles>
Cl.CO[C@@H]1C[C@@H](O)[C@@H]1N |&1:3,5,7,r|

> <IUPAC Name>
rac-(1R,2S,3R)-2-amino-3-methoxycyclobutan-1-ol hydrochloride

> <Purity>
95

> <URL>
https://www.enaminestore.com/catalog/EN300-37465959

> <ROCS_ShapeQuery>
hit0

> <ROCS_TanimotoCombo>
1.006 

> <ROCS_ShapeTanimoto>
0.553 

> <ROCS_ColorTanimoto>
0.452 

> <ROCS_RefTversky>
1.292 

> <ROCS_RefColorTversky>
0.623 

> <ROCS_RefTverskyCombo>
1.915 

> <ROCS_FitTversky>
0.492 

> <ROCS_FitColorTversky>
0.623 

> <ROCS_FitTverskyCombo>
1.115 

> <ROCS_ColorScore>
-3.738

> <ROCS_Overlap>
154.025

> <ROCS_Rank>
297                 

$$$$
untitled-dbase-57907_6
  -OEChem-06232314393D

 17 17  0     0  0  0  0  0  0999 V2000
   -5.8084    7.0977  -36.7612 C   0  0  0  0  0  0  0  0  0  0  0  0
   -7.5817    5.9841  -34.9178 C   0  0  0  0  0  0  0  0  0  0  0  0
   -5.8909    5.7123  -36.6221 C   0  0  0  0  0  0  0  0  0  0  0  0
   -6.7776    5.1555  -35.7005 C   0  0  0  0  0  0  0  0  0  0  0  0
   -6.6124    7.9264  -35.9785 C   0  0  0  0  0  0  0  0  0  0  0  0
   -7.4991    7.3696  -35.0569 C   0  0  0  0  0  0  0  0  0  0  0  0
   -5.0215    4.8402  -37.4667 C   0  0  0  0  0  0  0  0  0  0  0  0
   -6.8687    3.8044  -35.5508 O   0  0  0  0  0  0  0  0  0  0  0  0
   -5.5332    4.8086  -38.7927 O   0  0  0  0  0  0  0  0  0  0  0  0
   -6.4655    9.6349  -36.1981 Cl  0  0  0  0  0  0  0  0  0  0  0  0
   -8.5211    8.3430  -34.0585 Cl  0  0  0  0  0  0  0  0  0  0  0  0
   -5.1144    7.5245  -37.4822 H   0  0  0  0  0  0  0  0  0  0  0  0
   -8.2691    5.5393  -34.2018 H   0  0  0  0  0  0  0  0  0  0  0  0
   -3.9896    5.2143  -37.4963 H   0  0  0  0  0  0  0  0  0  0  0  0
   -4.9902    3.8152  -37.0745 H   0  0  0  0  0  0  0  0  0  0  0  0
   -7.5268    3.5861  -34.8724 H   0  0  0  0  0  0  0  0  0  0  0  0
   -6.4333    4.4493  -38.7366 H   0  0  0  0  0  0  0  0  0  0  0  0
  1  3  2  0  0  0  0
  1  5  1  0  0  0  0
  2  4  2  0  0  0  0
  2  6  1  0  0  0  0
  3  4  1  0  0  0  0
  3  7  1  0  0  0  0
  4  8  1  0  0  0  0
  5  6  2  0  0  0  0
  5 10  1  0  0  0  0
  6 11  1  0  0  0  0
  7  9  1  0  0  0  0
  1 12  1  0  0  0  0
  2 13  1  0  0  0  0
  7 14  1  0  0  0  0
  7 15  1  0  0  0  0
  8 16  1  0  0  0  0
  9 17  1  0  0  0  0
M  END
> <id>
EN300-212972

> <smiles>
OCC=1C=C(Cl)C(Cl)=CC1O

> <MDLNUMBER>
MFCD28505914

> <IUPAC Name>
4,5-dichloro-2-(hydroxymethyl)phenol

> <CAS>
412318-90-2

> <Purity>
95

> <URL>
https://www.enaminestore.com/catalog/EN300-212972

> <ROCS_ShapeQuery>
hit0

> <ROCS_TanimotoCombo>
1.005 

> <ROCS_ShapeTanimoto>
0.435 

> <ROCS_ColorTanimoto>
0.570 

> <ROCS_RefTversky>
1.367 

> <ROCS_RefColorTversky>
0.672 

> <ROCS_RefTverskyCombo>
2.039 

> <ROCS_FitTversky>
0.390 

> <ROCS_FitColorTversky>
0.790 

> <ROCS_FitTverskyCombo>
1.180 

> <ROCS_ColorScore>
-3.998

> <ROCS_Overlap>
172.225

> <ROCS_Rank>
298                 

$$$$
untitled-dbase-30326_9
  -OEChem-06232314393D

 19 19  0     1  0  0  0  0  0999 V2000
   -6.8735    6.7979  -35.8689 C   0  0  0  0  0  0  0  0  0  0  0  0
   -5.6778    5.5658  -34.2844 C   0  0  0  0  0  0  0  0  0  0  0  0
   -5.9649    5.8260  -36.6052 C   0  0  1  0  0  0  0  0  0  0  0  0
   -5.7621    4.7464  -35.5587 C   0  0  2  0  0  0  0  0  0  0  0  0
   -6.5359    5.3606  -37.9330 C   0  0  0  0  0  0  0  0  0  0  0  0
   -5.4928    4.8568  -38.7666 N   0  0  0  0  0  0  0  0  0  0  0  0
   -6.5092    6.7238  -34.4819 O   0  0  0  0  0  0  0  0  0  0  0  0
   -6.8937    3.8858  -35.4948 O   0  0  0  0  0  0  0  0  0  0  0  0
   -6.7551    7.8272  -36.2202 H   0  0  0  0  0  0  0  0  0  0  0  0
   -7.9310    6.5232  -35.9501 H   0  0  0  0  0  0  0  0  0  0  0  0
   -6.0272    5.0293  -33.3975 H   0  0  0  0  0  0  0  0  0  0  0  0
   -4.6584    5.9262  -34.1118 H   0  0  0  0  0  0  0  0  0  0  0  0
   -5.0002    6.3162  -36.7832 H   0  0  0  0  0  0  0  0  0  0  0  0
   -4.8708    4.1347  -35.7246 H   0  0  0  0  0  0  0  0  0  0  0  0
   -7.2646    4.5755  -37.7237 H   0  0  0  0  0  0  0  0  0  0  0  0
   -7.0166    6.2185  -38.4062 H   0  0  0  0  0  0  0  0  0  0  0  0
   -5.4573    5.3759  -39.6246 H   0  0  0  0  0  0  0  0  0  0  0  0
   -4.6090    4.9406  -38.2990 H   0  0  0  0  0  0  0  0  0  0  0  0
   -6.7640    3.3120  -34.7230 H   0  0  0  0  0  0  0  0  0  0  0  0
  1  3  1  0  0  0  0
  1  7  1  0  0  0  0
  2  4  1  0  0  0  0
  2  7  1  0  0  0  0
  3  4  1  0  0  0  0
  3  5  1  0  0  0  0
  4  8  1  0  0  0  0
  5  6  1  0  0  0  0
  1  9  1  0  0  0  0
  1 10  1  0  0  0  0
  2 11  1  0  0  0  0
  2 12  1  0  0  0  0
  3 13  1  0  0  0  0
  4 14  1  0  0  0  0
  5 15  1  0  0  0  0
  5 16  1  0  0  0  0
  6 17  1  0  0  0  0
  6 18  1  0  0  0  0
  8 19  1  0  0  0  0
M  END
> <id>
EN300-719171

> <smiles>
Cl.NCC1COCC1O

> <MDLNUMBER>
MFCD31440517

> <IUPAC Name>
4-(aminomethyl)oxolan-3-ol hydrochloride

> <CAS>
2137846-34-3

> <URL>
https://www.enaminestore.com/catalog/EN300-719171

> <Saltdate>
Cl

> <ROCS_ShapeQuery>
hit0

> <ROCS_TanimotoCombo>
1.005 

> <ROCS_ShapeTanimoto>
0.520 

> <ROCS_ColorTanimoto>
0.486 

> <ROCS_RefTversky>
1.254 

> <ROCS_RefColorTversky>
0.654 

> <ROCS_RefTverskyCombo>
1.908 

> <ROCS_FitTversky>
0.470 

> <ROCS_FitColorTversky>
0.654 

> <ROCS_FitTverskyCombo>
1.124 

> <ROCS_ColorScore>
-3.923

> <ROCS_Overlap>
149.858

> <ROCS_Rank>
299                 

$$$$
untitled-dbase-30323_9
  -OEChem-06232314393D

 19 19  0     1  0  0  0  0  0999 V2000
   -6.8735    6.7979  -35.8689 C   0  0  0  0  0  0  0  0  0  0  0  0
   -5.6778    5.5658  -34.2844 C   0  0  0  0  0  0  0  0  0  0  0  0
   -5.9649    5.8260  -36.6052 C   0  0  1  0  0  0  0  0  0  0  0  0
   -5.7621    4.7464  -35.5587 C   0  0  2  0  0  0  0  0  0  0  0  0
   -6.5359    5.3606  -37.9330 C   0  0  0  0  0  0  0  0  0  0  0  0
   -5.4928    4.8568  -38.7666 N   0  0  0  0  0  0  0  0  0  0  0  0
   -6.5092    6.7238  -34.4819 O   0  0  0  0  0  0  0  0  0  0  0  0
   -6.8937    3.8858  -35.4948 O   0  0  0  0  0  0  0  0  0  0  0  0
   -6.7551    7.8272  -36.2202 H   0  0  0  0  0  0  0  0  0  0  0  0
   -7.9310    6.5232  -35.9501 H   0  0  0  0  0  0  0  0  0  0  0  0
   -6.0272    5.0293  -33.3975 H   0  0  0  0  0  0  0  0  0  0  0  0
   -4.6584    5.9262  -34.1118 H   0  0  0  0  0  0  0  0  0  0  0  0
   -5.0002    6.3162  -36.7832 H   0  0  0  0  0  0  0  0  0  0  0  0
   -4.8708    4.1347  -35.7246 H   0  0  0  0  0  0  0  0  0  0  0  0
   -7.2646    4.5755  -37.7237 H   0  0  0  0  0  0  0  0  0  0  0  0
   -7.0166    6.2185  -38.4062 H   0  0  0  0  0  0  0  0  0  0  0  0
   -5.4573    5.3759  -39.6246 H   0  0  0  0  0  0  0  0  0  0  0  0
   -4.6090    4.9406  -38.2990 H   0  0  0  0  0  0  0  0  0  0  0  0
   -6.7640    3.3120  -34.7230 H   0  0  0  0  0  0  0  0  0  0  0  0
  1  3  1  0  0  0  0
  1  7  1  0  0  0  0
  2  4  1  0  0  0  0
  2  7  1  0  0  0  0
  3  4  1  0  0  0  0
  3  5  1  0  0  0  0
  4  8  1  0  0  0  0
  5  6  1  0  0  0  0
  1  9  1  0  0  0  0
  1 10  1  0  0  0  0
  2 11  1  0  0  0  0
  2 12  1  0  0  0  0
  3 13  1  0  0  0  0
  4 14  1  0  0  0  0
  5 15  1  0  0  0  0
  5 16  1  0  0  0  0
  6 17  1  0  0  0  0
  6 18  1  0  0  0  0
  8 19  1  0  0  0  0
M  END
> <id>
EN300-719121

> <smiles>
NCC1COCC1O

> <MDLNUMBER>
MFCD24529939

> <IUPAC Name>
4-(aminomethyl)oxolan-3-ol

> <CAS>
1512053-33-6

> <URL>
https://www.enaminestore.com/catalog/EN300-719121

> <ROCS_ShapeQuery>
hit0

> <ROCS_TanimotoCombo>
1.005 

> <ROCS_ShapeTanimoto>
0.520 

> <ROCS_ColorTanimoto>
0.486 

> <ROCS_RefTversky>
1.254 

> <ROCS_RefColorTversky>
0.654 

> <ROCS_RefTverskyCombo>
1.908 

> <ROCS_FitTversky>
0.470 

> <ROCS_FitColorTversky>
0.654 

> <ROCS_FitTverskyCombo>
1.124 

> <ROCS_ColorScore>
-3.923

> <ROCS_Overlap>
149.858

> <ROCS_Rank>
300                 

$$$$
untitled-dbase-26921_0
  -OEChem-06232314393D

 17 17  0     0  0  0  0  0  0999 V2000
   -5.9670    5.9778  -36.6090 C   0  0  0  0  0  0  0  0  0  0  0  0
   -6.9007    4.7124  -34.8248 C   0  0  0  0  0  0  0  0  0  0  0  0
   -5.9915    4.8310  -37.3948 C   0  0  0  0  0  0  0  0  0  0  0  0
   -6.4285    5.9258  -35.2984 C   0  0  0  0  0  0  0  0  0  0  0  0
   -6.4831    3.6665  -36.8272 C   0  0  0  0  0  0  0  0  0  0  0  0
   -6.9113    6.8840  -33.1760 C   0  0  0  0  0  0  0  0  0  0  0  0
   -6.9401    3.5773  -35.5580 N   0  0  0  0  0  0  0  0  0  0  0  0
   -5.5254    4.8821  -38.7211 N   0  0  0  0  0  0  0  0  0  0  0  0
   -6.4184    7.0288  -34.5095 O   0  0  0  0  0  0  0  0  0  0  0  0
   -6.5676    2.1809  -37.6929 Cl  0  0  0  0  0  0  0  0  0  0  0  0
   -5.5910    6.9149  -37.0125 H   0  0  0  0  0  0  0  0  0  0  0  0
   -7.2732    4.6135  -33.8101 H   0  0  0  0  0  0  0  0  0  0  0  0
   -6.8456    7.8430  -32.6563 H   0  0  0  0  0  0  0  0  0  0  0  0
   -6.3213    6.1303  -32.6484 H   0  0  0  0  0  0  0  0  0  0  0  0
   -7.9553    6.5644  -33.2157 H   0  0  0  0  0  0  0  0  0  0  0  0
   -5.5018    4.0422  -39.2665 H   0  0  0  0  0  0  0  0  0  0  0  0
   -5.1357    5.7355  -39.0724 H   0  0  0  0  0  0  0  0  0  0  0  0
  1  3  2  0  0  0  0
  1  4  1  0  0  0  0
  2  4  2  0  0  0  0
  2  7  1  0  0  0  0
  3  5  1  0  0  0  0
  3  8  1  0  0  0  0
  4  9  1  0  0  0  0
  5  7  2  0  0  0  0
  5 10  1  0  0  0  0
  6  9  1  0  0  0  0
  1 11  1  0  0  0  0
  2 12  1  0  0  0  0
  6 13  1  0  0  0  0
  6 14  1  0  0  0  0
  6 15  1  0  0  0  0
  8 16  1  0  0  0  0
  8 17  1  0  0  0  0
M  END
> <id>
EN300-95403

> <smiles>
COC=1C=NC(Cl)=C(N)C1

> <MDLNUMBER>
MFCD11044248

> <IUPAC Name>
2-chloro-5-methoxypyridin-3-amine

> <CAS>
720666-45-5

> <Purity>
95

> <URL>
https://www.enaminestore.com/catalog/EN300-95403

> <ROCS_ShapeQuery>
hit0

> <ROCS_TanimotoCombo>
1.005 

> <ROCS_ShapeTanimoto>
0.462 

> <ROCS_ColorTanimoto>
0.544 

> <ROCS_RefTversky>
1.361 

> <ROCS_RefColorTversky>
0.651 

> <ROCS_RefTverskyCombo>
2.012 

> <ROCS_FitTversky>
0.411 

> <ROCS_FitColorTversky>
0.767 

> <ROCS_FitTverskyCombo>
1.178 

> <ROCS_ColorScore>
-3.874

> <ROCS_Overlap>
169.306

> <ROCS_Rank>
301                 

$$$$
untitled-dbase-162958_3
  -OEChem-06232314393D

 17 17  0     0  0  0  0  0  0999 V2000
   -7.1258    7.3788  -34.8841 C   0  0  0  0  0  0  0  0  0  0  0  0
   -7.3418    6.0031  -34.8036 C   0  0  0  0  0  0  0  0  0  0  0  0
   -6.2142    7.8888  -35.8085 C   0  0  0  0  0  0  0  0  0  0  0  0
   -5.7343    5.6474  -36.5719 C   0  0  0  0  0  0  0  0  0  0  0  0
   -6.6460    5.1374  -35.6475 C   0  0  0  0  0  0  0  0  0  0  0  0
   -5.5185    7.0231  -36.6524 C   0  0  0  0  0  0  0  0  0  0  0  0
   -4.9825    4.7327  -37.4816 C   0  0  0  0  0  0  0  0  0  0  0  0
   -6.8693    3.7964  -35.5557 O   0  0  0  0  0  0  0  0  0  0  0  0
   -5.5333    4.8129  -38.7899 O   0  0  0  0  0  0  0  0  0  0  0  0
   -4.6443    7.5233  -37.5370 F   0  0  0  0  0  0  0  0  0  0  0  0
   -7.6676    8.0529  -34.2271 H   0  0  0  0  0  0  0  0  0  0  0  0
   -8.0533    5.6124  -34.0811 H   0  0  0  0  0  0  0  0  0  0  0  0
   -6.0462    8.9599  -35.8713 H   0  0  0  0  0  0  0  0  0  0  0  0
   -3.9194    5.0031  -37.5300 H   0  0  0  0  0  0  0  0  0  0  0  0
   -5.0434    3.6928  -37.1348 H   0  0  0  0  0  0  0  0  0  0  0  0
   -7.5280    3.6129  -34.8677 H   0  0  0  0  0  0  0  0  0  0  0  0
   -5.0193    4.2068  -39.3474 H   0  0  0  0  0  0  0  0  0  0  0  0
  1  2  2  0  0  0  0
  1  3  1  0  0  0  0
  2  5  1  0  0  0  0
  3  6  2  0  0  0  0
  4  5  2  0  0  0  0
  4  6  1  0  0  0  0
  4  7  1  0  0  0  0
  5  8  1  0  0  0  0
  6 10  1  0  0  0  0
  7  9  1  0  0  0  0
  1 11  1  0  0  0  0
  2 12  1  0  0  0  0
  3 13  1  0  0  0  0
  7 14  1  0  0  0  0
  7 15  1  0  0  0  0
  8 16  1  0  0  0  0
  9 17  1  0  0  0  0
M  END
> <id>
EN300-698229

> <smiles>
OCC=1C(O)=CC=CC1F

> <MDLNUMBER>
MFCD06202981

> <IUPAC Name>
3-fluoro-2-(hydroxymethyl)phenol

> <CAS>
660390-77-2

> <URL>
https://www.enaminestore.com/catalog/EN300-698229

> <ROCS_ShapeQuery>
hit0

> <ROCS_TanimotoCombo>
1.005 

> <ROCS_ShapeTanimoto>
0.434 

> <ROCS_ColorTanimoto>
0.570 

> <ROCS_RefTversky>
1.322 

> <ROCS_RefColorTversky>
0.672 

> <ROCS_RefTverskyCombo>
1.994 

> <ROCS_FitTversky>
0.393 

> <ROCS_FitColorTversky>
0.790 

> <ROCS_FitTverskyCombo>
1.183 

> <ROCS_ColorScore>
-3.998

> <ROCS_Overlap>
165.133

> <ROCS_Rank>
302                 

$$$$
untitled-dbase-27114_3
  -OEChem-06232314393D

 17 17  0     0  0  0  0  0  0999 V2000
   -7.2589    2.8774  -36.2978 C   0  0  0  0  0  0  0  0  0  0  0  0
   -7.0111    3.6600  -35.1701 C   0  0  0  0  0  0  0  0  0  0  0  0
   -6.7518    3.2621  -37.5390 C   0  0  0  0  0  0  0  0  0  0  0  0
   -5.7490    5.2122  -36.5248 C   0  0  0  0  0  0  0  0  0  0  0  0
   -6.2562    4.8274  -35.2836 C   0  0  0  0  0  0  0  0  0  0  0  0
   -5.9968    4.4295  -37.6525 C   0  0  0  0  0  0  0  0  0  0  0  0
   -5.9917    5.6644  -34.0779 C   0  0  0  0  0  0  0  0  0  0  0  0
   -5.5014    4.8045  -38.8636 O   0  0  0  0  0  0  0  0  0  0  0  0
   -6.5241    6.9675  -34.2814 O   0  0  0  0  0  0  0  0  0  0  0  0
   -7.8463    1.9683  -36.2092 H   0  0  0  0  0  0  0  0  0  0  0  0
   -7.4107    3.3525  -34.2074 H   0  0  0  0  0  0  0  0  0  0  0  0
   -6.9483    2.6482  -38.4135 H   0  0  0  0  0  0  0  0  0  0  0  0
   -5.1603    6.1220  -36.6163 H   0  0  0  0  0  0  0  0  0  0  0  0
   -6.4551    5.2323  -33.1804 H   0  0  0  0  0  0  0  0  0  0  0  0
   -4.9140    5.7499  -33.8828 H   0  0  0  0  0  0  0  0  0  0  0  0
   -5.0014    5.6321  -38.7807 H   0  0  0  0  0  0  0  0  0  0  0  0
   -6.3313    7.4764  -33.4777 H   0  0  0  0  0  0  0  0  0  0  0  0
  1  2  1  0  0  0  0
  1  3  2  0  0  0  0
  2  5  2  0  0  0  0
  3  6  1  0  0  0  0
  4  5  1  0  0  0  0
  4  6  2  0  0  0  0
  5  7  1  0  0  0  0
  6  8  1  0  0  0  0
  7  9  1  0  0  0  0
  1 10  1  0  0  0  0
  2 11  1  0  0  0  0
  3 12  1  0  0  0  0
  4 13  1  0  0  0  0
  7 14  1  0  0  0  0
  7 15  1  0  0  0  0
  8 16  1  0  0  0  0
  9 17  1  0  0  0  0
M  END
> <id>
EN300-55888

> <smiles>
OCC=1C=CC=C(O)C1

> <MDLNUMBER>
MFCD00004643

> <IUPAC Name>
3-(hydroxymethyl)phenol

> <CAS>
620-24-6

> <Purity>
95

> <URL>
https://www.enaminestore.com/catalog/EN300-55888

> <MP>
69-72

> <ROCS_ShapeQuery>
hit0

> <ROCS_TanimotoCombo>
1.004 

> <ROCS_ShapeTanimoto>
0.438 

> <ROCS_ColorTanimoto>
0.567 

> <ROCS_RefTversky>
1.224 

> <ROCS_RefColorTversky>
0.669 

> <ROCS_RefTverskyCombo>
1.892 

> <ROCS_FitTversky>
0.405 

> <ROCS_FitColorTversky>
0.788 

> <ROCS_FitTverskyCombo>
1.193 

> <ROCS_ColorScore>
-3.980

> <ROCS_Overlap>
149.486

> <ROCS_Rank>
303                 

$$$$
untitled-dbase-178969_4
  -OEChem-06232314393D

 14 14  0     0  0  0  0  0  0999 V2000
   -4.9569    6.4717  -37.1149 C   0  0  0  0  0  0  0  0  0  0  0  0
   -4.9513    5.9745  -38.4081 C   0  0  0  0  0  0  0  0  0  0  0  0
   -5.6138    5.7335  -36.1367 C   0  0  0  0  0  0  0  0  0  0  0  0
   -6.2362    4.5376  -36.4768 C   0  0  0  0  0  0  0  0  0  0  0  0
   -6.1735    4.1271  -37.7987 C   0  0  0  0  0  0  0  0  0  0  0  0
   -5.6381    6.2283  -34.7676 C   0  0  0  0  0  0  0  0  0  0  0  0
   -5.5448    4.8171  -38.7766 N   0  0  0  0  0  0  0  0  0  0  0  0
   -6.5243    6.9697  -34.3364 O   0  0  0  0  0  0  0  0  0  0  0  0
   -6.8888    3.7846  -35.5545 O   0  0  0  0  0  0  0  0  0  0  0  0
   -6.7684    2.9750  -38.1475 F   0  0  0  0  0  0  0  0  0  0  0  0
   -4.4610    7.4086  -36.8841 H   0  0  0  0  0  0  0  0  0  0  0  0
   -4.4527    6.5124  -39.2078 H   0  0  0  0  0  0  0  0  0  0  0  0
   -4.8111    5.9120  -34.0964 H   0  0  0  0  0  0  0  0  0  0  0  0
   -7.2606    2.9878  -35.9681 H   0  0  0  0  0  0  0  0  0  0  0  0
  1  2  1  0  0  0  0
  1  3  2  0  0  0  0
  2  7  2  0  0  0  0
  3  4  1  0  0  0  0
  3  6  1  0  0  0  0
  4  5  2  0  0  0  0
  4  9  1  0  0  0  0
  5  7  1  0  0  0  0
  5 10  1  0  0  0  0
  6  8  2  0  0  0  0
  1 11  1  0  0  0  0
  2 12  1  0  0  0  0
  6 13  1  0  0  0  0
  9 14  1  0  0  0  0
M  END
> <id>
EN300-7646431

> <smiles>
OC=1C(F)=NC=CC1C=O

> <MDLNUMBER>
MFCD16611049

> <IUPAC Name>
2-fluoro-3-hydroxypyridine-4-carbaldehyde

> <Purity>
95

> <URL>
https://www.enaminestore.com/catalog/EN300-7646431

> <ROCS_ShapeQuery>
hit0

> <ROCS_TanimotoCombo>
1.004 

> <ROCS_ShapeTanimoto>
0.434 

> <ROCS_ColorTanimoto>
0.570 

> <ROCS_RefTversky>
1.336 

> <ROCS_RefColorTversky>
0.671 

> <ROCS_RefTverskyCombo>
2.007 

> <ROCS_FitTversky>
0.392 

> <ROCS_FitColorTversky>
0.791 

> <ROCS_FitTverskyCombo>
1.182 

> <ROCS_ColorScore>
-3.994

> <ROCS_Overlap>
167.321

> <ROCS_Rank>
304                 

$$$$
untitled-dbase-106896_8
  -OEChem-06232314393D

 16 16  0     1  0  0  0  0  0999 V2000
   -7.0502    6.2453  -35.4220 C   0  0  0  0  0  0  0  0  0  0  0  0
   -4.9367    5.2321  -36.2475 C   0  0  0  0  0  0  0  0  0  0  0  0
   -4.5913    4.5165  -37.5345 C   0  0  0  0  0  0  0  0  0  0  0  0
   -6.8223    5.1725  -37.6955 C   0  0  0  0  0  0  0  0  0  0  0  0
   -6.4458    5.1326  -36.2223 C   0  0  2  0  0  0  0  0  0  0  0  0
   -6.4871    6.7772  -34.4709 O   0  0  0  0  0  0  0  0  0  0  0  0
   -5.6520    4.8073  -38.4490 O   0  0  0  0  0  0  0  0  0  0  0  0
   -6.8308    3.9016  -35.6381 O   0  0  0  0  0  0  0  0  0  0  0  0
   -8.0552    6.5701  -35.7403 H   0  0  0  0  0  0  0  0  0  0  0  0
   -4.5050    4.7012  -35.3916 H   0  0  0  0  0  0  0  0  0  0  0  0
   -4.5518    6.2552  -36.2269 H   0  0  0  0  0  0  0  0  0  0  0  0
   -3.6611    4.8970  -37.9647 H   0  0  0  0  0  0  0  0  0  0  0  0
   -4.5020    3.4367  -37.4031 H   0  0  0  0  0  0  0  0  0  0  0  0
   -7.6132    4.4538  -37.9368 H   0  0  0  0  0  0  0  0  0  0  0  0
   -7.1574    6.1600  -38.0291 H   0  0  0  0  0  0  0  0  0  0  0  0
   -6.4952    3.8968  -34.7240 H   0  0  0  0  0  0  0  0  0  0  0  0
  1  5  1  0  0  0  0
  1  6  2  0  0  0  0
  2  3  1  0  0  0  0
  2  5  1  0  0  0  0
  3  7  1  0  0  0  0
  4  5  1  0  0  0  0
  4  7  1  0  0  0  0
  5  8  1  0  0  0  0
  1  9  1  0  0  0  0
  2 10  1  0  0  0  0
  2 11  1  0  0  0  0
  3 12  1  0  0  0  0
  3 13  1  0  0  0  0
  4 14  1  0  0  0  0
  4 15  1  0  0  0  0
  8 16  1  0  0  0  0
M  END
> <id>
EN300-640653

> <smiles>
OC1(CCOC1)C=O

> <MDLNUMBER>
MFCD32809608

> <IUPAC Name>
3-hydroxyoxolane-3-carbaldehyde

> <CAS>
2167133-64-2

> <URL>
https://www.enaminestore.com/catalog/EN300-640653

> <ROCS_ShapeQuery>
hit0

> <ROCS_TanimotoCombo>
1.004 

> <ROCS_ShapeTanimoto>
0.479 

> <ROCS_ColorTanimoto>
0.525 

> <ROCS_RefTversky>
1.208 

> <ROCS_RefColorTversky>
0.636 

> <ROCS_RefTverskyCombo>
1.845 

> <ROCS_FitTversky>
0.442 

> <ROCS_FitColorTversky>
0.749 

> <ROCS_FitTverskyCombo>
1.192 

> <ROCS_ColorScore>
-3.786

> <ROCS_Overlap>
144.996

> <ROCS_Rank>
305                 

$$$$
untitled-dbase-140697_12
  -OEChem-06232314393D

 18 18  0     1  0  0  0  0  0999 V2000
   -6.6817    4.6708  -36.4458 C   0  0  0  0  0  0  0  0  0  0  0  0
   -5.7691    5.8651  -36.3861 C   0  0  1  0  0  0  0  0  0  0  0  0
   -6.3596    5.4337  -37.7048 C   0  0  1  0  0  0  0  0  0  0  0  0
   -7.4959    7.7007  -36.3763 C   0  0  0  0  0  0  0  0  0  0  0  0
   -6.2268    7.1254  -35.7370 C   0  0  1  0  0  0  0  0  0  0  0  0
   -5.5080    4.8326  -38.7363 N   0  0  0  0  0  0  0  0  0  0  0  0
   -6.4935    6.9026  -34.3447 O   0  0  0  0  0  0  0  0  0  0  0  0
   -6.2372    3.6930  -36.3024 H   0  0  0  0  0  0  0  0  0  0  0  0
   -7.6838    4.7640  -36.0446 H   0  0  0  0  0  0  0  0  0  0  0  0
   -4.7163    5.6804  -36.2068 H   0  0  0  0  0  0  0  0  0  0  0  0
   -7.1598    6.0433  -38.1129 H   0  0  0  0  0  0  0  0  0  0  0  0
   -8.3064    6.9657  -36.3587 H   0  0  0  0  0  0  0  0  0  0  0  0
   -7.3199    8.0029  -37.4142 H   0  0  0  0  0  0  0  0  0  0  0  0
   -7.8244    8.5974  -35.8392 H   0  0  0  0  0  0  0  0  0  0  0  0
   -5.4401    7.9013  -35.7781 H   0  0  0  0  0  0  0  0  0  0  0  0
   -6.0796    4.2590  -39.3069 H   0  0  0  0  0  0  0  0  0  0  0  0
   -5.1041    5.5677  -39.2634 H   0  0  0  0  0  0  0  0  0  0  0  0
   -5.6596    6.6014  -33.9586 H   0  0  0  0  0  0  0  0  0  0  0  0
  1  2  1  0  0  0  0
  1  3  1  0  0  0  0
  2  3  1  0  0  0  0
  2  5  1  0  0  0  0
  3  6  1  0  0  0  0
  4  5  1  0  0  0  0
  5  7  1  0  0  0  0
  1  8  1  0  0  0  0
  1  9  1  0  0  0  0
  2 10  1  0  0  0  0
  3 11  1  0  0  0  0
  4 12  1  0  0  0  0
  4 13  1  0  0  0  0
  4 14  1  0  0  0  0
  5 15  1  0  0  0  0
  6 16  1  0  0  0  0
  6 17  1  0  0  0  0
  7 18  1  0  0  0  0
M  END
> <id>
EN300-27193394

> <smiles>
Cl.CC(O)C1CC1N

> <IUPAC Name>
1-(2-aminocyclopropyl)ethan-1-ol hydrochloride

> <CAS>
2503203-46-9

> <URL>
https://www.enaminestore.com/catalog/EN300-27193394

> <Saltdate>
Cl

> <ROCS_ShapeQuery>
hit0

> <ROCS_TanimotoCombo>
1.003 

> <ROCS_ShapeTanimoto>
0.576 

> <ROCS_ColorTanimoto>
0.427 

> <ROCS_RefTversky>
1.190 

> <ROCS_RefColorTversky>
0.508 

> <ROCS_RefTverskyCombo>
1.698 

> <ROCS_FitTversky>
0.527 

> <ROCS_FitColorTversky>
0.730 

> <ROCS_FitTverskyCombo>
1.258 

> <ROCS_ColorScore>
-2.994

> <ROCS_Overlap>
138.769

> <ROCS_Rank>
306                 

$$$$
untitled-dbase-155442_12
  -OEChem-06232314393D

 18 18  0     1  0  0  0  0  0999 V2000
   -6.6816    4.6707  -36.4455 C   0  0  0  0  0  0  0  0  0  0  0  0
   -5.7691    5.8647  -36.3860 C   0  0  1  0  0  0  0  0  0  0  0  0
   -6.3593    5.4333  -37.7042 C   0  0  1  0  0  0  0  0  0  0  0  0
   -7.4958    7.7004  -36.3765 C   0  0  0  0  0  0  0  0  0  0  0  0
   -6.2268    7.1250  -35.7371 C   0  0  1  0  0  0  0  0  0  0  0  0
   -5.5081    4.8327  -38.7362 N   0  0  0  0  0  0  0  0  0  0  0  0
   -6.4935    6.9026  -34.3448 O   0  0  0  0  0  0  0  0  0  0  0  0
   -6.2374    3.6927  -36.3020 H   0  0  0  0  0  0  0  0  0  0  0  0
   -7.6837    4.7640  -36.0443 H   0  0  0  0  0  0  0  0  0  0  0  0
   -4.7164    5.6797  -36.2063 H   0  0  0  0  0  0  0  0  0  0  0  0
   -7.1594    6.0431  -38.1123 H   0  0  0  0  0  0  0  0  0  0  0  0
   -8.3063    6.9655  -36.3589 H   0  0  0  0  0  0  0  0  0  0  0  0
   -7.3197    8.0026  -37.4145 H   0  0  0  0  0  0  0  0  0  0  0  0
   -7.8243    8.5971  -35.8395 H   0  0  0  0  0  0  0  0  0  0  0  0
   -5.4400    7.9010  -35.7783 H   0  0  0  0  0  0  0  0  0  0  0  0
   -6.0798    4.2594  -39.3070 H   0  0  0  0  0  0  0  0  0  0  0  0
   -5.1040    5.5680  -39.2629 H   0  0  0  0  0  0  0  0  0  0  0  0
   -5.6596    6.6014  -33.9586 H   0  0  0  0  0  0  0  0  0  0  0  0
  1  2  1  1  0  0  0
  1  3  1  0  0  0  0
  2  3  1  0  0  0  0
  2  5  1  0  0  0  0
  3  6  1  6  0  0  0
  4  5  1  6  0  0  0
  5  7  1  0  0  0  0
  1  8  1  0  0  0  0
  1  9  1  0  0  0  0
  2 10  1  0  0  0  0
  3 11  1  0  0  0  0
  4 12  1  0  0  0  0
  4 13  1  0  0  0  0
  4 14  1  0  0  0  0
  5 15  1  0  0  0  0
  6 16  1  0  0  0  0
  6 17  1  0  0  0  0
  7 18  1  0  0  0  0
M  END
> <id>
EN300-28270360

> <smiles>
C[C@@H](O)[C@H]1C[C@@H]1N |&1:1,3,5,r|

> <IUPAC Name>
rac-(1R)-1-[(1S,2S)-2-aminocyclopropyl]ethan-1-ol

> <CAS>
2679812-27-0

> <URL>
https://www.enaminestore.com/catalog/EN300-28270360

> <ROCS_ShapeQuery>
hit0

> <ROCS_TanimotoCombo>
1.003 

> <ROCS_ShapeTanimoto>
0.576 

> <ROCS_ColorTanimoto>
0.427 

> <ROCS_RefTversky>
1.190 

> <ROCS_RefColorTversky>
0.508 

> <ROCS_RefTverskyCombo>
1.698 

> <ROCS_FitTversky>
0.527 

> <ROCS_FitColorTversky>
0.730 

> <ROCS_FitTverskyCombo>
1.258 

> <ROCS_ColorScore>
-2.994

> <ROCS_Overlap>
138.774

> <ROCS_Rank>
307                 

$$$$
untitled-dbase-168806_15
  -OEChem-06232314393D

 23 23  0     1  0  0  0  0  0999 V2000
   -6.3195    7.0349  -35.6639 C   0  0  0  0  0  0  0  0  0  0  0  0
   -4.7781    5.0822  -35.9778 C   0  0  0  0  0  0  0  0  0  0  0  0
   -6.1919    5.9647  -37.8994 C   0  0  0  0  0  0  0  0  0  0  0  0
   -5.8246    3.6201  -37.7560 C   0  0  0  0  0  0  0  0  0  0  0  0
   -5.4183    6.3182  -36.6278 C   0  0  1  0  0  0  0  0  0  0  0  0
   -5.5889    3.8195  -36.2562 C   0  0  2  0  0  0  0  0  0  0  0  0
   -7.7153    8.9296  -35.4499 C   0  0  0  0  0  0  0  0  0  0  0  0
   -6.5417    6.6554  -34.5221 O   0  0  0  0  0  0  0  0  0  0  0  0
   -5.6296    4.8138  -38.5197 O   0  0  0  0  0  0  0  0  0  0  0  0
   -6.8456    3.9318  -35.5867 O   0  0  0  0  0  0  0  0  0  0  0  0
   -6.8330    8.1477  -36.2614 O   0  0  0  0  0  0  0  0  0  0  0  0
   -3.7828    4.9548  -36.4061 H   0  0  0  0  0  0  0  0  0  0  0  0
   -4.6725    5.2351  -34.9040 H   0  0  0  0  0  0  0  0  0  0  0  0
   -7.2328    5.7401  -37.6662 H   0  0  0  0  0  0  0  0  0  0  0  0
   -6.1743    6.7972  -38.6046 H   0  0  0  0  0  0  0  0  0  0  0  0
   -5.1675    2.8270  -38.1559 H   0  0  0  0  0  0  0  0  0  0  0  0
   -6.8628    3.2948  -37.9368 H   0  0  0  0  0  0  0  0  0  0  0  0
   -4.6272    7.0371  -36.8815 H   0  0  0  0  0  0  0  0  0  0  0  0
   -5.0766    2.9507  -35.8357 H   0  0  0  0  0  0  0  0  0  0  0  0
   -8.0679    9.7922  -36.0205 H   0  0  0  0  0  0  0  0  0  0  0  0
   -7.1872    9.2635  -34.5533 H   0  0  0  0  0  0  0  0  0  0  0  0
   -8.5699    8.3140  -35.1591 H   0  0  0  0  0  0  0  0  0  0  0  0
   -6.6472    4.0235  -34.6422 H   0  0  0  0  0  0  0  0  0  0  0  0
  1  5  1  6  0  0  0
  1  8  2  0  0  0  0
  1 11  1  0  0  0  0
  2  5  1  0  0  0  0
  2  6  1  0  0  0  0
  3  5  1  0  0  0  0
  3  9  1  0  0  0  0
  4  6  1  0  0  0  0
  4  9  1  0  0  0  0
  6 10  1  6  0  0  0
  7 11  1  0  0  0  0
  2 12  1  0  0  0  0
  2 13  1  0  0  0  0
  3 14  1  0  0  0  0
  3 15  1  0  0  0  0
  4 16  1  0  0  0  0
  4 17  1  0  0  0  0
  5 18  1  0  0  0  0
  6 19  1  0  0  0  0
  7 20  1  0  0  0  0
  7 21  1  0  0  0  0
  7 22  1  0  0  0  0
 10 23  1  0  0  0  0
M  END
> <id>
EN300-7353588

> <smiles>
COC(=O)[C@@H]1COC[C@H](O)C1 |&1:4,8,r|

> <MDLNUMBER>
MFCD16039226

> <IUPAC Name>
rac-methyl (3R,5S)-5-hydroxyoxane-3-carboxylate

> <CAS>
1048962-91-9

> <Purity>
95

> <URL>
https://www.enaminestore.com/catalog/EN300-7353588

> <ROCS_ShapeQuery>
hit0

> <ROCS_TanimotoCombo>
1.003 

> <ROCS_ShapeTanimoto>
0.481 

> <ROCS_ColorTanimoto>
0.522 

> <ROCS_RefTversky>
1.482 

> <ROCS_RefColorTversky>
0.634 

> <ROCS_RefTverskyCombo>
2.116 

> <ROCS_FitTversky>
0.416 

> <ROCS_FitColorTversky>
0.747 

> <ROCS_FitTverskyCombo>
1.163 

> <ROCS_ColorScore>
-3.774

> <ROCS_Overlap>
187.348

> <ROCS_Rank>
308                 

$$$$
untitled-dbase-15245_4
  -OEChem-06232314393D

 20 20  0     0  0  0  0  0  0999 V2000
   -5.8072    6.1032  -37.9257 C   0  0  0  0  0  0  0  0  0  0  0  0
   -6.3873    5.8946  -36.6601 C   0  0  0  0  0  0  0  0  0  0  0  0
   -6.4574    4.5285  -36.5355 C   0  0  0  0  0  0  0  0  0  0  0  0
   -6.8200    6.8606  -35.6956 C   0  0  0  0  0  0  0  0  0  0  0  0
   -5.7905    2.6281  -38.0446 C   0  0  0  0  0  0  0  0  0  0  0  0
   -8.3135    8.7059  -35.3172 C   0  0  0  0  0  0  0  0  0  0  0  0
   -5.5284    4.9611  -38.5597 N   0  0  0  0  0  0  0  0  0  0  0  0
   -5.9350    4.0217  -37.6889 N   0  0  0  0  0  0  0  0  0  0  0  0
   -6.9151    3.7245  -35.5525 N   0  0  0  0  0  0  0  0  0  0  0  0
   -6.3799    6.9645  -34.5293 O   0  0  0  0  0  0  0  0  0  0  0  0
   -7.7985    7.6938  -36.1890 O   0  0  0  0  0  0  0  0  0  0  0  0
   -5.5744    7.0381  -38.4151 H   0  0  0  0  0  0  0  0  0  0  0  0
   -6.7018    2.3156  -38.5611 H   0  0  0  0  0  0  0  0  0  0  0  0
   -4.9209    2.5070  -38.6965 H   0  0  0  0  0  0  0  0  0  0  0  0
   -5.6425    2.0369  -37.1366 H   0  0  0  0  0  0  0  0  0  0  0  0
   -9.0771    9.2855  -35.8416 H   0  0  0  0  0  0  0  0  0  0  0  0
   -7.4994    9.3611  -34.9971 H   0  0  0  0  0  0  0  0  0  0  0  0
   -8.7594    8.2278  -34.4418 H   0  0  0  0  0  0  0  0  0  0  0  0
   -7.2683    4.0975  -34.6588 H   0  0  0  0  0  0  0  0  0  0  0  0
   -6.8470    2.6974  -35.6082 H   0  0  0  0  0  0  0  0  0  0  0  0
  1  2  1  0  0  0  0
  1  7  2  0  0  0  0
  2  3  2  0  0  0  0
  2  4  1  0  0  0  0
  3  8  1  0  0  0  0
  3  9  1  0  0  0  0
  4 10  2  0  0  0  0
  4 11  1  0  0  0  0
  5  8  1  0  0  0  0
  6 11  1  0  0  0  0
  7  8  1  0  0  0  0
  1 12  1  0  0  0  0
  5 13  1  0  0  0  0
  5 14  1  0  0  0  0
  5 15  1  0  0  0  0
  6 16  1  0  0  0  0
  6 17  1  0  0  0  0
  6 18  1  0  0  0  0
  9 19  1  0  0  0  0
  9 20  1  0  0  0  0
M  END
> <id>
EN300-225134

> <smiles>
COC(=O)C=1C=NN(C)C1N

> <MDLNUMBER>
MFCD08693264

> <IUPAC Name>
methyl 5-amino-1-methyl-1H-pyrazole-4-carboxylate

> <CAS>
110860-60-1

> <Purity>
95

> <URL>
https://www.enaminestore.com/catalog/EN300-225134

> <ROCS_ShapeQuery>
hit0

> <ROCS_TanimotoCombo>
1.003 

> <ROCS_ShapeTanimoto>
0.464 

> <ROCS_ColorTanimoto>
0.539 

> <ROCS_RefTversky>
1.488 

> <ROCS_RefColorTversky>
0.648 

> <ROCS_RefTverskyCombo>
2.135 

> <ROCS_FitTversky>
0.403 

> <ROCS_FitColorTversky>
0.763 

> <ROCS_FitTverskyCombo>
1.166 

> <ROCS_ColorScore>
-3.853

> <ROCS_Overlap>
189.768

> <ROCS_Rank>
309                 

$$$$
untitled-dbase-58978_5
  -OEChem-06232314393D

 19 19  0     0  0  0  0  0  0999 V2000
   -5.8105    6.0939  -37.9203 C   0  0  0  0  0  0  0  0  0  0  0  0
   -6.3913    5.8872  -36.6547 C   0  0  0  0  0  0  0  0  0  0  0  0
   -6.4603    4.5213  -36.5275 C   0  0  0  0  0  0  0  0  0  0  0  0
   -6.8272    6.8500  -35.6896 C   0  0  0  0  0  0  0  0  0  0  0  0
   -5.7929    2.6173  -38.0238 C   0  0  0  0  0  0  0  0  0  0  0  0
   -8.3262    8.6911  -35.3088 C   0  0  0  0  0  0  0  0  0  0  0  0
   -5.5303    4.9508  -38.5520 N   0  0  0  0  0  0  0  0  0  0  0  0
   -5.9367    4.0128  -37.6796 N   0  0  0  0  0  0  0  0  0  0  0  0
   -6.3883    6.9538  -34.5223 O   0  0  0  0  0  0  0  0  0  0  0  0
   -6.9103    3.7379  -35.5574 O   0  0  0  0  0  0  0  0  0  0  0  0
   -7.8078    7.6817  -36.1818 O   0  0  0  0  0  0  0  0  0  0  0  0
   -5.5797    7.0289  -38.4113 H   0  0  0  0  0  0  0  0  0  0  0  0
   -6.7043    2.3010  -38.5379 H   0  0  0  0  0  0  0  0  0  0  0  0
   -4.9233    2.4905  -38.6747 H   0  0  0  0  0  0  0  0  0  0  0  0
   -5.6452    2.0333  -37.1111 H   0  0  0  0  0  0  0  0  0  0  0  0
   -9.0910    9.2694  -35.8329 H   0  0  0  0  0  0  0  0  0  0  0  0
   -7.5141    9.3480  -34.9872 H   0  0  0  0  0  0  0  0  0  0  0  0
   -8.7714    8.2104  -34.4345 H   0  0  0  0  0  0  0  0  0  0  0  0
   -7.2556    4.2526  -34.7939 H   0  0  0  0  0  0  0  0  0  0  0  0
  1  2  1  0  0  0  0
  1  7  2  0  0  0  0
  2  3  2  0  0  0  0
  2  4  1  0  0  0  0
  3  8  1  0  0  0  0
  3 10  1  0  0  0  0
  4  9  2  0  0  0  0
  4 11  1  0  0  0  0
  5  8  1  0  0  0  0
  6 11  1  0  0  0  0
  7  8  1  0  0  0  0
  1 12  1  0  0  0  0
  5 13  1  0  0  0  0
  5 14  1  0  0  0  0
  5 15  1  0  0  0  0
  6 16  1  0  0  0  0
  6 17  1  0  0  0  0
  6 18  1  0  0  0  0
 10 19  1  0  0  0  0
M  END
> <id>
EN300-1739889

> <smiles>
COC(=O)C=1C=NN(C)C1O

> <MDLNUMBER>
MFCD16619836

> <IUPAC Name>
methyl 5-hydroxy-1-methyl-1H-pyrazole-4-carboxylate

> <CAS>
88398-84-9

> <URL>
https://www.enaminestore.com/catalog/EN300-1739889

> <ROCS_ShapeQuery>
hit0

> <ROCS_TanimotoCombo>
1.003 

> <ROCS_ShapeTanimoto>
0.462 

> <ROCS_ColorTanimoto>
0.541 

> <ROCS_RefTversky>
1.485 

> <ROCS_RefColorTversky>
0.649 

> <ROCS_RefTverskyCombo>
2.134 

> <ROCS_FitTversky>
0.401 

> <ROCS_FitColorTversky>
0.765 

> <ROCS_FitTverskyCombo>
1.166 

> <ROCS_ColorScore>
-3.861

> <ROCS_Overlap>
189.533

> <ROCS_Rank>
310                 

$$$$
untitled-dbase-171244_299
  -OEChem-06232314393D

 22 22  0     1  0  0  0  0  0999 V2000
   -6.2821    7.3384  -36.9265 C   0  0  0  0  0  0  0  0  0  0  0  0
   -7.7944    7.5504  -37.0617 C   0  0  0  0  0  0  0  0  0  0  0  0
   -7.9966    5.1913  -37.2043 C   0  0  0  0  0  0  0  0  0  0  0  0
   -5.9701    6.1720  -35.9946 C   0  0  2  0  0  0  0  0  0  0  0  0
   -6.6526    4.8877  -36.5145 C   0  0  2  0  0  0  0  0  0  0  0  0
   -5.7425    4.1309  -37.4866 C   0  0  0  0  0  0  0  0  0  0  0  0
   -8.5584    6.3990  -36.6921 O   0  0  0  0  0  0  0  0  0  0  0  0
   -6.4614    6.5222  -34.6984 O   0  0  0  0  0  0  0  0  0  0  0  0
   -6.8795    4.0014  -35.4144 O   0  0  0  0  0  0  0  0  0  0  0  0
   -5.5396    4.9392  -38.6297 O   0  0  0  0  0  0  0  0  0  0  0  0
   -5.8317    7.1711  -37.9152 H   0  0  0  0  0  0  0  0  0  0  0  0
   -5.8167    8.2561  -36.5359 H   0  0  0  0  0  0  0  0  0  0  0  0
   -8.1088    8.3815  -36.4090 H   0  0  0  0  0  0  0  0  0  0  0  0
   -8.0601    7.8457  -38.0928 H   0  0  0  0  0  0  0  0  0  0  0  0
   -7.8817    5.2773  -38.2881 H   0  0  0  0  0  0  0  0  0  0  0  0
   -8.7167    4.3966  -36.9963 H   0  0  0  0  0  0  0  0  0  0  0  0
   -4.9008    6.0377  -35.9308 H   0  0  0  0  0  0  0  0  0  0  0  0
   -6.2161    3.1963  -37.7823 H   0  0  0  0  0  0  0  0  0  0  0  0
   -4.7845    3.9273  -37.0113 H   0  0  0  0  0  0  0  0  0  0  0  0
   -7.4165    6.6644  -34.7924 H   0  0  0  0  0  0  0  0  0  0  0  0
   -7.4841    4.4637  -34.8166 H   0  0  0  0  0  0  0  0  0  0  0  0
   -4.9607    4.4422  -39.2333 H   0  0  0  0  0  0  0  0  0  0  0  0
  1  2  1  0  0  0  0
  1  4  1  0  0  0  0
  2  7  1  0  0  0  0
  3  5  1  0  0  0  0
  3  7  1  0  0  0  0
  4  5  1  0  0  0  0
  4  8  1  0  0  0  0
  5  6  1  0  0  0  0
  5  9  1  0  0  0  0
  6 10  1  0  0  0  0
  1 11  1  0  0  0  0
  1 12  1  0  0  0  0
  2 13  1  0  0  0  0
  2 14  1  0  0  0  0
  3 15  1  0  0  0  0
  3 16  1  0  0  0  0
  4 17  1  0  0  0  0
  6 18  1  0  0  0  0
  6 19  1  0  0  0  0
  8 20  1  0  0  0  0
  9 21  1  0  0  0  0
 10 22  1  0  0  0  0
M  END
> <id>
EN300-37378216

> <smiles>
OCC1(O)COCCC1O

> <IUPAC Name>
3-(hydroxymethyl)oxane-3,4-diol

> <Purity>
95

> <URL>
https://www.enaminestore.com/catalog/EN300-37378216

> <ROCS_ShapeQuery>
hit0

> <ROCS_TanimotoCombo>
1.003 

> <ROCS_ShapeTanimoto>
0.393 

> <ROCS_ColorTanimoto>
0.610 

> <ROCS_RefTversky>
1.204 

> <ROCS_RefColorTversky>
0.869 

> <ROCS_RefTverskyCombo>
2.073 

> <ROCS_FitTversky>
0.369 

> <ROCS_FitColorTversky>
0.671 

> <ROCS_FitTverskyCombo>
1.040 

> <ROCS_ColorScore>
-5.304

> <ROCS_Overlap>
149.344

> <ROCS_Rank>
311                 

$$$$
untitled-dbase-116512_5
  -OEChem-06232314393D

 19 19  0     0  0  0  0  0  0999 V2000
   -6.3871    5.8995  -36.6579 C   0  0  0  0  0  0  0  0  0  0  0  0
   -5.8047    6.0936  -37.9223 C   0  0  0  0  0  0  0  0  0  0  0  0
   -6.4560    4.5369  -36.5367 C   0  0  0  0  0  0  0  0  0  0  0  0
   -6.8213    6.8629  -35.6919 C   0  0  0  0  0  0  0  0  0  0  0  0
   -5.4867    7.3673  -38.5903 C   0  0  0  0  0  0  0  0  0  0  0  0
   -8.3152    8.7077  -35.3111 C   0  0  0  0  0  0  0  0  0  0  0  0
   -5.5331    4.9396  -38.5382 N   0  0  0  0  0  0  0  0  0  0  0  0
   -6.9116    3.7263  -35.5596 N   0  0  0  0  0  0  0  0  0  0  0  0
   -6.3833    6.9639  -34.5244 O   0  0  0  0  0  0  0  0  0  0  0  0
   -5.9493    3.9528  -37.6526 O   0  0  0  0  0  0  0  0  0  0  0  0
   -7.7989    7.6978  -36.1846 O   0  0  0  0  0  0  0  0  0  0  0  0
   -4.4659    7.7053  -38.3427 H   0  0  0  0  0  0  0  0  0  0  0  0
   -5.5537    7.2894  -39.6900 H   0  0  0  0  0  0  0  0  0  0  0  0
   -6.1835    8.1746  -38.3018 H   0  0  0  0  0  0  0  0  0  0  0  0
   -9.0778    9.2888  -35.8354 H   0  0  0  0  0  0  0  0  0  0  0  0
   -7.5016    9.3619  -34.9879 H   0  0  0  0  0  0  0  0  0  0  0  0
   -8.7628    8.2274  -34.4378 H   0  0  0  0  0  0  0  0  0  0  0  0
   -7.2665    4.0923  -34.6630 H   0  0  0  0  0  0  0  0  0  0  0  0
   -6.8412    2.6992  -35.6208 H   0  0  0  0  0  0  0  0  0  0  0  0
  1  2  1  0  0  0  0
  1  3  2  0  0  0  0
  1  4  1  0  0  0  0
  2  5  1  0  0  0  0
  2  7  2  0  0  0  0
  3  8  1  0  0  0  0
  3 10  1  0  0  0  0
  4  9  2  0  0  0  0
  4 11  1  0  0  0  0
  6 11  1  0  0  0  0
  7 10  1  0  0  0  0
  5 12  1  0  0  0  0
  5 13  1  0  0  0  0
  5 14  1  0  0  0  0
  6 15  1  0  0  0  0
  6 16  1  0  0  0  0
  6 17  1  0  0  0  0
  8 18  1  0  0  0  0
  8 19  1  0  0  0  0
M  END
> <id>
EN300-135321

> <smiles>
COC(=O)C=1C(C)=NOC1N

> <MDLNUMBER>
MFCD09953591

> <IUPAC Name>
methyl 5-amino-3-methyl-1,2-oxazole-4-carboxylate

> <CAS>
23286-53-5

> <Purity>
95

> <URL>
https://www.enaminestore.com/catalog/EN300-135321

> <ROCS_ShapeQuery>
hit0

> <ROCS_TanimotoCombo>
1.003 

> <ROCS_ShapeTanimoto>
0.464 

> <ROCS_ColorTanimoto>
0.539 

> <ROCS_RefTversky>
1.486 

> <ROCS_RefColorTversky>
0.647 

> <ROCS_RefTverskyCombo>
2.134 

> <ROCS_FitTversky>
0.403 

> <ROCS_FitColorTversky>
0.763 

> <ROCS_FitTverskyCombo>
1.166 

> <ROCS_ColorScore>
-3.851

> <ROCS_Overlap>
189.504

> <ROCS_Rank>
312                 

$$$$
untitled-dbase-79580_23
  -OEChem-06232314393D

 14 14  0     0  0  0  0  0  0999 V2000
   -6.3973    5.3968  -36.3166 C   0  0  0  0  0  0  0  0  0  0  0  0
   -6.2061    7.9538  -36.5732 C   0  0  0  0  0  0  0  0  0  0  0  0
   -7.6632    7.6383  -36.4280 C   0  0  0  0  0  0  0  0  0  0  0  0
   -6.6339    6.7376  -35.7821 C   0  0  0  0  0  0  0  0  0  0  0  0
   -5.7838    5.3465  -37.5378 N   0  0  0  0  0  0  0  0  0  0  0  0
   -6.5088    6.8174  -34.3530 O   0  0  0  0  0  0  0  0  0  0  0  0
   -6.8531    4.0216  -35.4854 S   0  0  0  0  0  0  0  0  0  0  0  0
   -5.7538    7.8034  -37.5462 H   0  0  0  0  0  0  0  0  0  0  0  0
   -5.8181    8.8078  -36.0311 H   0  0  0  0  0  0  0  0  0  0  0  0
   -8.2572    8.2797  -35.7880 H   0  0  0  0  0  0  0  0  0  0  0  0
   -8.1888    7.2763  -37.3036 H   0  0  0  0  0  0  0  0  0  0  0  0
   -5.5807    4.4581  -37.9837 H   0  0  0  0  0  0  0  0  0  0  0  0
   -5.5082    6.1815  -38.0447 H   0  0  0  0  0  0  0  0  0  0  0  0
   -7.1692    6.2091  -33.9952 H   0  0  0  0  0  0  0  0  0  0  0  0
  1  4  1  0  0  0  0
  1  5  1  0  0  0  0
  1  7  2  0  0  0  0
  2  3  1  0  0  0  0
  2  4  1  0  0  0  0
  3  4  1  0  0  0  0
  4  6  1  0  0  0  0
  2  8  1  0  0  0  0
  2  9  1  0  0  0  0
  3 10  1  0  0  0  0
  3 11  1  0  0  0  0
  5 12  1  0  0  0  0
  5 13  1  0  0  0  0
  6 14  1  0  0  0  0
M  END
> <id>
EN300-37158371

> <smiles>
NC(=S)C1(O)CC1

> <IUPAC Name>
1-hydroxycyclopropane-1-carbothioamide

> <CAS>
2743434-21-9

> <URL>
https://www.enaminestore.com/catalog/EN300-37158371

> <ROCS_ShapeQuery>
hit0

> <ROCS_TanimotoCombo>
1.003 

> <ROCS_ShapeTanimoto>
0.520 

> <ROCS_ColorTanimoto>
0.483 

> <ROCS_RefTversky>
1.121 

> <ROCS_RefColorTversky>
0.501 

> <ROCS_RefTverskyCombo>
1.622 

> <ROCS_FitTversky>
0.492 

> <ROCS_FitColorTversky>
0.931 

> <ROCS_FitTverskyCombo>
1.423 

> <ROCS_ColorScore>
-2.931

> <ROCS_Overlap>
130.933

> <ROCS_Rank>
313                 

$$$$
untitled-dbase-60877_6
  -OEChem-06232314393D

 23 23  0     0  0  0  0  0  0999 V2000
   -5.8389    7.1053  -36.7755 C   0  0  0  0  0  0  0  0  0  0  0  0
   -7.6073    5.9824  -34.9330 C   0  0  0  0  0  0  0  0  0  0  0  0
   -6.6555    7.9293  -36.0011 C   0  0  0  0  0  0  0  0  0  0  0  0
   -5.9065    5.7198  -36.6287 C   0  0  0  0  0  0  0  0  0  0  0  0
   -7.5397    7.3679  -35.0799 C   0  0  0  0  0  0  0  0  0  0  0  0
   -6.7907    5.1584  -35.7075 C   0  0  0  0  0  0  0  0  0  0  0  0
   -6.5671    9.4099  -36.1765 C   0  0  0  0  0  0  0  0  0  0  0  0
   -8.4239    8.2296  -34.2396 C   0  0  0  0  0  0  0  0  0  0  0  0
   -5.0244    4.8528  -37.4652 C   0  0  0  0  0  0  0  0  0  0  0  0
   -6.8703    3.8070  -35.5526 O   0  0  0  0  0  0  0  0  0  0  0  0
   -5.5309    4.8078  -38.7929 O   0  0  0  0  0  0  0  0  0  0  0  0
   -5.1496    7.5427  -37.4941 H   0  0  0  0  0  0  0  0  0  0  0  0
   -8.2951    5.5416  -34.2154 H   0  0  0  0  0  0  0  0  0  0  0  0
   -7.2737    9.7442  -36.9450 H   0  0  0  0  0  0  0  0  0  0  0  0
   -6.7949    9.9342  -35.2403 H   0  0  0  0  0  0  0  0  0  0  0  0
   -5.5561    9.7140  -36.4749 H   0  0  0  0  0  0  0  0  0  0  0  0
   -7.9202    8.4900  -33.3015 H   0  0  0  0  0  0  0  0  0  0  0  0
   -8.6881    9.1565  -34.7635 H   0  0  0  0  0  0  0  0  0  0  0  0
   -9.3648    7.7184  -34.0011 H   0  0  0  0  0  0  0  0  0  0  0  0
   -3.9966    5.2382  -37.4933 H   0  0  0  0  0  0  0  0  0  0  0  0
   -4.9830    3.8304  -37.0671 H   0  0  0  0  0  0  0  0  0  0  0  0
   -7.5305    3.5857  -34.8772 H   0  0  0  0  0  0  0  0  0  0  0  0
   -6.4271    4.4388  -38.7379 H   0  0  0  0  0  0  0  0  0  0  0  0
  1  3  2  0  0  0  0
  1  4  1  0  0  0  0
  2  5  2  0  0  0  0
  2  6  1  0  0  0  0
  3  5  1  0  0  0  0
  3  7  1  0  0  0  0
  4  6  2  0  0  0  0
  4  9  1  0  0  0  0
  5  8  1  0  0  0  0
  6 10  1  0  0  0  0
  9 11  1  0  0  0  0
  1 12  1  0  0  0  0
  2 13  1  0  0  0  0
  7 14  1  0  0  0  0
  7 15  1  0  0  0  0
  7 16  1  0  0  0  0
  8 17  1  0  0  0  0
  8 18  1  0  0  0  0
  8 19  1  0  0  0  0
  9 20  1  0  0  0  0
  9 21  1  0  0  0  0
 10 22  1  0  0  0  0
 11 23  1  0  0  0  0
M  END
> <id>
EN300-1867006

> <smiles>
CC=1C=C(O)C(CO)=CC1C

> <MDLNUMBER>
MFCD24713500

> <IUPAC Name>
2-(hydroxymethyl)-4,5-dimethylphenol

> <CAS>
10496-92-1

> <URL>
https://www.enaminestore.com/catalog/EN300-1867006

> <ROCS_ShapeQuery>
hit0

> <ROCS_TanimotoCombo>
1.003 

> <ROCS_ShapeTanimoto>
0.432 

> <ROCS_ColorTanimoto>
0.570 

> <ROCS_RefTversky>
1.386 

> <ROCS_RefColorTversky>
0.672 

> <ROCS_RefTverskyCombo>
2.058 

> <ROCS_FitTversky>
0.386 

> <ROCS_FitColorTversky>
0.790 

> <ROCS_FitTverskyCombo>
1.176 

> <ROCS_ColorScore>
-3.999

> <ROCS_Overlap>
175.590

> <ROCS_Rank>
314                 

$$$$
untitled-dbase-179027_15
  -OEChem-06232314393D

 20 20  0     1  0  0  0  0  0999 V2000
   -6.7013    6.7693  -35.5659 C   0  0  0  0  0  0  0  0  0  0  0  0
   -5.5469    6.1563  -37.7136 C   0  0  0  0  0  0  0  0  0  0  0  0
   -6.1030    3.8972  -37.8316 C   0  0  0  0  0  0  0  0  0  0  0  0
   -5.9912    5.7042  -36.3310 C   0  0  2  0  0  0  0  0  0  0  0  0
   -6.8554    4.5023  -36.6649 C   0  0  2  0  0  0  0  0  0  0  0  0
   -8.5936    8.1833  -35.6273 C   0  0  0  0  0  0  0  0  0  0  0  0
   -6.3220    7.2074  -34.4882 O   0  0  0  0  0  0  0  0  0  0  0  0
   -5.5239    4.9902  -38.5529 O   0  0  0  0  0  0  0  0  0  0  0  0
   -6.9426    3.6003  -35.5798 O   0  0  0  0  0  0  0  0  0  0  0  0
   -7.8129    7.1596  -36.2522 O   0  0  0  0  0  0  0  0  0  0  0  0
   -6.2036    6.9042  -38.1637 H   0  0  0  0  0  0  0  0  0  0  0  0
   -4.5287    6.5545  -37.6864 H   0  0  0  0  0  0  0  0  0  0  0  0
   -5.3065    3.2135  -37.5266 H   0  0  0  0  0  0  0  0  0  0  0  0
   -6.7805    3.3784  -38.5168 H   0  0  0  0  0  0  0  0  0  0  0  0
   -5.0900    5.4182  -35.7288 H   0  0  0  0  0  0  0  0  0  0  0  0
   -7.8903    4.7766  -36.9662 H   0  0  0  0  0  0  0  0  0  0  0  0
   -9.4553    8.4203  -36.2560 H   0  0  0  0  0  0  0  0  0  0  0  0
   -7.9783    9.0749  -35.4827 H   0  0  0  0  0  0  0  0  0  0  0  0
   -8.9419    7.8220  -34.6567 H   0  0  0  0  0  0  0  0  0  0  0  0
   -7.4136    2.8179  -35.9067 H   0  0  0  0  0  0  0  0  0  0  0  0
  1  4  1  6  0  0  0
  1  7  2  0  0  0  0
  1 10  1  0  0  0  0
  2  4  1  0  0  0  0
  2  8  1  0  0  0  0
  3  5  1  0  0  0  0
  3  8  1  0  0  0  0
  4  5  1  0  0  0  0
  5  9  1  1  0  0  0
  6 10  1  0  0  0  0
  2 11  1  0  0  0  0
  2 12  1  0  0  0  0
  3 13  1  0  0  0  0
  3 14  1  0  0  0  0
  4 15  1  0  0  0  0
  5 16  1  0  0  0  0
  6 17  1  0  0  0  0
  6 18  1  0  0  0  0
  6 19  1  0  0  0  0
  9 20  1  0  0  0  0
M  END
> <id>
EN300-37451246

> <smiles>
COC(=O)[C@@H]1COC[C@H]1O |&1:4,8,r|

> <IUPAC Name>
rac-methyl (3R,4S)-4-hydroxyoxolane-3-carboxylate

> <URL>
https://www.enaminestore.com/catalog/EN300-37451246

> <ROCS_ShapeQuery>
hit0

> <ROCS_TanimotoCombo>
1.002 

> <ROCS_ShapeTanimoto>
0.498 

> <ROCS_ColorTanimoto>
0.504 

> <ROCS_RefTversky>
1.432 

> <ROCS_RefColorTversky>
0.619 

> <ROCS_RefTverskyCombo>
2.052 

> <ROCS_FitTversky>
0.433 

> <ROCS_FitColorTversky>
0.730 

> <ROCS_FitTverskyCombo>
1.163 

> <ROCS_ColorScore>
-3.686

> <ROCS_Overlap>
178.134

> <ROCS_Rank>
315                 

$$$$
untitled-dbase-58078_11
  -OEChem-06232314393D

 14 13  0     1  0  0  0  0  0999 V2000
   -6.4598    6.3264  -35.6054 C   0  0  0  0  0  0  0  0  0  0  0  0
   -6.8043    7.3186  -36.6866 C   0  0  0  0  0  0  0  0  0  0  0  0
   -6.0357    4.8090  -37.5632 C   0  0  0  0  0  0  0  0  0  0  0  0
   -5.9996    4.9454  -36.0518 C   0  0  2  0  0  0  0  0  0  0  0  0
   -6.5462    6.6347  -34.4165 O   0  0  0  0  0  0  0  0  0  0  0  0
   -6.8634    3.9657  -35.4984 O   0  0  0  0  0  0  0  0  0  0  0  0
   -7.8636    7.2337  -36.9419 H   0  0  0  0  0  0  0  0  0  0  0  0
   -6.2158    7.1023  -37.5826 H   0  0  0  0  0  0  0  0  0  0  0  0
   -6.5770    8.3315  -36.3476 H   0  0  0  0  0  0  0  0  0  0  0  0
   -7.0455    4.9898  -37.9486 H   0  0  0  0  0  0  0  0  0  0  0  0
   -5.7568    3.7937  -37.8650 H   0  0  0  0  0  0  0  0  0  0  0  0
   -5.3551    5.5146  -38.0489 H   0  0  0  0  0  0  0  0  0  0  0  0
   -4.9894    4.7641  -35.6705 H   0  0  0  0  0  0  0  0  0  0  0  0
   -6.8086    4.0535  -34.5322 H   0  0  0  0  0  0  0  0  0  0  0  0
  1  2  1  0  0  0  0
  1  4  1  0  0  0  0
  1  5  2  0  0  0  0
  3  4  1  0  0  0  0
  4  6  1  0  0  0  0
  2  7  1  0  0  0  0
  2  8  1  0  0  0  0
  2  9  1  0  0  0  0
  3 10  1  0  0  0  0
  3 11  1  0  0  0  0
  3 12  1  0  0  0  0
  4 13  1  0  0  0  0
  6 14  1  0  0  0  0
M  END
> <id>
EN300-21639

> <smiles>
CC(O)C(=O)C

> <MDLNUMBER>
MFCD00004521

> <IUPAC Name>
3-hydroxybutan-2-one

> <CAS>
513-86-0

> <Purity>
95

> <URL>
https://www.enaminestore.com/catalog/EN300-21639

> <MP>
15-20

> <ROCS_ShapeQuery>
hit0

> <ROCS_TanimotoCombo>
1.002 

> <ROCS_ShapeTanimoto>
0.536 

> <ROCS_ColorTanimoto>
0.466 

> <ROCS_RefTversky>
1.025 

> <ROCS_RefColorTversky>
0.489 

> <ROCS_RefTverskyCombo>
1.514 

> <ROCS_FitTversky>
0.529 

> <ROCS_FitColorTversky>
0.908 

> <ROCS_FitTverskyCombo>
1.438 

> <ROCS_ColorScore>
-2.862

> <ROCS_Overlap>
117.219

> <ROCS_Rank>
316                 

$$$$
untitled-dbase-54785_4
  -OEChem-06232314393D

 20 20  0     0  0  0  0  0  0999 V2000
   -5.8978    3.9839  -37.7638 C   0  0  0  0  0  0  0  0  0  0  0  0
   -6.4478    4.4531  -36.5559 C   0  0  0  0  0  0  0  0  0  0  0  0
   -6.3894    5.8213  -36.6606 C   0  0  0  0  0  0  0  0  0  0  0  0
   -6.8122    6.8165  -35.7246 C   0  0  0  0  0  0  0  0  0  0  0  0
   -5.5562    7.3762  -38.4499 C   0  0  0  0  0  0  0  0  0  0  0  0
   -8.2855    8.6897  -35.3978 C   0  0  0  0  0  0  0  0  0  0  0  0
   -5.5181    4.9737  -38.5763 N   0  0  0  0  0  0  0  0  0  0  0  0
   -5.8301    6.0785  -37.8776 N   0  0  0  0  0  0  0  0  0  0  0  0
   -6.9227    3.7193  -35.5300 N   0  0  0  0  0  0  0  0  0  0  0  0
   -6.3736    6.9480  -34.5593 O   0  0  0  0  0  0  0  0  0  0  0  0
   -7.7806    7.6487  -36.2410 O   0  0  0  0  0  0  0  0  0  0  0  0
   -5.7565    2.9627  -38.0896 H   0  0  0  0  0  0  0  0  0  0  0  0
   -4.5467    7.6705  -38.1508 H   0  0  0  0  0  0  0  0  0  0  0  0
   -5.6300    7.3167  -39.5393 H   0  0  0  0  0  0  0  0  0  0  0  0
   -6.2910    8.0967  -38.0799 H   0  0  0  0  0  0  0  0  0  0  0  0
   -9.0414    9.2638  -35.9393 H   0  0  0  0  0  0  0  0  0  0  0  0
   -7.4645    9.3438  -35.0937 H   0  0  0  0  0  0  0  0  0  0  0  0
   -8.7386    8.2405  -34.5109 H   0  0  0  0  0  0  0  0  0  0  0  0
   -7.2668    4.1503  -34.6577 H   0  0  0  0  0  0  0  0  0  0  0  0
   -6.8798    2.6882  -35.5247 H   0  0  0  0  0  0  0  0  0  0  0  0
  1  2  1  0  0  0  0
  1  7  2  0  0  0  0
  2  3  2  0  0  0  0
  2  9  1  0  0  0  0
  3  4  1  0  0  0  0
  3  8  1  0  0  0  0
  4 10  2  0  0  0  0
  4 11  1  0  0  0  0
  5  8  1  0  0  0  0
  6 11  1  0  0  0  0
  7  8  1  0  0  0  0
  1 12  1  0  0  0  0
  5 13  1  0  0  0  0
  5 14  1  0  0  0  0
  5 15  1  0  0  0  0
  6 16  1  0  0  0  0
  6 17  1  0  0  0  0
  6 18  1  0  0  0  0
  9 19  1  0  0  0  0
  9 20  1  0  0  0  0
M  END
> <id>
EN300-204808

> <smiles>
COC(=O)C1=C(N)C=NN1C

> <MDLNUMBER>
MFCD04969992

> <IUPAC Name>
methyl 4-amino-1-methyl-1H-pyrazole-5-carboxylate

> <CAS>
923283-54-9

> <Purity>
95

> <URL>
https://www.enaminestore.com/catalog/EN300-204808

> <MP>
65-68

> <ROCS_ShapeQuery>
hit0

> <ROCS_TanimotoCombo>
1.002 

> <ROCS_ShapeTanimoto>
0.465 

> <ROCS_ColorTanimoto>
0.537 

> <ROCS_RefTversky>
1.495 

> <ROCS_RefColorTversky>
0.646 

> <ROCS_RefTverskyCombo>
2.141 

> <ROCS_FitTversky>
0.403 

> <ROCS_FitColorTversky>
0.761 

> <ROCS_FitTverskyCombo>
1.164 

> <ROCS_ColorScore>
-3.842

> <ROCS_Overlap>
190.879

> <ROCS_Rank>
317                 

$$$$
untitled-dbase-34550_4
  -OEChem-06232314393D

 20 20  0     0  0  0  0  0  0999 V2000
   -5.8978    3.9839  -37.7638 C   0  0  0  0  0  0  0  0  0  0  0  0
   -6.4478    4.4531  -36.5559 C   0  0  0  0  0  0  0  0  0  0  0  0
   -6.3894    5.8213  -36.6606 C   0  0  0  0  0  0  0  0  0  0  0  0
   -6.8122    6.8165  -35.7246 C   0  0  0  0  0  0  0  0  0  0  0  0
   -5.5562    7.3762  -38.4499 C   0  0  0  0  0  0  0  0  0  0  0  0
   -8.2855    8.6897  -35.3978 C   0  0  0  0  0  0  0  0  0  0  0  0
   -5.5181    4.9737  -38.5763 N   0  0  0  0  0  0  0  0  0  0  0  0
   -5.8301    6.0785  -37.8776 N   0  0  0  0  0  0  0  0  0  0  0  0
   -6.9227    3.7193  -35.5300 N   0  0  0  0  0  0  0  0  0  0  0  0
   -6.3736    6.9480  -34.5593 O   0  0  0  0  0  0  0  0  0  0  0  0
   -7.7806    7.6487  -36.2410 O   0  0  0  0  0  0  0  0  0  0  0  0
   -5.7565    2.9627  -38.0896 H   0  0  0  0  0  0  0  0  0  0  0  0
   -4.5467    7.6705  -38.1508 H   0  0  0  0  0  0  0  0  0  0  0  0
   -5.6300    7.3167  -39.5393 H   0  0  0  0  0  0  0  0  0  0  0  0
   -6.2910    8.0967  -38.0799 H   0  0  0  0  0  0  0  0  0  0  0  0
   -9.0414    9.2638  -35.9393 H   0  0  0  0  0  0  0  0  0  0  0  0
   -7.4645    9.3438  -35.0937 H   0  0  0  0  0  0  0  0  0  0  0  0
   -8.7386    8.2405  -34.5109 H   0  0  0  0  0  0  0  0  0  0  0  0
   -7.2668    4.1503  -34.6577 H   0  0  0  0  0  0  0  0  0  0  0  0
   -6.8798    2.6882  -35.5247 H   0  0  0  0  0  0  0  0  0  0  0  0
  1  2  1  0  0  0  0
  1  7  2  0  0  0  0
  2  3  2  0  0  0  0
  2  9  1  0  0  0  0
  3  4  1  0  0  0  0
  3  8  1  0  0  0  0
  4 10  2  0  0  0  0
  4 11  1  0  0  0  0
  5  8  1  0  0  0  0
  6 11  1  0  0  0  0
  7  8  1  0  0  0  0
  1 12  1  0  0  0  0
  5 13  1  0  0  0  0
  5 14  1  0  0  0  0
  5 15  1  0  0  0  0
  6 16  1  0  0  0  0
  6 17  1  0  0  0  0
  6 18  1  0  0  0  0
  9 19  1  0  0  0  0
  9 20  1  0  0  0  0
M  END
> <id>
EN300-762762

> <smiles>
Cl.COC(=O)C1=C(N)C=NN1C

> <MDLNUMBER>
MFCD11052942

> <IUPAC Name>
methyl 4-amino-1-methyl-1H-pyrazole-5-carboxylate hydrochloride

> <CAS>
1197234-53-9

> <Purity>
95

> <URL>
https://www.enaminestore.com/catalog/EN300-762762

> <Saltdate>
Cl

> <ROCS_ShapeQuery>
hit0

> <ROCS_TanimotoCombo>
1.002 

> <ROCS_ShapeTanimoto>
0.465 

> <ROCS_ColorTanimoto>
0.537 

> <ROCS_RefTversky>
1.495 

> <ROCS_RefColorTversky>
0.646 

> <ROCS_RefTverskyCombo>
2.141 

> <ROCS_FitTversky>
0.403 

> <ROCS_FitColorTversky>
0.761 

> <ROCS_FitTverskyCombo>
1.164 

> <ROCS_ColorScore>
-3.842

> <ROCS_Overlap>
190.879

> <ROCS_Rank>
318                 

$$$$
untitled-dbase-63372_22
  -OEChem-06232314393D

 20 20  0     1  0  0  0  0  0999 V2000
   -5.1232    6.0508  -38.5421 C   0  0  0  0  0  0  0  0  0  0  0  0
   -4.9768    4.6638  -38.5282 C   0  0  0  0  0  0  0  0  0  0  0  0
   -5.8681    6.6836  -37.5468 C   0  0  0  0  0  0  0  0  0  0  0  0
   -5.5755    3.9094  -37.5191 C   0  0  0  0  0  0  0  0  0  0  0  0
   -6.4668    5.9292  -36.5378 C   0  0  0  0  0  0  0  0  0  0  0  0
   -6.3204    4.5421  -36.5239 C   0  0  0  0  0  0  0  0  0  0  0  0
   -7.2607    6.6232  -35.4811 C   0  0  2  0  0  0  0  0  0  0  0  0
   -7.9240    7.9103  -35.9592 C   0  0  0  0  0  0  0  0  0  0  0  0
   -6.8993    3.7904  -35.5460 O   0  0  0  0  0  0  0  0  0  0  0  0
   -6.4818    6.9377  -34.3178 O   0  0  0  0  0  0  0  0  0  0  0  0
   -8.5997    8.5101  -34.9543 F   0  0  0  0  0  0  0  0  0  0  0  0
   -8.8131    7.6589  -36.9471 F   0  0  0  0  0  0  0  0  0  0  0  0
   -7.0217    8.7926  -36.4379 F   0  0  0  0  0  0  0  0  0  0  0  0
   -4.6577    6.6387  -39.3280 H   0  0  0  0  0  0  0  0  0  0  0  0
   -4.3975    4.1715  -39.3037 H   0  0  0  0  0  0  0  0  0  0  0  0
   -5.9775    7.7647  -37.5674 H   0  0  0  0  0  0  0  0  0  0  0  0
   -5.4580    2.8292  -37.5137 H   0  0  0  0  0  0  0  0  0  0  0  0
   -8.0591    5.9576  -35.1196 H   0  0  0  0  0  0  0  0  0  0  0  0
   -6.7010    2.8510  -35.6840 H   0  0  0  0  0  0  0  0  0  0  0  0
   -7.0850    7.3793  -33.7044 H   0  0  0  0  0  0  0  0  0  0  0  0
  1  2  2  0  0  0  0
  1  3  1  0  0  0  0
  2  4  1  0  0  0  0
  3  5  2  0  0  0  0
  4  6  2  0  0  0  0
  5  6  1  0  0  0  0
  5  7  1  0  0  0  0
  6  9  1  0  0  0  0
  7  8  1  0  0  0  0
  7 10  1  6  0  0  0
  8 11  1  0  0  0  0
  8 12  1  0  0  0  0
  8 13  1  0  0  0  0
  1 14  1  0  0  0  0
  2 15  1  0  0  0  0
  3 16  1  0  0  0  0
  4 17  1  0  0  0  0
  7 18  1  0  0  0  0
  9 19  1  0  0  0  0
 10 20  1  0  0  0  0
M  END
> <id>
EN300-1949491

> <smiles>
O[C@H](C=1C=CC=CC1O)C(F)(F)F

> <IUPAC Name>
2-[(1R)-2,2,2-trifluoro-1-hydroxyethyl]phenol

> <CAS>
1007556-75-3

> <URL>
https://www.enaminestore.com/catalog/EN300-1949491

> <ROCS_ShapeQuery>
hit0

> <ROCS_TanimotoCombo>
1.002 

> <ROCS_ShapeTanimoto>
0.431 

> <ROCS_ColorTanimoto>
0.571 

> <ROCS_RefTversky>
1.570 

> <ROCS_RefColorTversky>
0.672 

> <ROCS_RefTverskyCombo>
2.242 

> <ROCS_FitTversky>
0.373 

> <ROCS_FitColorTversky>
0.791 

> <ROCS_FitTverskyCombo>
1.164 

> <ROCS_ColorScore>
-3.996

> <ROCS_Overlap>
207.269

> <ROCS_Rank>
319                 

$$$$
untitled-dbase-91945_2
  -OEChem-06232314393D

 22 22  0     1  0  0  0  0  0999 V2000
   -6.0685    6.0720  -36.7032 C   0  0  0  0  0  0  0  0  0  0  0  0
   -6.1693    3.5586  -36.8003 C   0  0  0  0  0  0  0  0  0  0  0  0
   -6.6146    4.6575  -34.6947 C   0  0  0  0  0  0  0  0  0  0  0  0
   -6.3775    4.8604  -37.5762 C   0  0  2  0  0  0  0  0  0  0  0  0
   -6.8414    6.0001  -35.3896 C   0  0  1  0  0  0  0  0  0  0  0  0
   -7.0133    8.2830  -34.8591 C   0  0  0  0  0  0  0  0  0  0  0  0
   -6.9549    3.5347  -35.5672 N   0  0  0  0  0  0  0  0  0  0  0  0
   -5.5179    4.8872  -38.7101 O   0  0  0  0  0  0  0  0  0  0  0  0
   -6.4086    7.0424  -34.5228 O   0  0  0  0  0  0  0  0  0  0  0  0
   -4.9892    6.1345  -36.5068 H   0  0  0  0  0  0  0  0  0  0  0  0
   -6.3049    7.0010  -37.2371 H   0  0  0  0  0  0  0  0  0  0  0  0
   -6.4564    2.7068  -37.4282 H   0  0  0  0  0  0  0  0  0  0  0  0
   -5.1053    3.4093  -36.5762 H   0  0  0  0  0  0  0  0  0  0  0  0
   -5.5757    4.5719  -34.3510 H   0  0  0  0  0  0  0  0  0  0  0  0
   -7.2250    4.6064  -33.7854 H   0  0  0  0  0  0  0  0  0  0  0  0
   -7.4116    4.9237  -37.9375 H   0  0  0  0  0  0  0  0  0  0  0  0
   -7.9121    6.1455  -35.5806 H   0  0  0  0  0  0  0  0  0  0  0  0
   -6.6596    9.0587  -34.1755 H   0  0  0  0  0  0  0  0  0  0  0  0
   -8.1001    8.1900  -34.7907 H   0  0  0  0  0  0  0  0  0  0  0  0
   -6.7358    8.5479  -35.8821 H   0  0  0  0  0  0  0  0  0  0  0  0
   -7.9453    3.5912  -35.8055 H   0  0  0  0  0  0  0  0  0  0  0  0
   -5.7374    4.1073  -39.2440 H   0  0  0  0  0  0  0  0  0  0  0  0
  1  4  1  0  0  0  0
  1  5  1  0  0  0  0
  2  4  1  0  0  0  0
  2  7  1  0  0  0  0
  3  5  1  0  0  0  0
  3  7  1  0  0  0  0
  4  8  1  0  0  0  0
  5  9  1  0  0  0  0
  6  9  1  0  0  0  0
  1 10  1  0  0  0  0
  1 11  1  0  0  0  0
  2 12  1  0  0  0  0
  2 13  1  0  0  0  0
  3 14  1  0  0  0  0
  3 15  1  0  0  0  0
  4 16  1  0  0  0  0
  5 17  1  0  0  0  0
  6 18  1  0  0  0  0
  6 19  1  0  0  0  0
  6 20  1  0  0  0  0
  7 21  1  0  0  0  0
  8 22  1  0  0  0  0
M  END
> <id>
EN300-6763508

> <smiles>
COC1CNCC(O)C1

> <MDLNUMBER>
MFCD31810990

> <IUPAC Name>
5-methoxypiperidin-3-ol

> <CAS>
2305253-54-5

> <URL>
https://www.enaminestore.com/catalog/EN300-6763508

> <ROCS_ShapeQuery>
hit0

> <ROCS_TanimotoCombo>
1.002 

> <ROCS_ShapeTanimoto>
0.532 

> <ROCS_ColorTanimoto>
0.470 

> <ROCS_RefTversky>
1.365 

> <ROCS_RefColorTversky>
0.640 

> <ROCS_RefTverskyCombo>
2.005 

> <ROCS_FitTversky>
0.466 

> <ROCS_FitColorTversky>
0.639 

> <ROCS_FitTverskyCombo>
1.105 

> <ROCS_ColorScore>
-3.837

> <ROCS_Overlap>
165.890

> <ROCS_Rank>
320                 

$$$$
untitled-dbase-91048_2
  -OEChem-06232314393D

 22 22  0     1  0  0  0  0  0999 V2000
   -6.0685    6.0720  -36.7032 C   0  0  0  0  0  0  0  0  0  0  0  0
   -6.1693    3.5586  -36.8003 C   0  0  0  0  0  0  0  0  0  0  0  0
   -6.6146    4.6575  -34.6947 C   0  0  0  0  0  0  0  0  0  0  0  0
   -6.3775    4.8604  -37.5762 C   0  0  2  0  0  0  0  0  0  0  0  0
   -6.8414    6.0001  -35.3896 C   0  0  1  0  0  0  0  0  0  0  0  0
   -7.0133    8.2830  -34.8591 C   0  0  0  0  0  0  0  0  0  0  0  0
   -6.9549    3.5347  -35.5672 N   0  0  0  0  0  0  0  0  0  0  0  0
   -5.5179    4.8872  -38.7101 O   0  0  0  0  0  0  0  0  0  0  0  0
   -6.4086    7.0424  -34.5228 O   0  0  0  0  0  0  0  0  0  0  0  0
   -4.9892    6.1345  -36.5068 H   0  0  0  0  0  0  0  0  0  0  0  0
   -6.3049    7.0010  -37.2371 H   0  0  0  0  0  0  0  0  0  0  0  0
   -6.4564    2.7068  -37.4282 H   0  0  0  0  0  0  0  0  0  0  0  0
   -5.1053    3.4093  -36.5762 H   0  0  0  0  0  0  0  0  0  0  0  0
   -5.5757    4.5719  -34.3510 H   0  0  0  0  0  0  0  0  0  0  0  0
   -7.2250    4.6064  -33.7854 H   0  0  0  0  0  0  0  0  0  0  0  0
   -7.4116    4.9237  -37.9375 H   0  0  0  0  0  0  0  0  0  0  0  0
   -7.9121    6.1455  -35.5806 H   0  0  0  0  0  0  0  0  0  0  0  0
   -6.6596    9.0587  -34.1755 H   0  0  0  0  0  0  0  0  0  0  0  0
   -8.1001    8.1900  -34.7907 H   0  0  0  0  0  0  0  0  0  0  0  0
   -6.7358    8.5479  -35.8821 H   0  0  0  0  0  0  0  0  0  0  0  0
   -7.9453    3.5912  -35.8055 H   0  0  0  0  0  0  0  0  0  0  0  0
   -5.7374    4.1073  -39.2440 H   0  0  0  0  0  0  0  0  0  0  0  0
  1  4  1  0  0  0  0
  1  5  1  0  0  0  0
  2  4  1  0  0  0  0
  2  7  1  0  0  0  0
  3  5  1  0  0  0  0
  3  7  1  0  0  0  0
  4  8  1  0  0  0  0
  5  9  1  0  0  0  0
  6  9  1  0  0  0  0
  1 10  1  0  0  0  0
  1 11  1  0  0  0  0
  2 12  1  0  0  0  0
  2 13  1  0  0  0  0
  3 14  1  0  0  0  0
  3 15  1  0  0  0  0
  4 16  1  0  0  0  0
  5 17  1  0  0  0  0
  6 18  1  0  0  0  0
  6 19  1  0  0  0  0
  6 20  1  0  0  0  0
  7 21  1  0  0  0  0
  8 22  1  0  0  0  0
M  END
> <id>
EN300-6763507

> <smiles>
Cl.COC1CNCC(O)C1

> <MDLNUMBER>
MFCD31810655

> <IUPAC Name>
5-methoxypiperidin-3-ol hydrochloride

> <CAS>
2305253-55-6

> <Purity>
95

> <URL>
https://www.enaminestore.com/catalog/EN300-6763507

> <Saltdate>
Cl

> <ROCS_ShapeQuery>
hit0

> <ROCS_TanimotoCombo>
1.002 

> <ROCS_ShapeTanimoto>
0.532 

> <ROCS_ColorTanimoto>
0.470 

> <ROCS_RefTversky>
1.365 

> <ROCS_RefColorTversky>
0.640 

> <ROCS_RefTverskyCombo>
2.005 

> <ROCS_FitTversky>
0.466 

> <ROCS_FitColorTversky>
0.639 

> <ROCS_FitTverskyCombo>
1.105 

> <ROCS_ColorScore>
-3.837

> <ROCS_Overlap>
165.890

> <ROCS_Rank>
321                 

$$$$
untitled-dbase-20662_10
  -OEChem-06232314393D

 21 21  0     1  0  0  0  0  0999 V2000
   -6.6447    3.3910  -35.5432 C   0  0  0  0  0  0  0  0  0  0  0  0
   -6.7224    4.5216  -34.7300 C   0  0  0  0  0  0  0  0  0  0  0  0
   -6.2489    3.5156  -36.8750 C   0  0  0  0  0  0  0  0  0  0  0  0
   -6.0087    5.9015  -36.5804 C   0  0  0  0  0  0  0  0  0  0  0  0
   -6.4045    5.7768  -35.2486 C   0  0  0  0  0  0  0  0  0  0  0  0
   -5.9310    4.7708  -37.3935 C   0  0  0  0  0  0  0  0  0  0  0  0
   -6.4543    8.3936  -36.4839 C   0  0  0  0  0  0  0  0  0  0  0  0
   -5.6688    7.2466  -37.1373 C   0  0  1  0  0  0  0  0  0  0  0  0
   -6.4863    6.8701  -34.4398 O   0  0  0  0  0  0  0  0  0  0  0  0
   -5.5470    4.8729  -38.6970 O   0  0  0  0  0  0  0  0  0  0  0  0
   -3.8693    7.5916  -37.0212 S   0  0  0  0  0  0  0  0  0  0  0  0
   -6.8921    2.4136  -35.1393 H   0  0  0  0  0  0  0  0  0  0  0  0
   -7.0303    4.4175  -33.6933 H   0  0  0  0  0  0  0  0  0  0  0  0
   -6.1896    2.6303  -37.5027 H   0  0  0  0  0  0  0  0  0  0  0  0
   -6.2684    8.4106  -35.4036 H   0  0  0  0  0  0  0  0  0  0  0  0
   -6.1650    9.3734  -36.8801 H   0  0  0  0  0  0  0  0  0  0  0  0
   -7.5349    8.2797  -36.6270 H   0  0  0  0  0  0  0  0  0  0  0  0
   -5.8989    7.2858  -38.2163 H   0  0  0  0  0  0  0  0  0  0  0  0
   -6.7747    6.6087  -33.5513 H   0  0  0  0  0  0  0  0  0  0  0  0
   -5.5472    3.9979  -39.1155 H   0  0  0  0  0  0  0  0  0  0  0  0
   -3.8121    7.4903  -35.6884 H   0  0  0  0  0  0  0  0  0  0  0  0
  1  2  2  0  0  0  0
  1  3  1  0  0  0  0
  2  5  1  0  0  0  0
  3  6  2  0  0  0  0
  4  5  2  0  0  0  0
  4  6  1  0  0  0  0
  4  8  1  0  0  0  0
  5  9  1  0  0  0  0
  6 10  1  0  0  0  0
  7  8  1  0  0  0  0
  8 11  1  0  0  0  0
  1 12  1  0  0  0  0
  2 13  1  0  0  0  0
  3 14  1  0  0  0  0
  7 15  1  0  0  0  0
  7 16  1  0  0  0  0
  7 17  1  0  0  0  0
  8 18  1  0  0  0  0
  9 19  1  0  0  0  0
 10 20  1  0  0  0  0
 11 21  1  0  0  0  0
M  END
> <id>
EN300-1288982

> <smiles>
CC(S)C=1C(O)=CC=CC1O

> <IUPAC Name>
2-(1-sulfanylethyl)benzene-1,3-diol

> <CAS>
1698520-08-9

> <URL>
https://www.enaminestore.com/catalog/EN300-1288982

> <ROCS_ShapeQuery>
hit0

> <ROCS_TanimotoCombo>
1.002 

> <ROCS_ShapeTanimoto>
0.443 

> <ROCS_ColorTanimoto>
0.559 

> <ROCS_RefTversky>
1.393 

> <ROCS_RefColorTversky>
0.663 

> <ROCS_RefTverskyCombo>
2.055 

> <ROCS_FitTversky>
0.394 

> <ROCS_FitColorTversky>
0.781 

> <ROCS_FitTverskyCombo>
1.175 

> <ROCS_ColorScore>
-3.943

> <ROCS_Overlap>
175.807

> <ROCS_Rank>
322                 

$$$$
untitled-dbase-720_8
  -OEChem-06232314393D

 18 18  0     0  0  0  0  0  0999 V2000
   -7.2829    2.8776  -36.2637 C   0  0  0  0  0  0  0  0  0  0  0  0
   -7.0312    3.6647  -35.1400 C   0  0  0  0  0  0  0  0  0  0  0  0
   -6.7736    3.2535  -37.5067 C   0  0  0  0  0  0  0  0  0  0  0  0
   -5.7610    5.2035  -36.5023 C   0  0  0  0  0  0  0  0  0  0  0  0
   -6.2703    4.8276  -35.2593 C   0  0  0  0  0  0  0  0  0  0  0  0
   -6.0127    4.4164  -37.6260 C   0  0  0  0  0  0  0  0  0  0  0  0
   -6.0020    5.6692  -34.0578 C   0  0  0  0  0  0  0  0  0  0  0  0
   -5.4974    4.7961  -38.8828 N   0  0  0  0  0  0  0  0  0  0  0  0
   -6.5277    6.9741  -34.2679 O   0  0  0  0  0  0  0  0  0  0  0  0
   -7.8754    1.9719  -36.1707 H   0  0  0  0  0  0  0  0  0  0  0  0
   -7.4320    3.3642  -34.1752 H   0  0  0  0  0  0  0  0  0  0  0  0
   -6.9756    2.6326  -38.3759 H   0  0  0  0  0  0  0  0  0  0  0  0
   -5.1677    6.1105  -36.5935 H   0  0  0  0  0  0  0  0  0  0  0  0
   -6.4679    5.2440  -33.1582 H   0  0  0  0  0  0  0  0  0  0  0  0
   -4.9239    5.7503  -33.8626 H   0  0  0  0  0  0  0  0  0  0  0  0
   -4.9936    5.6560  -38.9640 H   0  0  0  0  0  0  0  0  0  0  0  0
   -5.7241    4.2487  -39.6884 H   0  0  0  0  0  0  0  0  0  0  0  0
   -6.0779    7.3336  -35.0492 H   0  0  0  0  0  0  0  0  0  0  0  0
  1  2  2  0  0  0  0
  1  3  1  0  0  0  0
  2  5  1  0  0  0  0
  3  6  2  0  0  0  0
  4  5  2  0  0  0  0
  4  6  1  0  0  0  0
  5  7  1  0  0  0  0
  6  8  1  0  0  0  0
  7  9  1  0  0  0  0
  1 10  1  0  0  0  0
  2 11  1  0  0  0  0
  3 12  1  0  0  0  0
  4 13  1  0  0  0  0
  7 14  1  0  0  0  0
  7 15  1  0  0  0  0
  8 16  1  0  0  0  0
  8 17  1  0  0  0  0
  9 18  1  0  0  0  0
M  END
> <id>
EN300-21250

> <smiles>
NC=1C=CC=C(CO)C1

> <MDLNUMBER>
MFCD00007817

> <IUPAC Name>
(3-aminophenyl)methanol

> <CAS>
1877-77-6

> <Purity>
95

> <URL>
https://www.enaminestore.com/catalog/EN300-21250

> <MP>
93-95

> <ROCS_ShapeQuery>
hit0

> <ROCS_TanimotoCombo>
1.001 

> <ROCS_ShapeTanimoto>
0.437 

> <ROCS_ColorTanimoto>
0.564 

> <ROCS_RefTversky>
1.219 

> <ROCS_RefColorTversky>
0.667 

> <ROCS_RefTverskyCombo>
1.886 

> <ROCS_FitTversky>
0.405 

> <ROCS_FitColorTversky>
0.786 

> <ROCS_FitTverskyCombo>
1.191 

> <ROCS_ColorScore>
-3.969

> <ROCS_Overlap>
148.829

> <ROCS_Rank>
323                 

$$$$
untitled-dbase-149713_4
  -OEChem-06232314393D

 22 22  0     1  0  0  0  0  0999 V2000
   -6.0591    6.0746  -36.6826 C   0  0  0  0  0  0  0  0  0  0  0  0
   -6.1578    3.5592  -36.7962 C   0  0  0  0  0  0  0  0  0  0  0  0
   -6.6210    4.6458  -34.6875 C   0  0  0  0  0  0  0  0  0  0  0  0
   -6.3613    4.8663  -37.5640 C   0  0  2  0  0  0  0  0  0  0  0  0
   -6.8420    5.9938  -35.3762 C   0  0  1  0  0  0  0  0  0  0  0  0
   -7.0177    8.2820  -34.8708 C   0  0  0  0  0  0  0  0  0  0  0  0
   -6.9530    3.5276  -35.5694 N   0  0  0  0  0  0  0  0  0  0  0  0
   -5.5169    4.8873  -38.7095 O   0  0  0  0  0  0  0  0  0  0  0  0
   -6.4094    7.0466  -34.5222 O   0  0  0  0  0  0  0  0  0  0  0  0
   -4.9813    6.1358  -36.4774 H   0  0  0  0  0  0  0  0  0  0  0  0
   -6.2916    7.0061  -37.2138 H   0  0  0  0  0  0  0  0  0  0  0  0
   -6.4390    2.7111  -37.4315 H   0  0  0  0  0  0  0  0  0  0  0  0
   -5.0953    3.4096  -36.5647 H   0  0  0  0  0  0  0  0  0  0  0  0
   -5.5851    4.5580  -34.3355 H   0  0  0  0  0  0  0  0  0  0  0  0
   -7.2399    4.5893  -33.7842 H   0  0  0  0  0  0  0  0  0  0  0  0
   -7.4045    4.9280  -37.9195 H   0  0  0  0  0  0  0  0  0  0  0  0
   -7.9097    6.1438  -35.5794 H   0  0  0  0  0  0  0  0  0  0  0  0
   -6.6642    9.0661  -34.1968 H   0  0  0  0  0  0  0  0  0  0  0  0
   -8.1041    8.1873  -34.7988 H   0  0  0  0  0  0  0  0  0  0  0  0
   -6.7433    8.5361  -35.8974 H   0  0  0  0  0  0  0  0  0  0  0  0
   -7.9415    3.5843  -35.8158 H   0  0  0  0  0  0  0  0  0  0  0  0
   -5.7439    4.1051  -39.2367 H   0  0  0  0  0  0  0  0  0  0  0  0
  1  4  1  0  0  0  0
  1  5  1  0  0  0  0
  2  4  1  0  0  0  0
  2  7  1  0  0  0  0
  3  5  1  0  0  0  0
  3  7  1  0  0  0  0
  4  8  1  6  0  0  0
  5  9  1  6  0  0  0
  6  9  1  0  0  0  0
  1 10  1  0  0  0  0
  1 11  1  0  0  0  0
  2 12  1  0  0  0  0
  2 13  1  0  0  0  0
  3 14  1  0  0  0  0
  3 15  1  0  0  0  0
  4 16  1  0  0  0  0
  5 17  1  0  0  0  0
  6 18  1  0  0  0  0
  6 19  1  0  0  0  0
  6 20  1  0  0  0  0
  7 21  1  0  0  0  0
  8 22  1  0  0  0  0
M  END
> <id>
EN300-27750787

> <smiles>
CO[C@@H]1CNC[C@H](O)C1

> <MDLNUMBER>
MFCD33550594

> <IUPAC Name>
(3R,5S)-5-methoxypiperidin-3-ol

> <CAS>
2624109-23-3

> <URL>
https://www.enaminestore.com/catalog/EN300-27750787

> <ROCS_ShapeQuery>
hit0

> <ROCS_TanimotoCombo>
1.001 

> <ROCS_ShapeTanimoto>
0.532 

> <ROCS_ColorTanimoto>
0.469 

> <ROCS_RefTversky>
1.366 

> <ROCS_RefColorTversky>
0.639 

> <ROCS_RefTverskyCombo>
2.005 

> <ROCS_FitTversky>
0.465 

> <ROCS_FitColorTversky>
0.639 

> <ROCS_FitTverskyCombo>
1.104 

> <ROCS_ColorScore>
-3.833

> <ROCS_Overlap>
166.042

> <ROCS_Rank>
324                 

$$$$
untitled-dbase-150220_4
  -OEChem-06232314393D

 22 22  0     1  0  0  0  0  0999 V2000
   -6.0591    6.0746  -36.6826 C   0  0  0  0  0  0  0  0  0  0  0  0
   -6.1578    3.5592  -36.7962 C   0  0  0  0  0  0  0  0  0  0  0  0
   -6.6210    4.6458  -34.6875 C   0  0  0  0  0  0  0  0  0  0  0  0
   -6.3613    4.8663  -37.5640 C   0  0  2  0  0  0  0  0  0  0  0  0
   -6.8420    5.9938  -35.3762 C   0  0  1  0  0  0  0  0  0  0  0  0
   -7.0177    8.2820  -34.8708 C   0  0  0  0  0  0  0  0  0  0  0  0
   -6.9530    3.5276  -35.5694 N   0  0  0  0  0  0  0  0  0  0  0  0
   -5.5169    4.8873  -38.7095 O   0  0  0  0  0  0  0  0  0  0  0  0
   -6.4094    7.0466  -34.5222 O   0  0  0  0  0  0  0  0  0  0  0  0
   -4.9813    6.1358  -36.4774 H   0  0  0  0  0  0  0  0  0  0  0  0
   -6.2916    7.0061  -37.2138 H   0  0  0  0  0  0  0  0  0  0  0  0
   -6.4390    2.7111  -37.4315 H   0  0  0  0  0  0  0  0  0  0  0  0
   -5.0953    3.4096  -36.5647 H   0  0  0  0  0  0  0  0  0  0  0  0
   -5.5851    4.5580  -34.3355 H   0  0  0  0  0  0  0  0  0  0  0  0
   -7.2399    4.5893  -33.7842 H   0  0  0  0  0  0  0  0  0  0  0  0
   -7.4045    4.9280  -37.9195 H   0  0  0  0  0  0  0  0  0  0  0  0
   -7.9097    6.1438  -35.5794 H   0  0  0  0  0  0  0  0  0  0  0  0
   -6.6642    9.0661  -34.1968 H   0  0  0  0  0  0  0  0  0  0  0  0
   -8.1041    8.1873  -34.7988 H   0  0  0  0  0  0  0  0  0  0  0  0
   -6.7433    8.5361  -35.8974 H   0  0  0  0  0  0  0  0  0  0  0  0
   -7.9415    3.5843  -35.8158 H   0  0  0  0  0  0  0  0  0  0  0  0
   -5.7439    4.1051  -39.2367 H   0  0  0  0  0  0  0  0  0  0  0  0
  1  4  1  0  0  0  0
  1  5  1  0  0  0  0
  2  4  1  0  0  0  0
  2  7  1  0  0  0  0
  3  5  1  0  0  0  0
  3  7  1  0  0  0  0
  4  8  1  6  0  0  0
  5  9  1  6  0  0  0
  6  9  1  0  0  0  0
  1 10  1  0  0  0  0
  1 11  1  0  0  0  0
  2 12  1  0  0  0  0
  2 13  1  0  0  0  0
  3 14  1  0  0  0  0
  3 15  1  0  0  0  0
  4 16  1  0  0  0  0
  5 17  1  0  0  0  0
  6 18  1  0  0  0  0
  6 19  1  0  0  0  0
  6 20  1  0  0  0  0
  7 21  1  0  0  0  0
  8 22  1  0  0  0  0
M  END
> <id>
EN300-27750786

> <smiles>
Cl.CO[C@@H]1CNC[C@H](O)C1

> <MDLNUMBER>
MFCD33550839

> <IUPAC Name>
(3R,5S)-5-methoxypiperidin-3-ol hydrochloride

> <CAS>
2624109-42-6

> <Purity>
95

> <URL>
https://www.enaminestore.com/catalog/EN300-27750786

> <Saltdate>
Cl

> <ROCS_ShapeQuery>
hit0

> <ROCS_TanimotoCombo>
1.001 

> <ROCS_ShapeTanimoto>
0.532 

> <ROCS_ColorTanimoto>
0.469 

> <ROCS_RefTversky>
1.366 

> <ROCS_RefColorTversky>
0.639 

> <ROCS_RefTverskyCombo>
2.005 

> <ROCS_FitTversky>
0.465 

> <ROCS_FitColorTversky>
0.639 

> <ROCS_FitTverskyCombo>
1.104 

> <ROCS_ColorScore>
-3.833

> <ROCS_Overlap>
166.042

> <ROCS_Rank>
325                 

$$$$
untitled-dbase-3791_1
  -OEChem-06232314393D

 19 19  0     0  0  0  0  0  0999 V2000
   -5.8186    6.7961  -37.7644 C   0  0  0  0  0  0  0  0  0  0  0  0
   -5.4414    6.0261  -38.8528 C   0  0  0  0  0  0  0  0  0  0  0  0
   -5.9633    4.0714  -37.7643 C   0  0  0  0  0  0  0  0  0  0  0  0
   -6.2880    6.1381  -36.6331 C   0  0  0  0  0  0  0  0  0  0  0  0
   -6.3648    4.7498  -36.6248 C   0  0  0  0  0  0  0  0  0  0  0  0
   -6.6908    6.9280  -35.4768 C   0  0  0  0  0  0  0  0  0  0  0  0
   -7.5919    9.0278  -34.7981 C   0  0  0  0  0  0  0  0  0  0  0  0
   -5.5019    4.6759  -38.8820 N   0  0  0  0  0  0  0  0  0  0  0  0
   -6.8336    4.0383  -35.5059 N   0  0  0  0  0  0  0  0  0  0  0  0
   -6.6139    6.5392  -34.3054 O   0  0  0  0  0  0  0  0  0  0  0  0
   -7.1642    8.1553  -35.8496 O   0  0  0  0  0  0  0  0  0  0  0  0
   -5.7471    7.8778  -37.8058 H   0  0  0  0  0  0  0  0  0  0  0  0
   -5.0716    6.4918  -39.7606 H   0  0  0  0  0  0  0  0  0  0  0  0
   -6.0002    2.9874  -37.8192 H   0  0  0  0  0  0  0  0  0  0  0  0
   -7.9452    9.9692  -35.2259 H   0  0  0  0  0  0  0  0  0  0  0  0
   -6.7580    9.2149  -34.1169 H   0  0  0  0  0  0  0  0  0  0  0  0
   -8.4076    8.5505  -34.2499 H   0  0  0  0  0  0  0  0  0  0  0  0
   -7.0762    4.5376  -34.6718 H   0  0  0  0  0  0  0  0  0  0  0  0
   -6.8299    3.0365  -35.5234 H   0  0  0  0  0  0  0  0  0  0  0  0
  1  2  1  0  0  0  0
  1  4  2  0  0  0  0
  2  8  2  0  0  0  0
  3  5  2  0  0  0  0
  3  8  1  0  0  0  0
  4  5  1  0  0  0  0
  4  6  1  0  0  0  0
  5  9  1  0  0  0  0
  6 10  2  0  0  0  0
  6 11  1  0  0  0  0
  7 11  1  0  0  0  0
  1 12  1  0  0  0  0
  2 13  1  0  0  0  0
  3 14  1  0  0  0  0
  7 15  1  0  0  0  0
  7 16  1  0  0  0  0
  7 17  1  0  0  0  0
  9 18  1  0  0  0  0
  9 19  1  0  0  0  0
M  END
> <id>
EN300-82306

> <smiles>
COC(=O)C=1C=CN=CC1N

> <MDLNUMBER>
MFCD02082535

> <IUPAC Name>
methyl 3-aminopyridine-4-carboxylate

> <CAS>
55279-30-6

> <Purity>
95

> <URL>
https://www.enaminestore.com/catalog/EN300-82306

> <MP>
86-87

> <ROCS_ShapeQuery>
hit0

> <ROCS_TanimotoCombo>
1.000 

> <ROCS_ShapeTanimoto>
0.489 

> <ROCS_ColorTanimoto>
0.511 

> <ROCS_RefTversky>
1.533 

> <ROCS_RefColorTversky>
0.625 

> <ROCS_RefTverskyCombo>
2.159 

> <ROCS_FitTversky>
0.418 

> <ROCS_FitColorTversky>
0.737 

> <ROCS_FitTverskyCombo>
1.155 

> <ROCS_ColorScore>
-3.720

> <ROCS_Overlap>
195.210

> <ROCS_Rank>
326                 

$$$$
untitled-dbase-171726_24
  -OEChem-06232314393D

 23 23  0     1  0  0  0  0  0999 V2000
   -6.6996    7.2067  -35.2611 C   0  0  0  0  0  0  0  0  0  0  0  0
   -6.9082    6.1969  -37.5447 C   0  0  0  0  0  0  0  0  0  0  0  0
   -5.0669    5.5128  -36.0528 C   0  0  0  0  0  0  0  0  0  0  0  0
   -6.4858    4.7525  -37.8239 C   0  0  2  0  0  0  0  0  0  0  0  0
   -5.8463    4.2866  -36.5244 C   0  0  2  0  0  0  0  0  0  0  0  0
   -5.9332    6.7211  -36.4658 C   0  0  0  0  0  0  0  0  0  0  0  0
   -5.0740    7.8742  -36.9848 C   0  0  0  0  0  0  0  0  0  0  0  0
   -6.5836    6.7612  -34.1291 O   0  0  0  0  0  0  0  0  0  0  0  0
   -7.5440    8.2102  -35.6035 O   0  0  0  0  0  0  0  0  0  0  0  0
   -5.5108    4.7249  -38.8601 O   0  0  0  0  0  0  0  0  0  0  0  0
   -6.8447    3.9618  -35.5666 O   0  0  0  0  0  0  0  0  0  0  0  0
   -6.8495    6.7956  -38.4616 H   0  0  0  0  0  0  0  0  0  0  0  0
   -7.9566    6.2255  -37.2281 H   0  0  0  0  0  0  0  0  0  0  0  0
   -4.9153    5.4705  -34.9634 H   0  0  0  0  0  0  0  0  0  0  0  0
   -4.0621    5.5351  -36.4958 H   0  0  0  0  0  0  0  0  0  0  0  0
   -7.3206    4.1340  -38.1135 H   0  0  0  0  0  0  0  0  0  0  0  0
   -5.2030    3.4200  -36.6644 H   0  0  0  0  0  0  0  0  0  0  0  0
   -4.5100    7.5480  -37.8561 H   0  0  0  0  0  0  0  0  0  0  0  0
   -4.3817    8.1939  -36.2088 H   0  0  0  0  0  0  0  0  0  0  0  0
   -5.7120    8.7105  -37.2631 H   0  0  0  0  0  0  0  0  0  0  0  0
   -8.0539    8.5390  -34.8326 H   0  0  0  0  0  0  0  0  0  0  0  0
   -5.2735    3.7930  -39.0026 H   0  0  0  0  0  0  0  0  0  0  0  0
   -6.3870    3.7759  -34.7290 H   0  0  0  0  0  0  0  0  0  0  0  0
  1  6  1  0  0  0  0
  1  8  2  0  0  0  0
  1  9  1  0  0  0  0
  2  4  1  0  0  0  0
  2  6  1  0  0  0  0
  3  5  1  0  0  0  0
  3  6  1  0  0  0  0
  4  5  1  0  0  0  0
  4 10  1  0  0  0  0
  5 11  1  0  0  0  0
  6  7  1  0  0  0  0
  2 12  1  0  0  0  0
  2 13  1  0  0  0  0
  3 14  1  0  0  0  0
  3 15  1  0  0  0  0
  4 16  1  0  0  0  0
  5 17  1  0  0  0  0
  7 18  1  0  0  0  0
  7 19  1  0  0  0  0
  7 20  1  0  0  0  0
  9 21  1  0  0  0  0
 10 22  1  0  0  0  0
 11 23  1  0  0  0  0
M  END
> <id>
EN300-37394810

> <smiles>
CC1(CC(O)C(O)C1)C(=O)O

> <IUPAC Name>
3,4-dihydroxy-1-methylcyclopentane-1-carboxylic acid

> <CAS>
1970133-52-8

> <URL>
https://www.enaminestore.com/catalog/EN300-37394810

> <ROCS_ShapeQuery>
hit0

> <ROCS_TanimotoCombo>
1.000 

> <ROCS_ShapeTanimoto>
0.468 

> <ROCS_ColorTanimoto>
0.532 

> <ROCS_RefTversky>
1.465 

> <ROCS_RefColorTversky>
0.798 

> <ROCS_RefTverskyCombo>
2.263 

> <ROCS_FitTversky>
0.408 

> <ROCS_FitColorTversky>
0.615 

> <ROCS_FitTverskyCombo>
1.023 

> <ROCS_ColorScore>
-4.868

> <ROCS_Overlap>
185.694

> <ROCS_Rank>
327                 

$$$$
untitled-dbase-114293_14
  -OEChem-06232314393D

 17 17  0     0  0  0  0  0  0999 V2000
   -5.9733    5.9875  -36.6044 C   0  0  0  0  0  0  0  0  0  0  0  0
   -6.4740    3.6738  -36.8341 C   0  0  0  0  0  0  0  0  0  0  0  0
   -6.9023    4.7081  -34.8279 C   0  0  0  0  0  0  0  0  0  0  0  0
   -5.9888    4.8441  -37.3953 C   0  0  0  0  0  0  0  0  0  0  0  0
   -6.4370    5.9267  -35.2950 C   0  0  0  0  0  0  0  0  0  0  0  0
   -7.1870    8.1636  -34.9129 C   0  0  0  0  0  0  0  0  0  0  0  0
   -6.9328    3.5760  -35.5663 N   0  0  0  0  0  0  0  0  0  0  0  0
   -5.5270    4.8748  -38.7212 N   0  0  0  0  0  0  0  0  0  0  0  0
   -6.4340    7.0255  -34.5005 O   0  0  0  0  0  0  0  0  0  0  0  0
   -7.2545    8.2373  -36.2591 F   0  0  0  0  0  0  0  0  0  0  0  0
   -6.5736    9.2826  -34.4649 F   0  0  0  0  0  0  0  0  0  0  0  0
   -8.4319    8.1351  -34.3916 F   0  0  0  0  0  0  0  0  0  0  0  0
   -5.6010    6.9277  -37.0040 H   0  0  0  0  0  0  0  0  0  0  0  0
   -6.5110    2.7490  -37.4020 H   0  0  0  0  0  0  0  0  0  0  0  0
   -7.2761    4.6024  -33.8142 H   0  0  0  0  0  0  0  0  0  0  0  0
   -5.2247    5.7444  -39.1190 H   0  0  0  0  0  0  0  0  0  0  0  0
   -5.5922    4.0485  -39.2860 H   0  0  0  0  0  0  0  0  0  0  0  0
  1  4  1  0  0  0  0
  1  5  2  0  0  0  0
  2  4  2  0  0  0  0
  2  7  1  0  0  0  0
  3  5  1  0  0  0  0
  3  7  2  0  0  0  0
  4  8  1  0  0  0  0
  5  9  1  0  0  0  0
  6  9  1  0  0  0  0
  6 10  1  0  0  0  0
  6 11  1  0  0  0  0
  6 12  1  0  0  0  0
  1 13  1  0  0  0  0
  2 14  1  0  0  0  0
  3 15  1  0  0  0  0
  8 16  1  0  0  0  0
  8 17  1  0  0  0  0
M  END
> <id>
EN300-7946834

> <smiles>
NC=1C=NC=C(OC(F)(F)F)C1

> <MDLNUMBER>
MFCD25450538

> <IUPAC Name>
5-(trifluoromethoxy)pyridin-3-amine

> <CAS>
1361856-17-8

> <Purity>
95

> <URL>
https://www.enaminestore.com/catalog/EN300-7946834

> <ROCS_ShapeQuery>
hit0

> <ROCS_TanimotoCombo>
1.000 

> <ROCS_ShapeTanimoto>
0.455 

> <ROCS_ColorTanimoto>
0.545 

> <ROCS_RefTversky>
1.566 

> <ROCS_RefColorTversky>
0.652 

> <ROCS_RefTverskyCombo>
2.219 

> <ROCS_FitTversky>
0.391 

> <ROCS_FitColorTversky>
0.769 

> <ROCS_FitTverskyCombo>
1.159 

> <ROCS_ColorScore>
-3.881

> <ROCS_Overlap>
204.008

> <ROCS_Rank>
328                 

$$$$
untitled-dbase-109743_1
  -OEChem-06232314393D

 16 17  0     1  0  0  0  0  0999 V2000
   -6.7645    7.4580  -35.5460 C   0  0  0  0  0  0  0  0  0  0  0  0
   -4.9987    4.3952  -37.2726 C   0  0  0  0  0  0  0  0  0  0  0  0
   -6.8296    5.1704  -37.8223 C   0  0  0  0  0  0  0  0  0  0  0  0
   -5.8172    6.3028  -35.7105 C   0  0  2  0  0  0  0  0  0  0  0  0
   -6.1455    5.0107  -36.4557 C   0  0  0  0  0  0  0  0  0  0  0  0
   -5.6307    4.7621  -38.5206 O   0  0  0  0  0  0  0  0  0  0  0  0
   -6.5625    6.4913  -34.5031 O   0  0  0  0  0  0  0  0  0  0  0  0
   -6.8047    4.0387  -35.6030 O   0  0  0  0  0  0  0  0  0  0  0  0
   -6.3454    8.4447  -35.3990 H   0  0  0  0  0  0  0  0  0  0  0  0
   -7.7074    7.4336  -36.0760 H   0  0  0  0  0  0  0  0  0  0  0  0
   -4.0200    4.8718  -37.1624 H   0  0  0  0  0  0  0  0  0  0  0  0
   -4.8825    3.3097  -37.1905 H   0  0  0  0  0  0  0  0  0  0  0  0
   -7.6594    4.4855  -38.0242 H   0  0  0  0  0  0  0  0  0  0  0  0
   -7.1270    6.1875  -38.0947 H   0  0  0  0  0  0  0  0  0  0  0  0
   -4.7520    6.4881  -35.6860 H   0  0  0  0  0  0  0  0  0  0  0  0
   -7.4943    4.5325  -35.1476 H   0  0  0  0  0  0  0  0  0  0  0  0
  1  4  1  0  0  0  0
  1  7  1  0  0  0  0
  2  5  1  0  0  0  0
  2  6  1  0  0  0  0
  3  5  1  0  0  0  0
  3  6  1  0  0  0  0
  4  5  1  0  0  0  0
  4  7  1  0  0  0  0
  5  8  1  0  0  0  0
  1  9  1  0  0  0  0
  1 10  1  0  0  0  0
  2 11  1  0  0  0  0
  2 12  1  0  0  0  0
  3 13  1  0  0  0  0
  3 14  1  0  0  0  0
  4 15  1  0  0  0  0
  8 16  1  0  0  0  0
M  END
> <id>
EN300-631680

> <smiles>
OC1(COC1)C2CO2

> <MDLNUMBER>
MFCD30752708

> <IUPAC Name>
3-(oxiran-2-yl)oxetan-3-ol

> <CAS>
2137814-10-7

> <Purity>
95

> <URL>
https://www.enaminestore.com/catalog/EN300-631680

> <ROCS_ShapeQuery>
hit0

> <ROCS_TanimotoCombo>
1.000 

> <ROCS_ShapeTanimoto>
0.515 

> <ROCS_ColorTanimoto>
0.485 

> <ROCS_RefTversky>
1.270 

> <ROCS_RefColorTversky>
0.604 

> <ROCS_RefTverskyCombo>
1.874 

> <ROCS_FitTversky>
0.464 

> <ROCS_FitColorTversky>
0.712 

> <ROCS_FitTverskyCombo>
1.176 

> <ROCS_ColorScore>
-3.594

> <ROCS_Overlap>
152.483

> <ROCS_Rank>
329                 

$$$$
untitled-dbase-40299_7
  -OEChem-06232314393D

 18 18  0     0  0  0  0  0  0999 V2000
   -5.4068    7.0143  -36.6788 C   0  0  0  0  0  0  0  0  0  0  0  0
   -6.0550    7.9203  -35.8394 C   0  0  0  0  0  0  0  0  0  0  0  0
   -5.6839    5.6508  -36.5800 C   0  0  0  0  0  0  0  0  0  0  0  0
   -6.6091    5.1933  -35.6417 C   0  0  0  0  0  0  0  0  0  0  0  0
   -6.9802    7.4628  -34.9011 C   0  0  0  0  0  0  0  0  0  0  0  0
   -7.2572    6.0993  -34.8023 C   0  0  0  0  0  0  0  0  0  0  0  0
   -4.9717    4.7065  -37.4938 C   0  0  0  0  0  0  0  0  0  0  0  0
   -6.8757    3.8055  -35.5561 N   0  0  0  0  0  0  0  0  0  0  0  0
   -5.5295    4.8047  -38.7974 O   0  0  0  0  0  0  0  0  0  0  0  0
   -7.7461    8.6423  -33.8940 Cl  0  0  0  0  0  0  0  0  0  0  0  0
   -8.4073    5.5138  -33.6389 Cl  0  0  0  0  0  0  0  0  0  0  0  0
   -4.6876    7.3809  -37.4065 H   0  0  0  0  0  0  0  0  0  0  0  0
   -5.8266    8.9792  -35.9310 H   0  0  0  0  0  0  0  0  0  0  0  0
   -3.9006    4.9390  -37.5496 H   0  0  0  0  0  0  0  0  0  0  0  0
   -5.0685    3.6712  -37.1431 H   0  0  0  0  0  0  0  0  0  0  0  0
   -7.5020    3.4770  -34.8529 H   0  0  0  0  0  0  0  0  0  0  0  0
   -6.3611    3.1788  -36.1369 H   0  0  0  0  0  0  0  0  0  0  0  0
   -5.0426    4.1795  -39.3582 H   0  0  0  0  0  0  0  0  0  0  0  0
  1  2  1  0  0  0  0
  1  3  2  0  0  0  0
  2  5  2  0  0  0  0
  3  4  1  0  0  0  0
  3  7  1  0  0  0  0
  4  6  2  0  0  0  0
  4  8  1  0  0  0  0
  5  6  1  0  0  0  0
  5 10  1  0  0  0  0
  6 11  1  0  0  0  0
  7  9  1  0  0  0  0
  1 12  1  0  0  0  0
  2 13  1  0  0  0  0
  7 14  1  0  0  0  0
  7 15  1  0  0  0  0
  8 16  1  0  0  0  0
  8 17  1  0  0  0  0
  9 18  1  0  0  0  0
M  END
> <id>
EN300-814038

> <smiles>
NC=1C(Cl)=C(Cl)C=CC1CO

> <MDLNUMBER>
MFCD31559648

> <IUPAC Name>
(2-amino-3,4-dichlorophenyl)methanol

> <CAS>
1595672-91-5

> <Purity>
95

> <URL>
https://www.enaminestore.com/catalog/EN300-814038

> <ROCS_ShapeQuery>
hit0

> <ROCS_TanimotoCombo>
1.000 

> <ROCS_ShapeTanimoto>
0.429 

> <ROCS_ColorTanimoto>
0.571 

> <ROCS_RefTversky>
1.344 

> <ROCS_RefColorTversky>
0.672 

> <ROCS_RefTverskyCombo>
2.016 

> <ROCS_FitTversky>
0.386 

> <ROCS_FitColorTversky>
0.792 

> <ROCS_FitTverskyCombo>
1.178 

> <ROCS_ColorScore>
-3.999

> <ROCS_Overlap>
169.077

> <ROCS_Rank>
330                 

$$$$
untitled-dbase-11440_7
  -OEChem-06232314393D

 18 18  0     0  0  0  0  0  0999 V2000
   -6.0315    6.7846  -37.6965 C   0  0  0  0  0  0  0  0  0  0  0  0
   -5.5522    6.0627  -38.7777 C   0  0  0  0  0  0  0  0  0  0  0  0
   -5.9412    4.0577  -37.7258 C   0  0  0  0  0  0  0  0  0  0  0  0
   -6.4812    6.0753  -36.5884 C   0  0  0  0  0  0  0  0  0  0  0  0
   -6.4385    4.6856  -36.5952 C   0  0  0  0  0  0  0  0  0  0  0  0
   -6.9910    6.8036  -35.4354 C   0  0  0  0  0  0  0  0  0  0  0  0
   -8.6610    8.3453  -34.7141 C   0  0  0  0  0  0  0  0  0  0  0  0
   -5.4952    4.7128  -38.8211 N   0  0  0  0  0  0  0  0  0  0  0  0
   -6.5109    6.7344  -34.2971 O   0  0  0  0  0  0  0  0  0  0  0  0
   -6.8666    3.9499  -35.5375 O   0  0  0  0  0  0  0  0  0  0  0  0
   -8.0690    7.5771  -35.7672 O   0  0  0  0  0  0  0  0  0  0  0  0
   -6.0503    7.8690  -37.7243 H   0  0  0  0  0  0  0  0  0  0  0  0
   -5.1896    6.5682  -39.6669 H   0  0  0  0  0  0  0  0  0  0  0  0
   -5.8842    2.9754  -37.7868 H   0  0  0  0  0  0  0  0  0  0  0  0
   -9.5063    8.9147  -35.1084 H   0  0  0  0  0  0  0  0  0  0  0  0
   -7.9150    9.0244  -34.2936 H   0  0  0  0  0  0  0  0  0  0  0  0
   -9.0138    7.6666  -33.9341 H   0  0  0  0  0  0  0  0  0  0  0  0
   -7.1847    4.5306  -34.8263 H   0  0  0  0  0  0  0  0  0  0  0  0
  1  2  1  0  0  0  0
  1  4  2  0  0  0  0
  2  8  2  0  0  0  0
  3  5  2  0  0  0  0
  3  8  1  0  0  0  0
  4  5  1  0  0  0  0
  4  6  1  0  0  0  0
  5 10  1  0  0  0  0
  6  9  2  0  0  0  0
  6 11  1  0  0  0  0
  7 11  1  0  0  0  0
  1 12  1  0  0  0  0
  2 13  1  0  0  0  0
  3 14  1  0  0  0  0
  7 15  1  0  0  0  0
  7 16  1  0  0  0  0
  7 17  1  0  0  0  0
 10 18  1  0  0  0  0
M  END
> <id>
EN300-184396

> <smiles>
Cl.COC(=O)C=1C=CN=CC1O

> <MDLNUMBER>
MFCD28118487

> <IUPAC Name>
methyl 3-hydroxypyridine-4-carboxylate hydrochloride

> <CAS>
1803590-16-0

> <Purity>
95

> <URL>
https://www.enaminestore.com/catalog/EN300-184396

> <Saltdate>
Cl

> <ROCS_ShapeQuery>
hit0

> <ROCS_TanimotoCombo>
1.000 

> <ROCS_ShapeTanimoto>
0.447 

> <ROCS_ColorTanimoto>
0.552 

> <ROCS_RefTversky>
1.448 

> <ROCS_RefColorTversky>
0.658 

> <ROCS_RefTverskyCombo>
2.106 

> <ROCS_FitTversky>
0.393 

> <ROCS_FitColorTversky>
0.775 

> <ROCS_FitTverskyCombo>
1.168 

> <ROCS_ColorScore>
-3.914

> <ROCS_Overlap>
184.518

> <ROCS_Rank>
331                 

$$$$
untitled-dbase-5181_7
  -OEChem-06232314393D

 18 18  0     0  0  0  0  0  0999 V2000
   -6.0315    6.7846  -37.6965 C   0  0  0  0  0  0  0  0  0  0  0  0
   -5.5522    6.0627  -38.7777 C   0  0  0  0  0  0  0  0  0  0  0  0
   -5.9412    4.0577  -37.7258 C   0  0  0  0  0  0  0  0  0  0  0  0
   -6.4812    6.0753  -36.5884 C   0  0  0  0  0  0  0  0  0  0  0  0
   -6.4385    4.6856  -36.5952 C   0  0  0  0  0  0  0  0  0  0  0  0
   -6.9910    6.8036  -35.4354 C   0  0  0  0  0  0  0  0  0  0  0  0
   -8.6610    8.3453  -34.7141 C   0  0  0  0  0  0  0  0  0  0  0  0
   -5.4952    4.7128  -38.8211 N   0  0  0  0  0  0  0  0  0  0  0  0
   -6.5109    6.7344  -34.2971 O   0  0  0  0  0  0  0  0  0  0  0  0
   -6.8666    3.9499  -35.5375 O   0  0  0  0  0  0  0  0  0  0  0  0
   -8.0690    7.5771  -35.7672 O   0  0  0  0  0  0  0  0  0  0  0  0
   -6.0503    7.8690  -37.7243 H   0  0  0  0  0  0  0  0  0  0  0  0
   -5.1896    6.5682  -39.6669 H   0  0  0  0  0  0  0  0  0  0  0  0
   -5.8842    2.9754  -37.7868 H   0  0  0  0  0  0  0  0  0  0  0  0
   -9.5063    8.9147  -35.1084 H   0  0  0  0  0  0  0  0  0  0  0  0
   -7.9150    9.0244  -34.2936 H   0  0  0  0  0  0  0  0  0  0  0  0
   -9.0138    7.6666  -33.9341 H   0  0  0  0  0  0  0  0  0  0  0  0
   -7.1847    4.5306  -34.8263 H   0  0  0  0  0  0  0  0  0  0  0  0
  1  2  1  0  0  0  0
  1  4  2  0  0  0  0
  2  8  2  0  0  0  0
  3  5  2  0  0  0  0
  3  8  1  0  0  0  0
  4  5  1  0  0  0  0
  4  6  1  0  0  0  0
  5 10  1  0  0  0  0
  6  9  2  0  0  0  0
  6 11  1  0  0  0  0
  7 11  1  0  0  0  0
  1 12  1  0  0  0  0
  2 13  1  0  0  0  0
  3 14  1  0  0  0  0
  7 15  1  0  0  0  0
  7 16  1  0  0  0  0
  7 17  1  0  0  0  0
 10 18  1  0  0  0  0
M  END
> <id>
EN300-107092

> <smiles>
COC(=O)C=1C=CN=CC1O

> <MDLNUMBER>
MFCD00661299

> <IUPAC Name>
methyl 3-hydroxypyridine-4-carboxylate

> <CAS>
10128-72-0

> <Purity>
95

> <URL>
https://www.enaminestore.com/catalog/EN300-107092

> <MP>
78-80

> <ROCS_ShapeQuery>
hit0

> <ROCS_TanimotoCombo>
1.000 

> <ROCS_ShapeTanimoto>
0.447 

> <ROCS_ColorTanimoto>
0.552 

> <ROCS_RefTversky>
1.448 

> <ROCS_RefColorTversky>
0.658 

> <ROCS_RefTverskyCombo>
2.106 

> <ROCS_FitTversky>
0.393 

> <ROCS_FitColorTversky>
0.775 

> <ROCS_FitTverskyCombo>
1.168 

> <ROCS_ColorScore>
-3.914

> <ROCS_Overlap>
184.518

> <ROCS_Rank>
332                 

$$$$
untitled-dbase-71036_32
  -OEChem-06232314393D

 23 23  0     1  0  0  0  0  0999 V2000
   -6.0814    7.8069  -35.9501 C   0  0  0  0  0  0  0  0  0  0  0  0
   -5.4954    6.8667  -36.7976 C   0  0  0  0  0  0  0  0  0  0  0  0
   -7.2267    6.0337  -34.7749 C   0  0  0  0  0  0  0  0  0  0  0  0
   -6.9470    7.3904  -34.9387 C   0  0  0  0  0  0  0  0  0  0  0  0
   -5.7751    5.5101  -36.6339 C   0  0  0  0  0  0  0  0  0  0  0  0
   -6.6408    5.0935  -35.6225 C   0  0  0  0  0  0  0  0  0  0  0  0
   -7.5727    8.3961  -34.0322 C   0  0  0  0  0  0  0  0  0  0  0  0
   -5.5865    3.0809  -37.2810 C   0  0  0  0  0  0  0  0  0  0  0  0
   -5.1401    4.5181  -37.5512 C   0  0  1  0  0  0  0  0  0  0  0  0
   -6.9239    3.7723  -35.4480 O   0  0  0  0  0  0  0  0  0  0  0  0
   -5.4862    4.8428  -38.9020 O   0  0  0  0  0  0  0  0  0  0  0  0
   -5.8579    8.8621  -36.0838 H   0  0  0  0  0  0  0  0  0  0  0  0
   -4.8213    7.2012  -37.5818 H   0  0  0  0  0  0  0  0  0  0  0  0
   -7.9008    5.7068  -33.9869 H   0  0  0  0  0  0  0  0  0  0  0  0
   -8.5287    8.7402  -34.4456 H   0  0  0  0  0  0  0  0  0  0  0  0
   -7.7562    7.9744  -33.0355 H   0  0  0  0  0  0  0  0  0  0  0  0
   -6.9198    9.2676  -33.8931 H   0  0  0  0  0  0  0  0  0  0  0  0
   -6.6766    2.9910  -37.3266 H   0  0  0  0  0  0  0  0  0  0  0  0
   -5.2522    2.7375  -36.2955 H   0  0  0  0  0  0  0  0  0  0  0  0
   -5.1487    2.3933  -38.0129 H   0  0  0  0  0  0  0  0  0  0  0  0
   -4.0394    4.5505  -37.4931 H   0  0  0  0  0  0  0  0  0  0  0  0
   -7.5377    3.6564  -34.7059 H   0  0  0  0  0  0  0  0  0  0  0  0
   -6.4519    4.7987  -38.9510 H   0  0  0  0  0  0  0  0  0  0  0  0
  1  2  1  0  0  0  0
  1  4  2  0  0  0  0
  2  5  2  0  0  0  0
  3  4  1  0  0  0  0
  3  6  2  0  0  0  0
  4  7  1  0  0  0  0
  5  6  1  0  0  0  0
  5  9  1  0  0  0  0
  6 10  1  0  0  0  0
  8  9  1  1  0  0  0
  9 11  1  0  0  0  0
  1 12  1  0  0  0  0
  2 13  1  0  0  0  0
  3 14  1  0  0  0  0
  7 15  1  0  0  0  0
  7 16  1  0  0  0  0
  7 17  1  0  0  0  0
  8 18  1  0  0  0  0
  8 19  1  0  0  0  0
  8 20  1  0  0  0  0
  9 21  1  0  0  0  0
 10 22  1  0  0  0  0
 11 23  1  0  0  0  0
M  END
> <id>
EN300-1846284

> <smiles>
C[C@@H](O)C=1C=CC(C)=CC1O

> <MDLNUMBER>
MFCD18853874

> <IUPAC Name>
2-[(1R)-1-hydroxyethyl]-5-methylphenol

> <CAS>
1344912-35-1

> <URL>
https://www.enaminestore.com/catalog/EN300-1846284

> <ROCS_ShapeQuery>
hit0

> <ROCS_TanimotoCombo>
0.999 

> <ROCS_ShapeTanimoto>
0.439 

> <ROCS_ColorTanimoto>
0.561 

> <ROCS_RefTversky>
1.399 

> <ROCS_RefColorTversky>
0.665 

> <ROCS_RefTverskyCombo>
2.063 

> <ROCS_FitTversky>
0.390 

> <ROCS_FitColorTversky>
0.782 

> <ROCS_FitTverskyCombo>
1.172 

> <ROCS_ColorScore>
-3.955

> <ROCS_Overlap>
177.163

> <ROCS_Rank>
333                 

$$$$
untitled-dbase-60725_8
  -OEChem-06232314393D

 21 22  0     0  0  0  0  0  0999 V2000
   -5.1828    5.7378  -38.8442 C   0  0  0  0  0  0  0  0  0  0  0  0
   -5.1411    4.3552  -38.6653 C   0  0  0  0  0  0  0  0  0  0  0  0
   -5.7934    6.5470  -37.8861 C   0  0  0  0  0  0  0  0  0  0  0  0
   -5.7101    3.7816  -37.5283 C   0  0  0  0  0  0  0  0  0  0  0  0
   -6.3625    5.9735  -36.7491 C   0  0  0  0  0  0  0  0  0  0  0  0
   -6.3208    4.5907  -36.5701 C   0  0  0  0  0  0  0  0  0  0  0  0
   -8.4795    7.1657  -35.8748 C   0  0  0  0  0  0  0  0  0  0  0  0
   -7.4637    8.2302  -36.1493 C   0  0  0  0  0  0  0  0  0  0  0  0
   -7.0114    6.8537  -35.7337 C   0  0  0  0  0  0  0  0  0  0  0  0
   -6.8710    4.0120  -35.4661 O   0  0  0  0  0  0  0  0  0  0  0  0
   -6.5115    6.7231  -34.3927 O   0  0  0  0  0  0  0  0  0  0  0  0
   -4.7395    6.1843  -39.7295 H   0  0  0  0  0  0  0  0  0  0  0  0
   -4.6656    3.7252  -39.4114 H   0  0  0  0  0  0  0  0  0  0  0  0
   -5.8207    7.6236  -38.0350 H   0  0  0  0  0  0  0  0  0  0  0  0
   -5.6739    2.7037  -37.3944 H   0  0  0  0  0  0  0  0  0  0  0  0
   -9.0704    7.2531  -34.9707 H   0  0  0  0  0  0  0  0  0  0  0  0
   -9.0246    6.7627  -36.7206 H   0  0  0  0  0  0  0  0  0  0  0  0
   -7.3292    8.5428  -37.1784 H   0  0  0  0  0  0  0  0  0  0  0  0
   -7.3685    9.0350  -35.4297 H   0  0  0  0  0  0  0  0  0  0  0  0
   -7.2576    4.6899  -34.8901 H   0  0  0  0  0  0  0  0  0  0  0  0
   -5.5728    6.9483  -34.4375 H   0  0  0  0  0  0  0  0  0  0  0  0
  1  2  2  0  0  0  0
  1  3  1  0  0  0  0
  2  4  1  0  0  0  0
  3  5  2  0  0  0  0
  4  6  2  0  0  0  0
  5  6  1  0  0  0  0
  5  9  1  0  0  0  0
  6 10  1  0  0  0  0
  7  8  1  0  0  0  0
  7  9  1  0  0  0  0
  8  9  1  0  0  0  0
  9 11  1  0  0  0  0
  1 12  1  0  0  0  0
  2 13  1  0  0  0  0
  3 14  1  0  0  0  0
  4 15  1  0  0  0  0
  7 16  1  0  0  0  0
  7 17  1  0  0  0  0
  8 18  1  0  0  0  0
  8 19  1  0  0  0  0
 10 20  1  0  0  0  0
 11 21  1  0  0  0  0
M  END
> <id>
EN300-1844872

> <smiles>
OC=1C=CC=CC1C2(O)CC2

> <MDLNUMBER>
MFCD24721486

> <IUPAC Name>
2-(1-hydroxycyclopropyl)phenol

> <CAS>
60068-23-7

> <Purity>
88

> <URL>
https://www.enaminestore.com/catalog/EN300-1844872

> <ROCS_ShapeQuery>
hit0

> <ROCS_TanimotoCombo>
0.999 

> <ROCS_ShapeTanimoto>
0.465 

> <ROCS_ColorTanimoto>
0.534 

> <ROCS_RefTversky>
1.477 

> <ROCS_RefColorTversky>
0.643 

> <ROCS_RefTverskyCombo>
2.120 

> <ROCS_FitTversky>
0.404 

> <ROCS_FitColorTversky>
0.758 

> <ROCS_FitTverskyCombo>
1.162 

> <ROCS_ColorScore>
-3.827

> <ROCS_Overlap>
187.897

> <ROCS_Rank>
334                 

$$$$
untitled-dbase-99489_4
  -OEChem-06232314393D

 20 20  0     1  0  0  0  0  0999 V2000
   -7.6126    5.9803  -34.9300 C   0  0  0  0  0  0  0  0  0  0  0  0
   -7.5440    7.3568  -35.1449 C   0  0  0  0  0  0  0  0  0  0  0  0
   -5.9046    7.0035  -36.8840 C   0  0  0  0  0  0  0  0  0  0  0  0
   -5.9732    5.6270  -36.6691 C   0  0  0  0  0  0  0  0  0  0  0  0
   -6.8272    5.1154  -35.6921 C   0  0  0  0  0  0  0  0  0  0  0  0
   -6.6900    7.8684  -36.1219 C   0  0  0  0  0  0  0  0  0  0  0  0
   -3.6310    5.0251  -37.3765 C   0  0  0  0  0  0  0  0  0  0  0  0
   -5.1238    4.7161  -37.4925 C   0  0  2  0  0  0  0  0  0  0  0  0
   -6.9059    3.7736  -35.4693 O   0  0  0  0  0  0  0  0  0  0  0  0
   -5.5023    4.8418  -38.8675 O   0  0  0  0  0  0  0  0  0  0  0  0
   -6.6049    9.5664  -36.3875 Cl  0  0  0  0  0  0  0  0  0  0  0  0
   -8.2799    5.5876  -34.1677 H   0  0  0  0  0  0  0  0  0  0  0  0
   -8.1607    8.0190  -34.5429 H   0  0  0  0  0  0  0  0  0  0  0  0
   -5.2370    7.3976  -37.6471 H   0  0  0  0  0  0  0  0  0  0  0  0
   -3.4224    6.0681  -37.6353 H   0  0  0  0  0  0  0  0  0  0  0  0
   -3.0374    4.3803  -38.0344 H   0  0  0  0  0  0  0  0  0  0  0  0
   -3.2734    4.8401  -36.3576 H   0  0  0  0  0  0  0  0  0  0  0  0
   -5.2743    3.6578  -37.2218 H   0  0  0  0  0  0  0  0  0  0  0  0
   -7.5423    3.5884  -34.7611 H   0  0  0  0  0  0  0  0  0  0  0  0
   -6.4358    4.5902  -38.9144 H   0  0  0  0  0  0  0  0  0  0  0  0
  1  2  1  0  0  0  0
  1  5  2  0  0  0  0
  2  6  2  0  0  0  0
  3  4  2  0  0  0  0
  3  6  1  0  0  0  0
  4  5  1  0  0  0  0
  4  8  1  0  0  0  0
  5  9  1  0  0  0  0
  6 11  1  0  0  0  0
  7  8  1  6  0  0  0
  8 10  1  0  0  0  0
  1 12  1  0  0  0  0
  2 13  1  0  0  0  0
  3 14  1  0  0  0  0
  7 15  1  0  0  0  0
  7 16  1  0  0  0  0
  7 17  1  0  0  0  0
  8 18  1  0  0  0  0
  9 19  1  0  0  0  0
 10 20  1  0  0  0  0
M  END
> <id>
EN300-1984206

> <smiles>
C[C@H](O)C=1C=C(Cl)C=CC1O

> <MDLNUMBER>
MFCD18339955

> <IUPAC Name>
4-chloro-2-[(1S)-1-hydroxyethyl]phenol

> <CAS>
1344952-86-8

> <URL>
https://www.enaminestore.com/catalog/EN300-1984206

> <ROCS_ShapeQuery>
hit0

> <ROCS_TanimotoCombo>
0.999 

> <ROCS_ShapeTanimoto>
0.432 

> <ROCS_ColorTanimoto>
0.566 

> <ROCS_RefTversky>
1.367 

> <ROCS_RefColorTversky>
0.668 

> <ROCS_RefTverskyCombo>
2.035 

> <ROCS_FitTversky>
0.387 

> <ROCS_FitColorTversky>
0.787 

> <ROCS_FitTverskyCombo>
1.175 

> <ROCS_ColorScore>
-3.976

> <ROCS_Overlap>
172.522

> <ROCS_Rank>
335                 

$$$$
untitled-dbase-135300_9
  -OEChem-06232314393D

 21 21  0     0  0  0  0  0  0999 V2000
   -5.7130    6.1528  -38.0279 C   0  0  0  0  0  0  0  0  0  0  0  0
   -6.2451    6.0050  -36.7329 C   0  0  0  0  0  0  0  0  0  0  0  0
   -6.3960    4.6488  -36.5764 C   0  0  0  0  0  0  0  0  0  0  0  0
   -6.5772    7.0407  -35.7417 C   0  0  0  0  0  0  0  0  0  0  0  0
   -7.9073    9.0895  -35.4147 C   0  0  0  0  0  0  0  0  0  0  0  0
   -6.5186    8.9156  -37.4493 C   0  0  0  0  0  0  0  0  0  0  0  0
   -5.5376    4.9838  -38.6497 N   0  0  0  0  0  0  0  0  0  0  0  0
   -5.9617    4.0885  -37.7416 N   0  0  0  0  0  0  0  0  0  0  0  0
   -6.8511    3.8727  -35.5738 N   0  0  0  0  0  0  0  0  0  0  0  0
   -6.9732    8.2998  -36.2046 N   0  0  0  0  0  0  0  0  0  0  0  0
   -6.4922    6.7100  -34.5595 O   0  0  0  0  0  0  0  0  0  0  0  0
   -5.4444    7.0620  -38.5470 H   0  0  0  0  0  0  0  0  0  0  0  0
   -7.3484    9.7239  -34.7111 H   0  0  0  0  0  0  0  0  0  0  0  0
   -8.5075    9.7242  -36.0833 H   0  0  0  0  0  0  0  0  0  0  0  0
   -8.5723    8.4170  -34.8530 H   0  0  0  0  0  0  0  0  0  0  0  0
   -7.1982    8.6349  -38.2675 H   0  0  0  0  0  0  0  0  0  0  0  0
   -6.5132   10.0098  -37.3363 H   0  0  0  0  0  0  0  0  0  0  0  0
   -5.5018    8.5660  -37.6813 H   0  0  0  0  0  0  0  0  0  0  0  0
   -5.9276    3.1061  -37.9829 H   0  0  0  0  0  0  0  0  0  0  0  0
   -7.1422    4.2627  -34.6634 H   0  0  0  0  0  0  0  0  0  0  0  0
   -6.8442    2.8418  -35.6285 H   0  0  0  0  0  0  0  0  0  0  0  0
  1  2  1  0  0  0  0
  1  7  2  0  0  0  0
  2  3  2  0  0  0  0
  2  4  1  0  0  0  0
  3  8  1  0  0  0  0
  3  9  1  0  0  0  0
  4 10  1  0  0  0  0
  4 11  2  0  0  0  0
  5 10  1  0  0  0  0
  6 10  1  0  0  0  0
  7  8  1  0  0  0  0
  1 12  1  0  0  0  0
  5 13  1  0  0  0  0
  5 14  1  0  0  0  0
  5 15  1  0  0  0  0
  6 16  1  0  0  0  0
  6 17  1  0  0  0  0
  6 18  1  0  0  0  0
  8 19  1  0  0  0  0
  9 20  1  0  0  0  0
  9 21  1  0  0  0  0
M  END
> <id>
EN300-106458

> <smiles>
CN(C)C(=O)C=1C=NNC1N

> <MDLNUMBER>
MFCD11210179

> <IUPAC Name>
5-amino-N,N-dimethyl-1H-pyrazole-4-carboxamide

> <CAS>
741209-40-5

> <Purity>
95

> <URL>
https://www.enaminestore.com/catalog/EN300-106458

> <ROCS_ShapeQuery>
hit0

> <ROCS_TanimotoCombo>
0.998 

> <ROCS_ShapeTanimoto>
0.497 

> <ROCS_ColorTanimoto>
0.501 

> <ROCS_RefTversky>
1.549 

> <ROCS_RefColorTversky>
0.668 

> <ROCS_RefTverskyCombo>
2.217 

> <ROCS_FitTversky>
0.422 

> <ROCS_FitColorTversky>
0.667 

> <ROCS_FitTverskyCombo>
1.089 

> <ROCS_ColorScore>
-4.007

> <ROCS_Overlap>
197.199

> <ROCS_Rank>
336                 

$$$$
untitled-dbase-151428_36
  -OEChem-06232314393D

 22 22  0     1  0  0  0  0  0999 V2000
   -5.1722    5.6424  -36.1124 C   0  0  0  0  0  0  0  0  0  0  0  0
   -7.2123    6.0803  -36.6559 C   0  0  0  0  0  0  0  0  0  0  0  0
   -6.3797    4.7761  -36.5546 C   0  0  1  0  0  0  0  0  0  0  0  0
   -6.1605    6.7863  -35.7584 C   0  0  2  0  0  0  0  0  0  0  0  0
   -6.2003    4.0041  -37.8484 C   0  0  0  0  0  0  0  0  0  0  0  0
   -5.7436    8.1645  -36.2493 C   0  0  0  0  0  0  0  0  0  0  0  0
   -6.8549    3.8672  -35.5054 N   0  0  0  0  0  0  0  0  0  0  0  0
   -6.5233    6.8700  -34.3617 O   0  0  0  0  0  0  0  0  0  0  0  0
   -5.5240    4.8247  -38.7908 O   0  0  0  0  0  0  0  0  0  0  0  0
   -5.6286    8.1663  -37.5878 F   0  0  0  0  0  0  0  0  0  0  0  0
   -6.6594    9.0811  -35.8946 F   0  0  0  0  0  0  0  0  0  0  0  0
   -4.5600    8.5096  -35.7154 F   0  0  0  0  0  0  0  0  0  0  0  0
   -4.5735    5.2581  -35.2793 H   0  0  0  0  0  0  0  0  0  0  0  0
   -4.4814    5.8877  -36.9293 H   0  0  0  0  0  0  0  0  0  0  0  0
   -7.2736    6.4885  -37.6728 H   0  0  0  0  0  0  0  0  0  0  0  0
   -8.2309    6.0427  -36.2542 H   0  0  0  0  0  0  0  0  0  0  0  0
   -7.1713    3.7180  -38.2667 H   0  0  0  0  0  0  0  0  0  0  0  0
   -5.6051    3.0999  -37.6809 H   0  0  0  0  0  0  0  0  0  0  0  0
   -6.1074    3.2638  -35.2647 H   0  0  0  0  0  0  0  0  0  0  0  0
   -7.1317    4.4176  -34.7300 H   0  0  0  0  0  0  0  0  0  0  0  0
   -7.1316    7.6155  -34.2995 H   0  0  0  0  0  0  0  0  0  0  0  0
   -5.4277    4.2996  -39.6019 H   0  0  0  0  0  0  0  0  0  0  0  0
  1  3  1  0  0  0  0
  1  4  1  0  0  0  0
  2  3  1  0  0  0  0
  2  4  1  0  0  0  0
  3  5  1  0  0  0  0
  3  7  1  6  0  0  0
  4  6  1  0  0  0  0
  4  8  1  6  0  0  0
  5  9  1  0  0  0  0
  6 10  1  0  0  0  0
  6 11  1  0  0  0  0
  6 12  1  0  0  0  0
  1 13  1  0  0  0  0
  1 14  1  0  0  0  0
  2 15  1  0  0  0  0
  2 16  1  0  0  0  0
  5 17  1  0  0  0  0
  5 18  1  0  0  0  0
  7 19  1  0  0  0  0
  7 20  1  0  0  0  0
  8 21  1  0  0  0  0
  9 22  1  0  0  0  0
M  END
> <id>
EN300-28271489

> <smiles>
N[C@]1(CO)C[C@](O)(C1)C(F)(F)F

> <IUPAC Name>
(1s,3s)-3-amino-3-(hydroxymethyl)-1-(trifluoromethyl)cyclobutan-1-ol

> <CAS>
2680812-00-2

> <URL>
https://www.enaminestore.com/catalog/EN300-28271489

> <ROCS_ShapeQuery>
hit0

> <ROCS_TanimotoCombo>
0.997 

> <ROCS_ShapeTanimoto>
0.375 

> <ROCS_ColorTanimoto>
0.622 

> <ROCS_RefTversky>
1.332 

> <ROCS_RefColorTversky>
0.824 

> <ROCS_RefTverskyCombo>
2.157 

> <ROCS_FitTversky>
0.343 

> <ROCS_FitColorTversky>
0.717 

> <ROCS_FitTverskyCombo>
1.061 

> <ROCS_ColorScore>
-4.987

> <ROCS_Overlap>
172.048

> <ROCS_Rank>
337                 

$$$$
untitled-dbase-160011_1
  -OEChem-06232314393D

 17 17  0     0  0  0  0  0  0999 V2000
   -5.9659    5.9899  -36.6041 C   0  0  0  0  0  0  0  0  0  0  0  0
   -6.9005    4.7161  -34.8263 C   0  0  0  0  0  0  0  0  0  0  0  0
   -5.9876    4.8462  -37.3945 C   0  0  0  0  0  0  0  0  0  0  0  0
   -6.4292    5.9321  -35.2944 C   0  0  0  0  0  0  0  0  0  0  0  0
   -6.4784    3.6788  -36.8323 C   0  0  0  0  0  0  0  0  0  0  0  0
   -6.9151    6.8799  -33.1681 C   0  0  0  0  0  0  0  0  0  0  0  0
   -6.9372    3.5839  -35.5641 N   0  0  0  0  0  0  0  0  0  0  0  0
   -5.5256    4.8784  -38.7205 N   0  0  0  0  0  0  0  0  0  0  0  0
   -6.4202    7.0310  -34.5002 O   0  0  0  0  0  0  0  0  0  0  0  0
   -6.5092    2.5603  -37.5755 F   0  0  0  0  0  0  0  0  0  0  0  0
   -5.5895    6.9283  -37.0042 H   0  0  0  0  0  0  0  0  0  0  0  0
   -7.2749    4.6132  -33.8127 H   0  0  0  0  0  0  0  0  0  0  0  0
   -6.8501    7.8364  -32.6437 H   0  0  0  0  0  0  0  0  0  0  0  0
   -6.3260    6.1236  -32.6432 H   0  0  0  0  0  0  0  0  0  0  0  0
   -7.9591    6.5606  -33.2108 H   0  0  0  0  0  0  0  0  0  0  0  0
   -5.2200    5.7478  -39.1159 H   0  0  0  0  0  0  0  0  0  0  0  0
   -5.5942    4.0538  -39.2871 H   0  0  0  0  0  0  0  0  0  0  0  0
  1  3  2  0  0  0  0
  1  4  1  0  0  0  0
  2  4  2  0  0  0  0
  2  7  1  0  0  0  0
  3  5  1  0  0  0  0
  3  8  1  0  0  0  0
  4  9  1  0  0  0  0
  5  7  2  0  0  0  0
  5 10  1  0  0  0  0
  6  9  1  0  0  0  0
  1 11  1  0  0  0  0
  2 12  1  0  0  0  0
  6 13  1  0  0  0  0
  6 14  1  0  0  0  0
  6 15  1  0  0  0  0
  8 16  1  0  0  0  0
  8 17  1  0  0  0  0
M  END
> <id>
EN300-311588

> <smiles>
Cl.COC=1C=NC(F)=C(N)C1

> <MDLNUMBER>
MFCD30345341

> <IUPAC Name>
2-fluoro-5-methoxypyridin-3-amine hydrochloride

> <CAS>
2031260-43-0

> <Purity>
95

> <URL>
https://www.enaminestore.com/catalog/EN300-311588

> <Saltdate>
Cl

> <ROCS_ShapeQuery>
hit0

> <ROCS_TanimotoCombo>
0.997 

> <ROCS_ShapeTanimoto>
0.452 

> <ROCS_ColorTanimoto>
0.545 

> <ROCS_RefTversky>
1.366 

> <ROCS_RefColorTversky>
0.652 

> <ROCS_RefTverskyCombo>
2.018 

> <ROCS_FitTversky>
0.403 

> <ROCS_FitColorTversky>
0.768 

> <ROCS_FitTverskyCombo>
1.171 

> <ROCS_ColorScore>
-3.880

> <ROCS_Overlap>
170.770

> <ROCS_Rank>
338                 

$$$$
untitled-dbase-159930_1
  -OEChem-06232314393D

 17 17  0     0  0  0  0  0  0999 V2000
   -5.9659    5.9899  -36.6041 C   0  0  0  0  0  0  0  0  0  0  0  0
   -6.9005    4.7161  -34.8263 C   0  0  0  0  0  0  0  0  0  0  0  0
   -5.9876    4.8462  -37.3945 C   0  0  0  0  0  0  0  0  0  0  0  0
   -6.4292    5.9321  -35.2944 C   0  0  0  0  0  0  0  0  0  0  0  0
   -6.4784    3.6788  -36.8323 C   0  0  0  0  0  0  0  0  0  0  0  0
   -6.9151    6.8799  -33.1681 C   0  0  0  0  0  0  0  0  0  0  0  0
   -6.9372    3.5839  -35.5641 N   0  0  0  0  0  0  0  0  0  0  0  0
   -5.5256    4.8784  -38.7205 N   0  0  0  0  0  0  0  0  0  0  0  0
   -6.4202    7.0310  -34.5002 O   0  0  0  0  0  0  0  0  0  0  0  0
   -6.5092    2.5603  -37.5755 F   0  0  0  0  0  0  0  0  0  0  0  0
   -5.5895    6.9283  -37.0042 H   0  0  0  0  0  0  0  0  0  0  0  0
   -7.2749    4.6132  -33.8127 H   0  0  0  0  0  0  0  0  0  0  0  0
   -6.8501    7.8364  -32.6437 H   0  0  0  0  0  0  0  0  0  0  0  0
   -6.3260    6.1236  -32.6432 H   0  0  0  0  0  0  0  0  0  0  0  0
   -7.9591    6.5606  -33.2108 H   0  0  0  0  0  0  0  0  0  0  0  0
   -5.2200    5.7478  -39.1159 H   0  0  0  0  0  0  0  0  0  0  0  0
   -5.5942    4.0538  -39.2871 H   0  0  0  0  0  0  0  0  0  0  0  0
  1  3  2  0  0  0  0
  1  4  1  0  0  0  0
  2  4  2  0  0  0  0
  2  7  1  0  0  0  0
  3  5  1  0  0  0  0
  3  8  1  0  0  0  0
  4  9  1  0  0  0  0
  5  7  2  0  0  0  0
  5 10  1  0  0  0  0
  6  9  1  0  0  0  0
  1 11  1  0  0  0  0
  2 12  1  0  0  0  0
  6 13  1  0  0  0  0
  6 14  1  0  0  0  0
  6 15  1  0  0  0  0
  8 16  1  0  0  0  0
  8 17  1  0  0  0  0
M  END
> <id>
EN300-311589

> <smiles>
COC=1C=NC(F)=C(N)C1

> <MDLNUMBER>
MFCD16606159

> <IUPAC Name>
2-fluoro-5-methoxypyridin-3-amine

> <CAS>
1227581-69-2

> <URL>
https://www.enaminestore.com/catalog/EN300-311589

> <ROCS_ShapeQuery>
hit0

> <ROCS_TanimotoCombo>
0.997 

> <ROCS_ShapeTanimoto>
0.452 

> <ROCS_ColorTanimoto>
0.545 

> <ROCS_RefTversky>
1.366 

> <ROCS_RefColorTversky>
0.652 

> <ROCS_RefTverskyCombo>
2.018 

> <ROCS_FitTversky>
0.403 

> <ROCS_FitColorTversky>
0.768 

> <ROCS_FitTverskyCombo>
1.171 

> <ROCS_ColorScore>
-3.880

> <ROCS_Overlap>
170.770

> <ROCS_Rank>
339                 

$$$$
untitled-dbase-53615_6
  -OEChem-06232314393D

 18 18  0     1  0  0  0  0  0999 V2000
   -6.8702    7.2098  -35.4403 C   0  0  0  0  0  0  0  0  0  0  0  0
   -5.7974    6.2776  -37.5668 C   0  0  0  0  0  0  0  0  0  0  0  0
   -5.5695    4.7565  -37.4695 C   0  0  0  0  0  0  0  0  0  0  0  0
   -6.8439    6.1244  -36.4373 C   0  0  1  0  0  0  0  0  0  0  0  0
   -6.0770    4.8403  -36.0106 C   0  0  1  0  0  0  0  0  0  0  0  0
   -7.3912    8.5429  -35.9047 C   0  0  0  0  0  0  0  0  0  0  0  0
   -6.4871    7.0338  -34.2847 O   0  0  0  0  0  0  0  0  0  0  0  0
   -6.8897    3.7399  -35.5669 O   0  0  0  0  0  0  0  0  0  0  0  0
   -4.9199    6.8743  -37.2915 H   0  0  0  0  0  0  0  0  0  0  0  0
   -6.1825    6.6336  -38.5260 H   0  0  0  0  0  0  0  0  0  0  0  0
   -6.2097    4.1650  -38.1339 H   0  0  0  0  0  0  0  0  0  0  0  0
   -4.5331    4.4314  -37.5922 H   0  0  0  0  0  0  0  0  0  0  0  0
   -7.8319    5.9044  -36.8233 H   0  0  0  0  0  0  0  0  0  0  0  0
   -5.2697    5.0331  -35.2936 H   0  0  0  0  0  0  0  0  0  0  0  0
   -8.4715    8.5934  -35.7430 H   0  0  0  0  0  0  0  0  0  0  0  0
   -7.1875    8.6642  -36.9715 H   0  0  0  0  0  0  0  0  0  0  0  0
   -6.9109    9.3425  -35.3355 H   0  0  0  0  0  0  0  0  0  0  0  0
   -7.1237    3.9376  -34.6505 H   0  0  0  0  0  0  0  0  0  0  0  0
  1  4  1  0  0  0  0
  1  6  1  0  0  0  0
  1  7  2  0  0  0  0
  2  3  1  0  0  0  0
  2  4  1  0  0  0  0
  3  5  1  0  0  0  0
  4  5  1  0  0  0  0
  5  8  1  0  0  0  0
  2  9  1  0  0  0  0
  2 10  1  0  0  0  0
  3 11  1  0  0  0  0
  3 12  1  0  0  0  0
  4 13  1  0  0  0  0
  5 14  1  0  0  0  0
  6 15  1  0  0  0  0
  6 16  1  0  0  0  0
  6 17  1  0  0  0  0
  8 18  1  0  0  0  0
M  END
> <id>
EN300-1636494

> <smiles>
CC(=O)C1CCC1O

> <MDLNUMBER>
MFCD32761425

> <IUPAC Name>
1-(2-hydroxycyclobutyl)ethan-1-one

> <CAS>
2171971-34-7

> <URL>
https://www.enaminestore.com/catalog/EN300-1636494

> <ROCS_ShapeQuery>
hit0

> <ROCS_TanimotoCombo>
0.997 

> <ROCS_ShapeTanimoto>
0.574 

> <ROCS_ColorTanimoto>
0.423 

> <ROCS_RefTversky>
1.325 

> <ROCS_RefColorTversky>
0.504 

> <ROCS_RefTverskyCombo>
1.829 

> <ROCS_FitTversky>
0.503 

> <ROCS_FitColorTversky>
0.725 

> <ROCS_FitTverskyCombo>
1.228 

> <ROCS_ColorScore>
-2.973

> <ROCS_Overlap>
158.076

> <ROCS_Rank>
340                 

$$$$
untitled-dbase-170327_5
  -OEChem-06232314393D

 17 17  0     1  0  0  0  0  0999 V2000
   -6.5114    5.9953  -34.8604 C   0  0  0  0  0  0  0  0  0  0  0  0
   -6.2264    5.9854  -36.3332 C   0  0  0  0  0  0  0  0  0  0  0  0
   -6.7596    4.6053  -34.3430 C   0  0  0  0  0  0  0  0  0  0  0  0
   -5.9855    4.4947  -36.5549 C   0  0  2  0  0  0  0  0  0  0  0  0
   -6.3103    4.0517  -37.9719 C   0  0  0  0  0  0  0  0  0  0  0  0
   -6.8651    3.8361  -35.5807 N   0  0  0  0  0  0  0  0  0  0  0  0
   -6.5423    7.0044  -34.1696 O   0  0  0  0  0  0  0  0  0  0  0  0
   -5.4961    4.7799  -38.8758 O   0  0  0  0  0  0  0  0  0  0  0  0
   -7.1046    6.3603  -36.8676 H   0  0  0  0  0  0  0  0  0  0  0  0
   -5.3393    6.5802  -36.5630 H   0  0  0  0  0  0  0  0  0  0  0  0
   -5.9048    4.2838  -33.7415 H   0  0  0  0  0  0  0  0  0  0  0  0
   -7.6893    4.5602  -33.7728 H   0  0  0  0  0  0  0  0  0  0  0  0
   -4.9404    4.2478  -36.3250 H   0  0  0  0  0  0  0  0  0  0  0  0
   -7.3600    4.2501  -38.1986 H   0  0  0  0  0  0  0  0  0  0  0  0
   -6.1084    2.9851  -38.0903 H   0  0  0  0  0  0  0  0  0  0  0  0
   -6.5868    2.8676  -35.4330 H   0  0  0  0  0  0  0  0  0  0  0  0
   -5.7246    4.4770  -39.7705 H   0  0  0  0  0  0  0  0  0  0  0  0
  1  2  1  0  0  0  0
  1  3  1  0  0  0  0
  1  7  2  0  0  0  0
  2  4  1  0  0  0  0
  3  6  1  0  0  0  0
  4  5  1  1  0  0  0
  4  6  1  0  0  0  0
  5  8  1  0  0  0  0
  2  9  1  0  0  0  0
  2 10  1  0  0  0  0
  3 11  1  0  0  0  0
  3 12  1  0  0  0  0
  4 13  1  0  0  0  0
  5 14  1  0  0  0  0
  5 15  1  0  0  0  0
  6 16  1  0  0  0  0
  8 17  1  0  0  0  0
M  END
> <id>
EN300-26672996

> <smiles>
OC[C@H]1CC(=O)CN1

> <IUPAC Name>
(5R)-5-(hydroxymethyl)pyrrolidin-3-one

> <CAS>
2763887-24-5

> <URL>
https://www.enaminestore.com/catalog/EN300-26672996

> <ROCS_ShapeQuery>
hit0

> <ROCS_TanimotoCombo>
0.997 

> <ROCS_ShapeTanimoto>
0.507 

> <ROCS_ColorTanimoto>
0.490 

> <ROCS_RefTversky>
1.240 

> <ROCS_RefColorTversky>
0.658 

> <ROCS_RefTverskyCombo>
1.898 

> <ROCS_FitTversky>
0.461 

> <ROCS_FitColorTversky>
0.658 

> <ROCS_FitTverskyCombo>
1.119 

> <ROCS_ColorScore>
-3.947

> <ROCS_Overlap>
148.411

> <ROCS_Rank>
341                 

$$$$
untitled-dbase-79023_54
  -OEChem-06232314393D

 22 22  0     1  0  0  0  0  0999 V2000
   -7.9282    4.7718  -34.9561 C   0  0  0  0  0  0  0  0  0  0  0  0
   -5.6419    4.5633  -35.8669 C   0  0  0  0  0  0  0  0  0  0  0  0
   -7.4687    5.8678  -33.9895 C   0  0  0  0  0  0  0  0  0  0  0  0
   -6.5096    7.0008  -35.8795 C   0  0  0  0  0  0  0  0  0  0  0  0
   -5.7685    5.8887  -36.6447 C   0  0  2  0  0  0  0  0  0  0  0  0
   -6.3645    5.6962  -38.0393 C   0  0  0  0  0  0  0  0  0  0  0  0
   -6.8824    3.8981  -35.4764 N   0  0  0  0  0  0  0  0  0  0  0  0
   -6.4731    6.7693  -34.4765 O   0  0  0  0  0  0  0  0  0  0  0  0
   -5.5141    4.8358  -38.7715 O   0  0  0  0  0  0  0  0  0  0  0  0
   -8.6546    4.1367  -34.4415 H   0  0  0  0  0  0  0  0  0  0  0  0
   -8.4616    5.2375  -35.7882 H   0  0  0  0  0  0  0  0  0  0  0  0
   -4.9572    3.8490  -36.3997 H   0  0  0  0  0  0  0  0  0  0  0  0
   -5.0899    4.7696  -34.9157 H   0  0  0  0  0  0  0  0  0  0  0  0
   -8.3474    6.4332  -33.5885 H   0  0  0  0  0  0  0  0  0  0  0  0
   -7.0379    5.3757  -33.0870 H   0  0  0  0  0  0  0  0  0  0  0  0
   -6.0009    7.9446  -36.0568 H   0  0  0  0  0  0  0  0  0  0  0  0
   -7.5345    7.1095  -36.2218 H   0  0  0  0  0  0  0  0  0  0  0  0
   -4.7184    6.2684  -36.7957 H   0  0  0  0  0  0  0  0  0  0  0  0
   -6.4322    6.6575  -38.5444 H   0  0  0  0  0  0  0  0  0  0  0  0
   -7.3525    5.2482  -37.9568 H   0  0  0  0  0  0  0  0  0  0  0  0
   -6.6769    3.1668  -34.7946 H   0  0  0  0  0  0  0  0  0  0  0  0
   -5.9083    4.7250  -39.6542 H   0  0  0  0  0  0  0  0  0  0  0  0
  1  3  1  0  0  0  0
  1  7  1  0  0  0  0
  2  5  1  0  0  0  0
  2  7  1  0  0  0  0
  3  8  1  0  0  0  0
  4  5  1  0  0  0  0
  4  8  1  0  0  0  0
  5  6  1  0  0  0  0
  6  9  1  0  0  0  0
  1 10  1  0  0  0  0
  1 11  1  0  0  0  0
  2 12  1  0  0  0  0
  2 13  1  0  0  0  0
  3 14  1  0  0  0  0
  3 15  1  0  0  0  0
  4 16  1  0  0  0  0
  4 17  1  0  0  0  0
  5 18  1  0  0  0  0
  6 19  1  0  0  0  0
  6 20  1  0  0  0  0
  7 21  1  0  0  0  0
  9 22  1  0  0  0  0
M  END
> <id>
EN300-304073

> <smiles>
OCC1CNCCOC1

> <MDLNUMBER>
MFCD28133023

> <IUPAC Name>
(1,4-oxazepan-6-yl)methanol

> <CAS>
934832-10-7

> <URL>
https://www.enaminestore.com/catalog/EN300-304073

> <ROCS_ShapeQuery>
hit0

> <ROCS_TanimotoCombo>
0.996 

> <ROCS_ShapeTanimoto>
0.507 

> <ROCS_ColorTanimoto>
0.489 

> <ROCS_RefTversky>
1.311 

> <ROCS_RefColorTversky>
0.657 

> <ROCS_RefTverskyCombo>
1.969 

> <ROCS_FitTversky>
0.453 

> <ROCS_FitColorTversky>
0.657 

> <ROCS_FitTverskyCombo>
1.110 

> <ROCS_ColorScore>
-3.943

> <ROCS_Overlap>
158.989

> <ROCS_Rank>
342                 

$$$$
untitled-dbase-79182_54
  -OEChem-06232314393D

 22 22  0     1  0  0  0  0  0999 V2000
   -7.9282    4.7718  -34.9561 C   0  0  0  0  0  0  0  0  0  0  0  0
   -5.6419    4.5633  -35.8669 C   0  0  0  0  0  0  0  0  0  0  0  0
   -7.4687    5.8678  -33.9895 C   0  0  0  0  0  0  0  0  0  0  0  0
   -6.5096    7.0008  -35.8795 C   0  0  0  0  0  0  0  0  0  0  0  0
   -5.7685    5.8887  -36.6447 C   0  0  2  0  0  0  0  0  0  0  0  0
   -6.3645    5.6962  -38.0393 C   0  0  0  0  0  0  0  0  0  0  0  0
   -6.8824    3.8981  -35.4764 N   0  0  0  0  0  0  0  0  0  0  0  0
   -6.4731    6.7693  -34.4765 O   0  0  0  0  0  0  0  0  0  0  0  0
   -5.5141    4.8358  -38.7715 O   0  0  0  0  0  0  0  0  0  0  0  0
   -8.6546    4.1367  -34.4415 H   0  0  0  0  0  0  0  0  0  0  0  0
   -8.4616    5.2375  -35.7882 H   0  0  0  0  0  0  0  0  0  0  0  0
   -4.9572    3.8490  -36.3997 H   0  0  0  0  0  0  0  0  0  0  0  0
   -5.0899    4.7696  -34.9157 H   0  0  0  0  0  0  0  0  0  0  0  0
   -8.3474    6.4332  -33.5885 H   0  0  0  0  0  0  0  0  0  0  0  0
   -7.0379    5.3757  -33.0870 H   0  0  0  0  0  0  0  0  0  0  0  0
   -6.0009    7.9446  -36.0568 H   0  0  0  0  0  0  0  0  0  0  0  0
   -7.5345    7.1095  -36.2218 H   0  0  0  0  0  0  0  0  0  0  0  0
   -4.7184    6.2684  -36.7957 H   0  0  0  0  0  0  0  0  0  0  0  0
   -6.4322    6.6575  -38.5444 H   0  0  0  0  0  0  0  0  0  0  0  0
   -7.3525    5.2482  -37.9568 H   0  0  0  0  0  0  0  0  0  0  0  0
   -6.6769    3.1668  -34.7946 H   0  0  0  0  0  0  0  0  0  0  0  0
   -5.9083    4.7250  -39.6542 H   0  0  0  0  0  0  0  0  0  0  0  0
  1  3  1  0  0  0  0
  1  7  1  0  0  0  0
  2  5  1  0  0  0  0
  2  7  1  0  0  0  0
  3  8  1  0  0  0  0
  4  5  1  0  0  0  0
  4  8  1  0  0  0  0
  5  6  1  0  0  0  0
  6  9  1  0  0  0  0
  1 10  1  0  0  0  0
  1 11  1  0  0  0  0
  2 12  1  0  0  0  0
  2 13  1  0  0  0  0
  3 14  1  0  0  0  0
  3 15  1  0  0  0  0
  4 16  1  0  0  0  0
  4 17  1  0  0  0  0
  5 18  1  0  0  0  0
  6 19  1  0  0  0  0
  6 20  1  0  0  0  0
  7 21  1  0  0  0  0
  9 22  1  0  0  0  0
M  END
> <id>
EN300-6478054

> <smiles>
Cl.OCC1CNCCOC1

> <MDLNUMBER>
MFCD31667285

> <IUPAC Name>
(1,4-oxazepan-6-yl)methanol hydrochloride

> <CAS>
2241142-57-2

> <Purity>
95

> <URL>
https://www.enaminestore.com/catalog/EN300-6478054

> <Saltdate>
Cl

> <ROCS_ShapeQuery>
hit0

> <ROCS_TanimotoCombo>
0.996 

> <ROCS_ShapeTanimoto>
0.507 

> <ROCS_ColorTanimoto>
0.489 

> <ROCS_RefTversky>
1.311 

> <ROCS_RefColorTversky>
0.657 

> <ROCS_RefTverskyCombo>
1.969 

> <ROCS_FitTversky>
0.453 

> <ROCS_FitColorTversky>
0.657 

> <ROCS_FitTverskyCombo>
1.110 

> <ROCS_ColorScore>
-3.943

> <ROCS_Overlap>
158.989

> <ROCS_Rank>
343                 

$$$$
untitled-dbase-167428_0
  -OEChem-06232314393D

 22 22  0     1  0  0  0  0  0999 V2000
   -5.7208    6.2008  -36.9391 C   0  0  0  0  0  0  0  0  0  0  0  0
   -7.0615    4.1913  -37.1719 C   0  0  0  0  0  0  0  0  0  0  0  0
   -6.4287    5.3289  -37.9699 C   0  0  2  0  0  0  0  0  0  0  0  0
   -5.6028    5.2969  -35.7127 C   0  0  1  0  0  0  0  0  0  0  0  0
   -6.9261    3.4113  -34.8840 C   0  0  0  0  0  0  0  0  0  0  0  0
   -5.4118    6.1048  -34.4356 C   0  0  0  0  0  0  0  0  0  0  0  0
   -6.8781    4.5709  -35.7653 N   0  0  2  0  0  0  0  0  0  0  0  0
   -5.4851    4.7906  -38.8870 O   0  0  0  0  0  0  0  0  0  0  0  0
   -6.5248    6.9660  -34.2738 O   0  0  0  0  0  0  0  0  0  0  0  0
   -4.7410    6.5546  -37.2762 H   0  0  0  0  0  0  0  0  0  0  0  0
   -6.3454    7.0745  -36.7120 H   0  0  0  0  0  0  0  0  0  0  0  0
   -8.1291    4.1013  -37.3987 H   0  0  0  0  0  0  0  0  0  0  0  0
   -6.5795    3.2339  -37.4084 H   0  0  0  0  0  0  0  0  0  0  0  0
   -7.1707    5.9060  -38.5317 H   0  0  0  0  0  0  0  0  0  0  0  0
   -4.7547    4.6117  -35.8474 H   0  0  0  0  0  0  0  0  0  0  0  0
   -6.7852    3.7356  -33.8424 H   0  0  0  0  0  0  0  0  0  0  0  0
   -7.9026    2.9148  -34.9845 H   0  0  0  0  0  0  0  0  0  0  0  0
   -6.1269    2.7077  -35.1602 H   0  0  0  0  0  0  0  0  0  0  0  0
   -4.5022    6.7028  -34.5037 H   0  0  0  0  0  0  0  0  0  0  0  0
   -5.3472    5.4365  -33.5760 H   0  0  0  0  0  0  0  0  0  0  0  0
   -5.9856    4.2475  -39.5171 H   0  0  0  0  0  0  0  0  0  0  0  0
   -7.3150    6.4025  -34.2159 H   0  0  0  0  0  0  0  0  0  0  0  0
  1  3  1  0  0  0  0
  1  4  1  0  0  0  0
  2  3  1  0  0  0  0
  2  7  1  0  0  0  0
  3  8  1  6  0  0  0
  4  6  1  1  0  0  0
  4  7  1  0  0  0  0
  5  7  1  0  0  0  0
  6  9  1  0  0  0  0
  1 10  1  0  0  0  0
  1 11  1  0  0  0  0
  2 12  1  0  0  0  0
  2 13  1  0  0  0  0
  3 14  1  0  0  0  0
  4 15  1  0  0  0  0
  5 16  1  0  0  0  0
  5 17  1  0  0  0  0
  5 18  1  0  0  0  0
  6 19  1  0  0  0  0
  6 20  1  0  0  0  0
  8 21  1  0  0  0  0
  9 22  1  0  0  0  0
M  END
> <id>
EN300-6473146

> <smiles>
CN1C[C@H](O)C[C@H]1CO

> <MDLNUMBER>
MFCD14636521

> <IUPAC Name>
(3R,5S)-5-(hydroxymethyl)-1-methylpyrrolidin-3-ol

> <CAS>
107797-60-4

> <Purity>
95

> <URL>
https://www.enaminestore.com/catalog/EN300-6473146

> <ROCS_ShapeQuery>
hit0

> <ROCS_TanimotoCombo>
0.996 

> <ROCS_ShapeTanimoto>
0.502 

> <ROCS_ColorTanimoto>
0.494 

> <ROCS_RefTversky>
1.320 

> <ROCS_RefColorTversky>
0.662 

> <ROCS_RefTverskyCombo>
1.982 

> <ROCS_FitTversky>
0.448 

> <ROCS_FitColorTversky>
0.662 

> <ROCS_FitTverskyCombo>
1.109 

> <ROCS_ColorScore>
-3.969

> <ROCS_Overlap>
160.606

> <ROCS_Rank>
344                 

$$$$
untitled-dbase-71462_37
  -OEChem-06232314393D

 20 20  0     1  0  0  0  0  0999 V2000
   -7.5755    5.9947  -34.9176 C   0  0  0  0  0  0  0  0  0  0  0  0
   -7.4930    7.3667  -35.1545 C   0  0  0  0  0  0  0  0  0  0  0  0
   -5.8968    6.9653  -36.9232 C   0  0  0  0  0  0  0  0  0  0  0  0
   -5.9793    5.5932  -36.6862 C   0  0  0  0  0  0  0  0  0  0  0  0
   -6.8186    5.1079  -35.6835 C   0  0  0  0  0  0  0  0  0  0  0  0
   -6.6536    7.8521  -36.1573 C   0  0  0  0  0  0  0  0  0  0  0  0
   -5.4012    3.1881  -37.1720 C   0  0  0  0  0  0  0  0  0  0  0  0
   -5.1604    4.6586  -37.5141 C   0  0  1  0  0  0  0  0  0  0  0  0
   -6.9107    3.7707  -35.4391 O   0  0  0  0  0  0  0  0  0  0  0  0
   -5.4854    4.8512  -38.8950 O   0  0  0  0  0  0  0  0  0  0  0  0
   -6.5514    9.5447  -36.4500 Cl  0  0  0  0  0  0  0  0  0  0  0  0
   -8.2314    5.6224  -34.1354 H   0  0  0  0  0  0  0  0  0  0  0  0
   -8.0875    8.0462  -34.5493 H   0  0  0  0  0  0  0  0  0  0  0  0
   -5.2407    7.3389  -37.7063 H   0  0  0  0  0  0  0  0  0  0  0  0
   -6.4623    2.9320  -37.2549 H   0  0  0  0  0  0  0  0  0  0  0  0
   -5.0677    2.9549  -36.1546 H   0  0  0  0  0  0  0  0  0  0  0  0
   -4.8313    2.5346  -37.8416 H   0  0  0  0  0  0  0  0  0  0  0  0
   -4.0809    4.8603  -37.4148 H   0  0  0  0  0  0  0  0  0  0  0  0
   -7.5340    3.6047  -34.7146 H   0  0  0  0  0  0  0  0  0  0  0  0
   -6.4304    4.6592  -38.9791 H   0  0  0  0  0  0  0  0  0  0  0  0
  1  2  1  0  0  0  0
  1  5  2  0  0  0  0
  2  6  2  0  0  0  0
  3  4  2  0  0  0  0
  3  6  1  0  0  0  0
  4  5  1  0  0  0  0
  4  8  1  0  0  0  0
  5  9  1  0  0  0  0
  6 11  1  0  0  0  0
  7  8  1  1  0  0  0
  8 10  1  0  0  0  0
  1 12  1  0  0  0  0
  2 13  1  0  0  0  0
  3 14  1  0  0  0  0
  7 15  1  0  0  0  0
  7 16  1  0  0  0  0
  7 17  1  0  0  0  0
  8 18  1  0  0  0  0
  9 19  1  0  0  0  0
 10 20  1  0  0  0  0
M  END
> <id>
EN300-2003779

> <smiles>
C[C@@H](O)C=1C=C(Cl)C=CC1O

> <MDLNUMBER>
MFCD18339907

> <IUPAC Name>
4-chloro-2-[(1R)-1-hydroxyethyl]phenol

> <CAS>
1344958-56-0

> <URL>
https://www.enaminestore.com/catalog/EN300-2003779

> <ROCS_ShapeQuery>
hit0

> <ROCS_TanimotoCombo>
0.996 

> <ROCS_ShapeTanimoto>
0.436 

> <ROCS_ColorTanimoto>
0.560 

> <ROCS_RefTversky>
1.381 

> <ROCS_RefColorTversky>
0.664 

> <ROCS_RefTverskyCombo>
2.045 

> <ROCS_FitTversky>
0.389 

> <ROCS_FitColorTversky>
0.782 

> <ROCS_FitTverskyCombo>
1.171 

> <ROCS_ColorScore>
-3.954

> <ROCS_Overlap>
174.426

> <ROCS_Rank>
345                 

$$$$
untitled-dbase-13095_0
  -OEChem-06232314393D

 14 14  0     0  0  0  0  0  0999 V2000
   -7.1545    3.7982  -35.6647 C   0  0  0  0  0  0  0  0  0  0  0  0
   -6.3397    4.8923  -35.4619 C   0  0  0  0  0  0  0  0  0  0  0  0
   -5.9888    4.6134  -37.6088 C   0  0  0  0  0  0  0  0  0  0  0  0
   -6.1342    5.5878  -34.1759 C   0  0  0  0  0  0  0  0  0  0  0  0
   -5.6701    5.3609  -36.5754 N   0  0  0  0  0  0  0  0  0  0  0  0
   -5.5055    4.7986  -38.8661 N   0  0  0  0  0  0  0  0  0  0  0  0
   -6.5328    6.9536  -34.2913 O   0  0  0  0  0  0  0  0  0  0  0  0
   -7.0889    3.3298  -37.3133 S   0  0  0  0  0  0  0  0  0  0  0  0
   -7.7691    3.2692  -34.9501 H   0  0  0  0  0  0  0  0  0  0  0  0
   -6.7184    5.1308  -33.3579 H   0  0  0  0  0  0  0  0  0  0  0  0
   -5.0765    5.5653  -33.8599 H   0  0  0  0  0  0  0  0  0  0  0  0
   -4.8836    5.5817  -39.0941 H   0  0  0  0  0  0  0  0  0  0  0  0
   -5.8176    4.2202  -39.6535 H   0  0  0  0  0  0  0  0  0  0  0  0
   -5.9788    7.3430  -34.9846 H   0  0  0  0  0  0  0  0  0  0  0  0
  1  2  2  0  0  0  0
  1  8  1  0  0  0  0
  2  4  1  0  0  0  0
  2  5  1  0  0  0  0
  3  5  2  0  0  0  0
  3  6  1  0  0  0  0
  3  8  1  0  0  0  0
  4  7  1  0  0  0  0
  1  9  1  0  0  0  0
  4 10  1  0  0  0  0
  4 11  1  0  0  0  0
  6 12  1  0  0  0  0
  6 13  1  0  0  0  0
  7 14  1  0  0  0  0
M  END
> <id>
EN300-212127

> <smiles>
Cl.NC1=NC(CO)=CS1

> <MDLNUMBER>
MFCD00274533

> <IUPAC Name>
(2-amino-1,3-thiazol-4-yl)methanol hydrochloride

> <CAS>
372509-58-5

> <Purity>
95

> <URL>
https://www.enaminestore.com/catalog/EN300-212127

> <Saltdate>
Cl

> <MP>
161-165

> <ROCS_ShapeQuery>
hit0

> <ROCS_TanimotoCombo>
0.996 

> <ROCS_ShapeTanimoto>
0.498 

> <ROCS_ColorTanimoto>
0.499 

> <ROCS_RefTversky>
1.211 

> <ROCS_RefColorTversky>
0.666 

> <ROCS_RefTverskyCombo>
1.877 

> <ROCS_FitTversky>
0.458 

> <ROCS_FitColorTversky>
0.665 

> <ROCS_FitTverskyCombo>
1.123 

> <ROCS_ColorScore>
-3.995

> <ROCS_Overlap>
144.589

> <ROCS_Rank>
346                 

$$$$
untitled-dbase-13223_0
  -OEChem-06232314393D

 14 14  0     0  0  0  0  0  0999 V2000
   -7.1545    3.7982  -35.6647 C   0  0  0  0  0  0  0  0  0  0  0  0
   -6.3397    4.8923  -35.4619 C   0  0  0  0  0  0  0  0  0  0  0  0
   -5.9888    4.6134  -37.6088 C   0  0  0  0  0  0  0  0  0  0  0  0
   -6.1342    5.5878  -34.1759 C   0  0  0  0  0  0  0  0  0  0  0  0
   -5.6701    5.3609  -36.5754 N   0  0  0  0  0  0  0  0  0  0  0  0
   -5.5055    4.7986  -38.8661 N   0  0  0  0  0  0  0  0  0  0  0  0
   -6.5328    6.9536  -34.2913 O   0  0  0  0  0  0  0  0  0  0  0  0
   -7.0889    3.3298  -37.3133 S   0  0  0  0  0  0  0  0  0  0  0  0
   -7.7691    3.2692  -34.9501 H   0  0  0  0  0  0  0  0  0  0  0  0
   -6.7184    5.1308  -33.3579 H   0  0  0  0  0  0  0  0  0  0  0  0
   -5.0765    5.5653  -33.8599 H   0  0  0  0  0  0  0  0  0  0  0  0
   -4.8836    5.5817  -39.0941 H   0  0  0  0  0  0  0  0  0  0  0  0
   -5.8176    4.2202  -39.6535 H   0  0  0  0  0  0  0  0  0  0  0  0
   -5.9788    7.3430  -34.9846 H   0  0  0  0  0  0  0  0  0  0  0  0
  1  2  2  0  0  0  0
  1  8  1  0  0  0  0
  2  4  1  0  0  0  0
  2  5  1  0  0  0  0
  3  5  2  0  0  0  0
  3  6  1  0  0  0  0
  3  8  1  0  0  0  0
  4  7  1  0  0  0  0
  1  9  1  0  0  0  0
  4 10  1  0  0  0  0
  4 11  1  0  0  0  0
  6 12  1  0  0  0  0
  6 13  1  0  0  0  0
  7 14  1  0  0  0  0
M  END
> <id>
EN300-212128

> <smiles>
NC1=NC(CO)=CS1

> <MDLNUMBER>
MFCD08275702

> <IUPAC Name>
(2-amino-1,3-thiazol-4-yl)methanol

> <CAS>
51307-43-8

> <URL>
https://www.enaminestore.com/catalog/EN300-212128

> <ROCS_ShapeQuery>
hit0

> <ROCS_TanimotoCombo>
0.996 

> <ROCS_ShapeTanimoto>
0.498 

> <ROCS_ColorTanimoto>
0.499 

> <ROCS_RefTversky>
1.211 

> <ROCS_RefColorTversky>
0.666 

> <ROCS_RefTverskyCombo>
1.877 

> <ROCS_FitTversky>
0.458 

> <ROCS_FitColorTversky>
0.665 

> <ROCS_FitTverskyCombo>
1.123 

> <ROCS_ColorScore>
-3.995

> <ROCS_Overlap>
144.589

> <ROCS_Rank>
347                 

$$$$
untitled-dbase-69520_37
  -OEChem-06232314393D

 20 20  0     1  0  0  0  0  0999 V2000
   -7.5762    5.9945  -34.9166 C   0  0  0  0  0  0  0  0  0  0  0  0
   -7.4878    7.3669  -35.1499 C   0  0  0  0  0  0  0  0  0  0  0  0
   -5.8909    6.9636  -36.9174 C   0  0  0  0  0  0  0  0  0  0  0  0
   -5.9792    5.5912  -36.6841 C   0  0  0  0  0  0  0  0  0  0  0  0
   -6.8218    5.1067  -35.6836 C   0  0  0  0  0  0  0  0  0  0  0  0
   -6.6452    7.8514  -36.1503 C   0  0  0  0  0  0  0  0  0  0  0  0
   -5.4109    3.1852  -37.1770 C   0  0  0  0  0  0  0  0  0  0  0  0
   -5.1642    4.6557  -37.5149 C   0  0  1  0  0  0  0  0  0  0  0  0
   -6.9188    3.7694  -35.4412 O   0  0  0  0  0  0  0  0  0  0  0  0
   -5.4888    4.8537  -38.8951 O   0  0  0  0  0  0  0  0  0  0  0  0
   -6.5600    9.1693  -36.3747 F   0  0  0  0  0  0  0  0  0  0  0  0
   -8.2336    5.6238  -34.1349 H   0  0  0  0  0  0  0  0  0  0  0  0
   -8.0749    8.0577  -34.5524 H   0  0  0  0  0  0  0  0  0  0  0  0
   -5.2367    7.3518  -37.6933 H   0  0  0  0  0  0  0  0  0  0  0  0
   -6.4730    2.9336  -37.2603 H   0  0  0  0  0  0  0  0  0  0  0  0
   -5.0781    2.9478  -36.1602 H   0  0  0  0  0  0  0  0  0  0  0  0
   -4.8437    2.5313  -37.8485 H   0  0  0  0  0  0  0  0  0  0  0  0
   -4.0839    4.8528  -37.4152 H   0  0  0  0  0  0  0  0  0  0  0  0
   -7.5432    3.6047  -34.7174 H   0  0  0  0  0  0  0  0  0  0  0  0
   -6.4346    4.6657  -38.9795 H   0  0  0  0  0  0  0  0  0  0  0  0
  1  2  1  0  0  0  0
  1  5  2  0  0  0  0
  2  6  2  0  0  0  0
  3  4  2  0  0  0  0
  3  6  1  0  0  0  0
  4  5  1  0  0  0  0
  4  8  1  0  0  0  0
  5  9  1  0  0  0  0
  6 11  1  0  0  0  0
  7  8  1  1  0  0  0
  8 10  1  0  0  0  0
  1 12  1  0  0  0  0
  2 13  1  0  0  0  0
  3 14  1  0  0  0  0
  7 15  1  0  0  0  0
  7 16  1  0  0  0  0
  7 17  1  0  0  0  0
  8 18  1  0  0  0  0
  9 19  1  0  0  0  0
 10 20  1  0  0  0  0
M  END
> <id>
EN300-1843084

> <smiles>
C[C@@H](O)C=1C=C(F)C=CC1O

> <MDLNUMBER>
MFCD23825580

> <IUPAC Name>
4-fluoro-2-[(1R)-1-hydroxyethyl]phenol

> <CAS>
156597-63-6

> <URL>
https://www.enaminestore.com/catalog/EN300-1843084

> <ROCS_ShapeQuery>
hit0

> <ROCS_TanimotoCombo>
0.996 

> <ROCS_ShapeTanimoto>
0.435 

> <ROCS_ColorTanimoto>
0.561 

> <ROCS_RefTversky>
1.394 

> <ROCS_RefColorTversky>
0.664 

> <ROCS_RefTverskyCombo>
2.059 

> <ROCS_FitTversky>
0.387 

> <ROCS_FitColorTversky>
0.783 

> <ROCS_FitTverskyCombo>
1.170 

> <ROCS_ColorScore>
-3.954

> <ROCS_Overlap>
176.752

> <ROCS_Rank>
348                 

$$$$
untitled-dbase-71136_1
  -OEChem-06232314393D

 23 23  0     0  0  0  0  0  0999 V2000
   -6.8385    3.5009  -34.6642 C   0  0  0  0  0  0  0  0  0  0  0  0
   -6.7219    4.7254  -34.0262 C   0  0  0  0  0  0  0  0  0  0  0  0
   -6.6100    5.7431  -36.2025 C   0  0  0  0  0  0  0  0  0  0  0  0
   -6.6059    5.8629  -34.8172 C   0  0  0  0  0  0  0  0  0  0  0  0
   -6.7315    4.4731  -36.7430 C   0  0  0  0  0  0  0  0  0  0  0  0
   -6.7238    4.7901  -32.5375 C   0  0  0  0  0  0  0  0  0  0  0  0
   -6.4875    6.9431  -37.0818 C   0  0  0  0  0  0  0  0  0  0  0  0
   -6.7419    4.2813  -38.2245 C   0  0  0  0  0  0  0  0  0  0  0  0
   -6.8463    3.3449  -36.0070 N   0  0  0  0  0  0  0  0  0  0  0  0
   -6.4845    7.1351  -34.2137 N   0  0  0  0  0  0  0  0  0  0  0  0
   -5.5246    4.7720  -38.7705 O   0  0  0  0  0  0  0  0  0  0  0  0
   -6.9322    2.5781  -34.0998 H   0  0  0  0  0  0  0  0  0  0  0  0
   -5.7010    4.7063  -32.1489 H   0  0  0  0  0  0  0  0  0  0  0  0
   -7.1548    5.7345  -32.1790 H   0  0  0  0  0  0  0  0  0  0  0  0
   -7.3273    3.9818  -32.1031 H   0  0  0  0  0  0  0  0  0  0  0  0
   -5.4329    7.1487  -37.3004 H   0  0  0  0  0  0  0  0  0  0  0  0
   -7.0184    6.7960  -38.0307 H   0  0  0  0  0  0  0  0  0  0  0  0
   -6.9248    7.8301  -36.6062 H   0  0  0  0  0  0  0  0  0  0  0  0
   -6.8444    3.2206  -38.4882 H   0  0  0  0  0  0  0  0  0  0  0  0
   -7.5800    4.8195  -38.6859 H   0  0  0  0  0  0  0  0  0  0  0  0
   -6.3548    7.9370  -34.7944 H   0  0  0  0  0  0  0  0  0  0  0  0
   -6.4362    7.1967  -33.2182 H   0  0  0  0  0  0  0  0  0  0  0  0
   -5.5706    4.6298  -39.7297 H   0  0  0  0  0  0  0  0  0  0  0  0
  1  2  2  0  0  0  0
  1  9  1  0  0  0  0
  2  4  1  0  0  0  0
  2  6  1  0  0  0  0
  3  4  2  0  0  0  0
  3  5  1  0  0  0  0
  3  7  1  0  0  0  0
  4 10  1  0  0  0  0
  5  8  1  0  0  0  0
  5  9  2  0  0  0  0
  8 11  1  0  0  0  0
  1 12  1  0  0  0  0
  6 13  1  0  0  0  0
  6 14  1  0  0  0  0
  6 15  1  0  0  0  0
  7 16  1  0  0  0  0
  7 17  1  0  0  0  0
  7 18  1  0  0  0  0
  8 19  1  0  0  0  0
  8 20  1  0  0  0  0
 10 21  1  0  0  0  0
 10 22  1  0  0  0  0
 11 23  1  0  0  0  0
M  END
> <id>
EN300-4440258

> <smiles>
CC=1C=NC(CO)=C(C)C1N

> <MDLNUMBER>
MFCD30076126

> <IUPAC Name>
(4-amino-3,5-dimethylpyridin-2-yl)methanol

> <CAS>
1511938-13-8

> <Purity>
95

> <URL>
https://www.enaminestore.com/catalog/EN300-4440258

> <ROCS_ShapeQuery>
hit0

> <ROCS_TanimotoCombo>
0.996 

> <ROCS_ShapeTanimoto>
0.392 

> <ROCS_ColorTanimoto>
0.604 

> <ROCS_RefTversky>
1.295 

> <ROCS_RefColorTversky>
0.753 

> <ROCS_RefTverskyCombo>
2.048 

> <ROCS_FitTversky>
0.360 

> <ROCS_FitColorTversky>
0.753 

> <ROCS_FitTverskyCombo>
1.113 

> <ROCS_ColorScore>
-4.520

> <ROCS_Overlap>
164.145

> <ROCS_Rank>
349                 

$$$$
untitled-dbase-101584_6
  -OEChem-06232314393D

 13 13  0     0  0  0  0  0  0999 V2000
   -6.4276    4.0471  -36.6880 C   0  0  0  0  0  0  0  0  0  0  0  0
   -5.8962    4.9513  -37.5837 C   0  0  0  0  0  0  0  0  0  0  0  0
   -6.4234    5.8227  -35.4007 C   0  0  0  0  0  0  0  0  0  0  0  0
   -6.2499    7.9547  -34.3613 C   0  0  0  0  0  0  0  0  0  0  0  0
   -6.7301    4.5449  -35.4356 N   0  0  0  0  0  0  0  0  0  0  0  0
   -5.5156    4.7593  -38.8408 O   0  0  0  0  0  0  0  0  0  0  0  0
   -6.6143    6.5596  -34.3139 O   0  0  0  0  0  0  0  0  0  0  0  0
   -5.7674    6.4908  -36.8389 S   0  0  0  0  0  0  0  0  0  0  0  0
   -6.6152    3.0024  -36.8976 H   0  0  0  0  0  0  0  0  0  0  0  0
   -6.4659    8.4214  -33.3971 H   0  0  0  0  0  0  0  0  0  0  0  0
   -6.8140    8.4528  -35.1538 H   0  0  0  0  0  0  0  0  0  0  0  0
   -5.1808    8.0359  -34.5714 H   0  0  0  0  0  0  0  0  0  0  0  0
   -5.1697    5.5818  -39.2524 H   0  0  0  0  0  0  0  0  0  0  0  0
  1  2  2  0  0  0  0
  1  5  1  0  0  0  0
  2  6  1  0  0  0  0
  2  8  1  0  0  0  0
  3  5  2  0  0  0  0
  3  7  1  0  0  0  0
  3  8  1  0  0  0  0
  4  7  1  0  0  0  0
  1  9  1  0  0  0  0
  4 10  1  0  0  0  0
  4 11  1  0  0  0  0
  4 12  1  0  0  0  0
  6 13  1  0  0  0  0
M  END
> <id>
EN300-1765284

> <smiles>
COC1=NC=C(O)S1

> <MDLNUMBER>
MFCD32735811

> <IUPAC Name>
2-methoxy-1,3-thiazol-5-ol

> <CAS>
1936659-75-4

> <URL>
https://www.enaminestore.com/catalog/EN300-1765284

> <ROCS_ShapeQuery>
hit0

> <ROCS_TanimotoCombo>
0.996 

> <ROCS_ShapeTanimoto>
0.545 

> <ROCS_ColorTanimoto>
0.451 

> <ROCS_RefTversky>
1.295 

> <ROCS_RefColorTversky>
0.575 

> <ROCS_RefTverskyCombo>
1.870 

> <ROCS_FitTversky>
0.485 

> <ROCS_FitColorTversky>
0.676 

> <ROCS_FitTverskyCombo>
1.161 

> <ROCS_ColorScore>
-3.422

> <ROCS_Overlap>
154.836

> <ROCS_Rank>
350                 

$$$$
untitled-dbase-9521_13
  -OEChem-06232314393D

 16 16  0     0  0  0  0  0  0999 V2000
   -6.2893    6.6740  -35.6101 C   0  0  0  0  0  0  0  0  0  0  0  0
   -7.3898    4.3469  -36.9686 C   0  0  0  0  0  0  0  0  0  0  0  0
   -5.4538    4.1914  -36.2081 C   0  0  0  0  0  0  0  0  0  0  0  0
   -6.0698    5.0700  -37.3202 C   0  0  0  0  0  0  0  0  0  0  0  0
   -6.0488    6.5677  -37.0441 C   0  0  0  0  0  0  0  0  0  0  0  0
   -6.4797    6.7879  -34.4710 N   0  0  0  0  0  0  0  0  0  0  0  0
   -6.8067    3.9406  -35.6757 N   0  0  0  0  0  0  0  0  0  0  0  0
   -5.5616    4.8131  -38.6457 O   0  0  0  0  0  0  0  0  0  0  0  0
   -8.2805    4.9777  -36.8861 H   0  0  0  0  0  0  0  0  0  0  0  0
   -7.6299    3.4988  -37.6209 H   0  0  0  0  0  0  0  0  0  0  0  0
   -4.9561    3.2842  -36.5707 H   0  0  0  0  0  0  0  0  0  0  0  0
   -4.7786    4.6973  -35.5110 H   0  0  0  0  0  0  0  0  0  0  0  0
   -6.8293    7.0448  -37.6269 H   0  0  0  0  0  0  0  0  0  0  0  0
   -5.0804    6.9653  -37.3278 H   0  0  0  0  0  0  0  0  0  0  0  0
   -7.0566    4.5686  -34.9112 H   0  0  0  0  0  0  0  0  0  0  0  0
   -5.4134    3.8605  -38.6859 H   0  0  0  0  0  0  0  0  0  0  0  0
  1  5  1  0  0  0  0
  1  6  3  0  0  0  0
  2  4  1  0  0  0  0
  2  7  1  0  0  0  0
  3  4  1  0  0  0  0
  3  7  1  0  0  0  0
  4  5  1  0  0  0  0
  4  8  1  0  0  0  0
  2  9  1  0  0  0  0
  2 10  1  0  0  0  0
  3 11  1  0  0  0  0
  3 12  1  0  0  0  0
  5 13  1  0  0  0  0
  5 14  1  0  0  0  0
  7 15  1  0  0  0  0
  8 16  1  0  0  0  0
M  END
> <id>
EN300-155823

> <smiles>
Cl.OC1(CC#N)CNC1

> <MDLNUMBER>
MFCD27920235

> <IUPAC Name>
2-(3-hydroxyazetidin-3-yl)acetonitrile hydrochloride

> <CAS>
1803604-94-5

> <Purity>
95

> <URL>
https://www.enaminestore.com/catalog/EN300-155823

> <Saltdate>
Cl

> <ROCS_ShapeQuery>
hit0

> <ROCS_TanimotoCombo>
0.996 

> <ROCS_ShapeTanimoto>
0.519 

> <ROCS_ColorTanimoto>
0.476 

> <ROCS_RefTversky>
1.255 

> <ROCS_RefColorTversky>
0.645 

> <ROCS_RefTverskyCombo>
1.901 

> <ROCS_FitTversky>
0.470 

> <ROCS_FitColorTversky>
0.645 

> <ROCS_FitTverskyCombo>
1.115 

> <ROCS_ColorScore>
-3.871

> <ROCS_Overlap>
150.104

> <ROCS_Rank>
351                 

$$$$
untitled-dbase-53620_25
  -OEChem-06232314393D

 25 26  0     1  0  0  0  0  0999 V2000
   -9.1232    8.4916  -37.0621 C   0  0  0  0  0  0  0  0  0  0  0  0
   -9.1278    8.9684  -35.7513 C   0  0  0  0  0  0  0  0  0  0  0  0
   -8.2335    7.4840  -37.4347 C   0  0  0  0  0  0  0  0  0  0  0  0
   -8.2426    8.4377  -34.8130 C   0  0  0  0  0  0  0  0  0  0  0  0
   -7.3482    6.9533  -36.4964 C   0  0  0  0  0  0  0  0  0  0  0  0
   -7.3528    7.4301  -35.1856 C   0  0  0  0  0  0  0  0  0  0  0  0
   -5.9333    5.9862  -38.3725 C   0  0  0  0  0  0  0  0  0  0  0  0
   -5.8804    3.7316  -37.8073 C   0  0  0  0  0  0  0  0  0  0  0  0
   -6.3897    5.8608  -36.9188 C   0  0  2  0  0  0  0  0  0  0  0  0
   -6.8858    4.4204  -36.9071 C   0  0  2  0  0  0  0  0  0  0  0  0
   -5.5031    4.6863  -38.8027 O   0  0  0  0  0  0  0  0  0  0  0  0
   -6.4942    6.9232  -34.2571 O   0  0  0  0  0  0  0  0  0  0  0  0
   -6.8670    3.8660  -35.6062 O   0  0  0  0  0  0  0  0  0  0  0  0
   -9.8120    8.9050  -37.7933 H   0  0  0  0  0  0  0  0  0  0  0  0
   -9.8201    9.7535  -35.4619 H   0  0  0  0  0  0  0  0  0  0  0  0
   -8.2368    7.1204  -38.4589 H   0  0  0  0  0  0  0  0  0  0  0  0
   -8.2508    8.8133  -33.7934 H   0  0  0  0  0  0  0  0  0  0  0  0
   -6.7073    6.3567  -39.0515 H   0  0  0  0  0  0  0  0  0  0  0  0
   -5.0653    6.6505  -38.4453 H   0  0  0  0  0  0  0  0  0  0  0  0
   -4.9848    3.3960  -37.2792 H   0  0  0  0  0  0  0  0  0  0  0  0
   -6.3321    2.8823  -38.3276 H   0  0  0  0  0  0  0  0  0  0  0  0
   -5.4614    5.9839  -36.2592 H   0  0  0  0  0  0  0  0  0  0  0  0
   -7.9200    4.3040  -37.3064 H   0  0  0  0  0  0  0  0  0  0  0  0
   -6.6273    7.3625  -33.4026 H   0  0  0  0  0  0  0  0  0  0  0  0
   -7.5292    4.3513  -35.0903 H   0  0  0  0  0  0  0  0  0  0  0  0
  1  2  2  0  0  0  0
  1  3  1  0  0  0  0
  2  4  1  0  0  0  0
  3  5  2  0  0  0  0
  4  6  2  0  0  0  0
  5  6  1  0  0  0  0
  5  9  1  1  0  0  0
  6 12  1  0  0  0  0
  7  9  1  0  0  0  0
  7 11  1  0  0  0  0
  8 10  1  0  0  0  0
  8 11  1  0  0  0  0
  9 10  1  0  0  0  0
 10 13  1  6  0  0  0
  1 14  1  0  0  0  0
  2 15  1  0  0  0  0
  3 16  1  0  0  0  0
  4 17  1  0  0  0  0
  7 18  1  0  0  0  0
  7 19  1  0  0  0  0
  8 20  1  0  0  0  0
  8 21  1  0  0  0  0
  9 22  1  0  0  0  0
 10 23  1  0  0  0  0
 12 24  1  0  0  0  0
 13 25  1  0  0  0  0
M  END
> <id>
EN300-1636529

> <smiles>
O[C@@H]1COC[C@H]1C=2C=CC=CC2O |&1:1,5,r|

> <IUPAC Name>
rac-(3R,4S)-4-(2-hydroxyphenyl)oxolan-3-ol

> <CAS>
2227701-65-5

> <URL>
https://www.enaminestore.com/catalog/EN300-1636529

> <ROCS_ShapeQuery>
hit0

> <ROCS_TanimotoCombo>
0.996 

> <ROCS_ShapeTanimoto>
0.380 

> <ROCS_ColorTanimoto>
0.616 

> <ROCS_RefTversky>
1.430 

> <ROCS_RefColorTversky>
0.819 

> <ROCS_RefTverskyCombo>
2.249 

> <ROCS_FitTversky>
0.341 

> <ROCS_FitColorTversky>
0.713 

> <ROCS_FitTverskyCombo>
1.054 

> <ROCS_ColorScore>
-4.955

> <ROCS_Overlap>
188.559

> <ROCS_Rank>
352                 

$$$$
untitled-dbase-68940_4
  -OEChem-06232314393D

 20 20  0     1  0  0  0  0  0999 V2000
   -7.6632    5.9676  -34.9507 C   0  0  0  0  0  0  0  0  0  0  0  0
   -7.6214    7.3435  -35.1760 C   0  0  0  0  0  0  0  0  0  0  0  0
   -5.9627    7.0106  -36.9009 C   0  0  0  0  0  0  0  0  0  0  0  0
   -6.0045    5.6346  -36.6755 C   0  0  0  0  0  0  0  0  0  0  0  0
   -6.8547    5.1132  -35.7004 C   0  0  0  0  0  0  0  0  0  0  0  0
   -6.7712    7.8650  -36.1511 C   0  0  0  0  0  0  0  0  0  0  0  0
   -3.6465    5.0758  -37.3658 C   0  0  0  0  0  0  0  0  0  0  0  0
   -5.1320    4.7352  -37.4874 C   0  0  2  0  0  0  0  0  0  0  0  0
   -6.9069    3.7719  -35.4660 O   0  0  0  0  0  0  0  0  0  0  0  0
   -5.5055    4.8429  -38.8653 O   0  0  0  0  0  0  0  0  0  0  0  0
   -6.7306    9.1863  -36.3678 F   0  0  0  0  0  0  0  0  0  0  0  0
   -8.3269    5.5681  -34.1887 H   0  0  0  0  0  0  0  0  0  0  0  0
   -8.2506    8.0083  -34.5920 H   0  0  0  0  0  0  0  0  0  0  0  0
   -5.3031    7.4275  -37.6570 H   0  0  0  0  0  0  0  0  0  0  0  0
   -3.4580    6.1209  -37.6313 H   0  0  0  0  0  0  0  0  0  0  0  0
   -3.0361    4.4385  -38.0154 H   0  0  0  0  0  0  0  0  0  0  0  0
   -3.2910    4.9060  -36.3435 H   0  0  0  0  0  0  0  0  0  0  0  0
   -5.2622    3.6761  -37.2094 H   0  0  0  0  0  0  0  0  0  0  0  0
   -7.5438    3.5798  -34.7601 H   0  0  0  0  0  0  0  0  0  0  0  0
   -6.4333    4.5717  -38.9153 H   0  0  0  0  0  0  0  0  0  0  0  0
  1  2  1  0  0  0  0
  1  5  2  0  0  0  0
  2  6  2  0  0  0  0
  3  4  2  0  0  0  0
  3  6  1  0  0  0  0
  4  5  1  0  0  0  0
  4  8  1  0  0  0  0
  5  9  1  0  0  0  0
  6 11  1  0  0  0  0
  7  8  1  6  0  0  0
  8 10  1  0  0  0  0
  1 12  1  0  0  0  0
  2 13  1  0  0  0  0
  3 14  1  0  0  0  0
  7 15  1  0  0  0  0
  7 16  1  0  0  0  0
  7 17  1  0  0  0  0
  8 18  1  0  0  0  0
  9 19  1  0  0  0  0
 10 20  1  0  0  0  0
M  END
> <id>
EN300-1852479

> <smiles>
C[C@H](O)C=1C=C(F)C=CC1O

> <MDLNUMBER>
MFCD23825638

> <IUPAC Name>
4-fluoro-2-[(1S)-1-hydroxyethyl]phenol

> <CAS>
1567919-38-3

> <URL>
https://www.enaminestore.com/catalog/EN300-1852479

> <ROCS_ShapeQuery>
hit0

> <ROCS_TanimotoCombo>
0.996 

> <ROCS_ShapeTanimoto>
0.430 

> <ROCS_ColorTanimoto>
0.566 

> <ROCS_RefTversky>
1.382 

> <ROCS_RefColorTversky>
0.668 

> <ROCS_RefTverskyCombo>
2.050 

> <ROCS_FitTversky>
0.384 

> <ROCS_FitColorTversky>
0.787 

> <ROCS_FitTverskyCombo>
1.171 

> <ROCS_ColorScore>
-3.976

> <ROCS_Overlap>
175.177

> <ROCS_Rank>
353                 

$$$$
untitled-dbase-117421_22
  -OEChem-06232314393D

 19 19  0     1  0  0  0  0  0999 V2000
   -4.8311    6.1354  -36.5045 C   0  0  0  0  0  0  0  0  0  0  0  0
   -6.5882    4.9615  -36.2656 C   0  0  2  0  0  0  0  0  0  0  0  0
   -5.3390    4.8320  -37.1688 C   0  0  1  0  0  0  0  0  0  0  0  0
   -5.7330    5.8042  -35.2899 C   0  0  2  0  0  0  0  0  0  0  0  0
   -7.5552    7.2830  -35.4199 C   0  0  0  0  0  0  0  0  0  0  0  0
   -6.8905    3.6704  -35.6577 N   0  0  0  0  0  0  0  0  0  0  0  0
   -5.5848    4.9021  -38.5843 O   0  0  0  0  0  0  0  0  0  0  0  0
   -6.4034    6.9218  -34.6813 O   0  0  0  0  0  0  0  0  0  0  0  0
   -3.7585    6.1602  -36.2925 H   0  0  0  0  0  0  0  0  0  0  0  0
   -5.1082    7.0526  -37.0371 H   0  0  0  0  0  0  0  0  0  0  0  0
   -7.4469    5.4823  -36.7137 H   0  0  0  0  0  0  0  0  0  0  0  0
   -4.6880    3.9776  -36.9388 H   0  0  0  0  0  0  0  0  0  0  0  0
   -5.1937    5.2248  -34.5287 H   0  0  0  0  0  0  0  0  0  0  0  0
   -8.0460    8.1324  -34.9386 H   0  0  0  0  0  0  0  0  0  0  0  0
   -8.2397    6.4324  -35.4682 H   0  0  0  0  0  0  0  0  0  0  0  0
   -7.2547    7.5643  -36.4320 H   0  0  0  0  0  0  0  0  0  0  0  0
   -7.5565    3.8123  -34.9343 H   0  0  0  0  0  0  0  0  0  0  0  0
   -7.2606    3.0725  -36.3596 H   0  0  0  0  0  0  0  0  0  0  0  0
   -5.8915    4.0229  -38.8420 H   0  0  0  0  0  0  0  0  0  0  0  0
  1  3  1  0  0  0  0
  1  4  1  0  0  0  0
  2  3  1  0  0  0  0
  2  4  1  0  0  0  0
  2  6  1  1  0  0  0
  3  7  1  6  0  0  0
  4  8  1  6  0  0  0
  5  8  1  0  0  0  0
  1  9  1  0  0  0  0
  1 10  1  0  0  0  0
  2 11  1  0  0  0  0
  3 12  1  0  0  0  0
  4 13  1  0  0  0  0
  5 14  1  0  0  0  0
  5 15  1  0  0  0  0
  5 16  1  0  0  0  0
  6 17  1  0  0  0  0
  6 18  1  0  0  0  0
  7 19  1  0  0  0  0
M  END
> <id>
EN300-37469469

> <smiles>
Cl.CO[C@@H]1C[C@H](O)[C@H]1N |&1:3,5,7,r|

> <IUPAC Name>
rac-(1R,2S,3S)-2-amino-3-methoxycyclobutan-1-ol hydrochloride

> <Purity>
95

> <URL>
https://www.enaminestore.com/catalog/EN300-37469469

> <ROCS_ShapeQuery>
hit0

> <ROCS_TanimotoCombo>
0.995 

> <ROCS_ShapeTanimoto>
0.545 

> <ROCS_ColorTanimoto>
0.451 

> <ROCS_RefTversky>
1.275 

> <ROCS_RefColorTversky>
0.622 

> <ROCS_RefTverskyCombo>
1.897 

> <ROCS_FitTversky>
0.487 

> <ROCS_FitColorTversky>
0.622 

> <ROCS_FitTverskyCombo>
1.109 

> <ROCS_ColorScore>
-3.729

> <ROCS_Overlap>
151.941

> <ROCS_Rank>
354                 

$$$$
untitled-dbase-117422_22
  -OEChem-06232314393D

 19 19  0     1  0  0  0  0  0999 V2000
   -4.8311    6.1354  -36.5045 C   0  0  0  0  0  0  0  0  0  0  0  0
   -6.5882    4.9615  -36.2656 C   0  0  2  0  0  0  0  0  0  0  0  0
   -5.3390    4.8320  -37.1688 C   0  0  1  0  0  0  0  0  0  0  0  0
   -5.7330    5.8042  -35.2899 C   0  0  2  0  0  0  0  0  0  0  0  0
   -7.5552    7.2830  -35.4199 C   0  0  0  0  0  0  0  0  0  0  0  0
   -6.8905    3.6704  -35.6577 N   0  0  0  0  0  0  0  0  0  0  0  0
   -5.5848    4.9021  -38.5843 O   0  0  0  0  0  0  0  0  0  0  0  0
   -6.4034    6.9218  -34.6813 O   0  0  0  0  0  0  0  0  0  0  0  0
   -3.7585    6.1602  -36.2925 H   0  0  0  0  0  0  0  0  0  0  0  0
   -5.1082    7.0526  -37.0371 H   0  0  0  0  0  0  0  0  0  0  0  0
   -7.4469    5.4823  -36.7137 H   0  0  0  0  0  0  0  0  0  0  0  0
   -4.6880    3.9776  -36.9388 H   0  0  0  0  0  0  0  0  0  0  0  0
   -5.1937    5.2248  -34.5287 H   0  0  0  0  0  0  0  0  0  0  0  0
   -8.0460    8.1324  -34.9386 H   0  0  0  0  0  0  0  0  0  0  0  0
   -8.2397    6.4324  -35.4682 H   0  0  0  0  0  0  0  0  0  0  0  0
   -7.2547    7.5643  -36.4320 H   0  0  0  0  0  0  0  0  0  0  0  0
   -7.5565    3.8123  -34.9343 H   0  0  0  0  0  0  0  0  0  0  0  0
   -7.2606    3.0725  -36.3596 H   0  0  0  0  0  0  0  0  0  0  0  0
   -5.8915    4.0229  -38.8420 H   0  0  0  0  0  0  0  0  0  0  0  0
  1  3  1  0  0  0  0
  1  4  1  0  0  0  0
  2  3  1  0  0  0  0
  2  4  1  0  0  0  0
  2  6  1  1  0  0  0
  3  7  1  6  0  0  0
  4  8  1  6  0  0  0
  5  8  1  0  0  0  0
  1  9  1  0  0  0  0
  1 10  1  0  0  0  0
  2 11  1  0  0  0  0
  3 12  1  0  0  0  0
  4 13  1  0  0  0  0
  5 14  1  0  0  0  0
  5 15  1  0  0  0  0
  5 16  1  0  0  0  0
  6 17  1  0  0  0  0
  6 18  1  0  0  0  0
  7 19  1  0  0  0  0
M  END
> <id>
EN300-37469470

> <smiles>
CO[C@@H]1C[C@H](O)[C@H]1N |&1:2,4,6,r|

> <IUPAC Name>
rac-(1R,2S,3S)-2-amino-3-methoxycyclobutan-1-ol

> <URL>
https://www.enaminestore.com/catalog/EN300-37469470

> <ROCS_ShapeQuery>
hit0

> <ROCS_TanimotoCombo>
0.995 

> <ROCS_ShapeTanimoto>
0.545 

> <ROCS_ColorTanimoto>
0.451 

> <ROCS_RefTversky>
1.275 

> <ROCS_RefColorTversky>
0.622 

> <ROCS_RefTverskyCombo>
1.897 

> <ROCS_FitTversky>
0.487 

> <ROCS_FitColorTversky>
0.622 

> <ROCS_FitTverskyCombo>
1.109 

> <ROCS_ColorScore>
-3.729

> <ROCS_Overlap>
151.941

> <ROCS_Rank>
355                 

$$$$
untitled-dbase-98132_7
  -OEChem-06232314393D

 16 16  0     0  0  0  0  0  0999 V2000
   -6.7366    6.3580  -35.5487 C   0  0  0  0  0  0  0  0  0  0  0  0
   -6.0025    5.0024  -37.6136 C   0  0  0  0  0  0  0  0  0  0  0  0
   -4.8709    4.9503  -36.6336 C   0  0  0  0  0  0  0  0  0  0  0  0
   -6.2907    5.0928  -36.1315 C   0  0  0  0  0  0  0  0  0  0  0  0
   -7.9374    8.3332  -36.0389 C   0  0  0  0  0  0  0  0  0  0  0  0
   -6.5018    6.7030  -34.3985 O   0  0  0  0  0  0  0  0  0  0  0  0
   -6.8785    3.9363  -35.5140 O   0  0  0  0  0  0  0  0  0  0  0  0
   -7.4384    7.0661  -36.4788 O   0  0  0  0  0  0  0  0  0  0  0  0
   -6.1061    5.8979  -38.2148 H   0  0  0  0  0  0  0  0  0  0  0  0
   -6.2637    4.0877  -38.1320 H   0  0  0  0  0  0  0  0  0  0  0  0
   -4.3696    4.0005  -36.4915 H   0  0  0  0  0  0  0  0  0  0  0  0
   -4.2149    5.8108  -36.5770 H   0  0  0  0  0  0  0  0  0  0  0  0
   -8.4810    8.8149  -36.8554 H   0  0  0  0  0  0  0  0  0  0  0  0
   -7.1034    8.9636  -35.7204 H   0  0  0  0  0  0  0  0  0  0  0  0
   -8.6149    8.1755  -35.1964 H   0  0  0  0  0  0  0  0  0  0  0  0
   -7.8329    4.0267  -35.6375 H   0  0  0  0  0  0  0  0  0  0  0  0
  1  4  1  0  0  0  0
  1  6  2  0  0  0  0
  1  8  1  0  0  0  0
  2  3  1  0  0  0  0
  2  4  1  0  0  0  0
  3  4  1  0  0  0  0
  4  7  1  0  0  0  0
  5  8  1  0  0  0  0
  2  9  1  0  0  0  0
  2 10  1  0  0  0  0
  3 11  1  0  0  0  0
  3 12  1  0  0  0  0
  5 13  1  0  0  0  0
  5 14  1  0  0  0  0
  5 15  1  0  0  0  0
  7 16  1  0  0  0  0
M  END
> <id>
EN300-178765

> <smiles>
COC(=O)C1(O)CC1

> <MDLNUMBER>
MFCD02093884

> <IUPAC Name>
methyl 1-hydroxycyclopropane-1-carboxylate

> <CAS>
33689-29-1

> <Purity>
95

> <URL>
https://www.enaminestore.com/catalog/EN300-178765

> <ROCS_ShapeQuery>
hit0

> <ROCS_TanimotoCombo>
0.995 

> <ROCS_ShapeTanimoto>
0.516 

> <ROCS_ColorTanimoto>
0.480 

> <ROCS_RefTversky>
1.255 

> <ROCS_RefColorTversky>
0.499 

> <ROCS_RefTverskyCombo>
1.753 

> <ROCS_FitTversky>
0.467 

> <ROCS_FitColorTversky>
0.926 

> <ROCS_FitTverskyCombo>
1.393 

> <ROCS_ColorScore>
-2.917

> <ROCS_Overlap>
150.163

> <ROCS_Rank>
356                 

$$$$
untitled-dbase-4524_1
  -OEChem-06232314393D

 18 18  0     0  0  0  0  0  0999 V2000
   -5.5658    6.8606  -37.0804 C   0  0  0  0  0  0  0  0  0  0  0  0
   -5.2868    6.3044  -38.3183 C   0  0  0  0  0  0  0  0  0  0  0  0
   -6.0474    4.2385  -37.6613 C   0  0  0  0  0  0  0  0  0  0  0  0
   -6.1134    6.0353  -36.1046 C   0  0  0  0  0  0  0  0  0  0  0  0
   -6.3619    4.6979  -36.3925 C   0  0  0  0  0  0  0  0  0  0  0  0
   -7.3216    7.6543  -34.6400 C   0  0  0  0  0  0  0  0  0  0  0  0
   -5.5143    5.0100  -38.6351 N   0  0  0  0  0  0  0  0  0  0  0  0
   -6.9156    3.8228  -35.4405 N   0  0  0  0  0  0  0  0  0  0  0  0
   -6.4071    6.5728  -34.8323 N   0  0  0  0  0  0  0  0  0  0  0  0
   -5.3598    7.9083  -36.8889 H   0  0  0  0  0  0  0  0  0  0  0  0
   -4.8591    6.9056  -39.1139 H   0  0  0  0  0  0  0  0  0  0  0  0
   -6.2175    3.2047  -37.9466 H   0  0  0  0  0  0  0  0  0  0  0  0
   -7.7293    7.9677  -35.6124 H   0  0  0  0  0  0  0  0  0  0  0  0
   -8.1436    7.3274  -33.9861 H   0  0  0  0  0  0  0  0  0  0  0  0
   -6.7959    8.5002  -34.1730 H   0  0  0  0  0  0  0  0  0  0  0  0
   -7.1237    2.8786  -35.7031 H   0  0  0  0  0  0  0  0  0  0  0  0
   -7.1821    4.1782  -34.5426 H   0  0  0  0  0  0  0  0  0  0  0  0
   -5.9397    6.1607  -34.0478 H   0  0  0  0  0  0  0  0  0  0  0  0
  1  2  1  0  0  0  0
  1  4  2  0  0  0  0
  2  7  2  0  0  0  0
  3  5  2  0  0  0  0
  3  7  1  0  0  0  0
  4  5  1  0  0  0  0
  4  9  1  0  0  0  0
  5  8  1  0  0  0  0
  6  9  1  0  0  0  0
  1 10  1  0  0  0  0
  2 11  1  0  0  0  0
  3 12  1  0  0  0  0
  6 13  1  0  0  0  0
  6 14  1  0  0  0  0
  6 15  1  0  0  0  0
  8 16  1  0  0  0  0
  8 17  1  0  0  0  0
  9 18  1  0  0  0  0
M  END
> <id>
EN300-93609

> <smiles>
CNC=1C=CN=CC1N

> <MDLNUMBER>
MFCD00982623

> <IUPAC Name>
N4-methylpyridine-3,4-diamine

> <CAS>
1839-17-4

> <Purity>
95

> <URL>
https://www.enaminestore.com/catalog/EN300-93609

> <MP>
169-172

> <ROCS_ShapeQuery>
hit0

> <ROCS_TanimotoCombo>
0.995 

> <ROCS_ShapeTanimoto>
0.508 

> <ROCS_ColorTanimoto>
0.487 

> <ROCS_RefTversky>
1.368 

> <ROCS_RefColorTversky>
0.605 

> <ROCS_RefTverskyCombo>
1.973 

> <ROCS_FitTversky>
0.447 

> <ROCS_FitColorTversky>
0.713 

> <ROCS_FitTverskyCombo>
1.160 

> <ROCS_ColorScore>
-3.602

> <ROCS_Overlap>
167.473

> <ROCS_Rank>
357                 

$$$$
untitled-dbase-85346_1
  -OEChem-06232314393D

 18 18  0     0  0  0  0  0  0999 V2000
   -5.5658    6.8606  -37.0804 C   0  0  0  0  0  0  0  0  0  0  0  0
   -5.2868    6.3044  -38.3183 C   0  0  0  0  0  0  0  0  0  0  0  0
   -6.0474    4.2385  -37.6613 C   0  0  0  0  0  0  0  0  0  0  0  0
   -6.1134    6.0353  -36.1046 C   0  0  0  0  0  0  0  0  0  0  0  0
   -6.3619    4.6979  -36.3925 C   0  0  0  0  0  0  0  0  0  0  0  0
   -7.3216    7.6543  -34.6400 C   0  0  0  0  0  0  0  0  0  0  0  0
   -5.5143    5.0100  -38.6351 N   0  0  0  0  0  0  0  0  0  0  0  0
   -6.9156    3.8228  -35.4405 N   0  0  0  0  0  0  0  0  0  0  0  0
   -6.4071    6.5728  -34.8323 N   0  0  0  0  0  0  0  0  0  0  0  0
   -5.3598    7.9083  -36.8889 H   0  0  0  0  0  0  0  0  0  0  0  0
   -4.8591    6.9056  -39.1139 H   0  0  0  0  0  0  0  0  0  0  0  0
   -6.2175    3.2047  -37.9466 H   0  0  0  0  0  0  0  0  0  0  0  0
   -7.7293    7.9677  -35.6124 H   0  0  0  0  0  0  0  0  0  0  0  0
   -8.1436    7.3274  -33.9861 H   0  0  0  0  0  0  0  0  0  0  0  0
   -6.7959    8.5002  -34.1730 H   0  0  0  0  0  0  0  0  0  0  0  0
   -7.1237    2.8786  -35.7031 H   0  0  0  0  0  0  0  0  0  0  0  0
   -7.1821    4.1782  -34.5426 H   0  0  0  0  0  0  0  0  0  0  0  0
   -5.9397    6.1607  -34.0478 H   0  0  0  0  0  0  0  0  0  0  0  0
  1  2  1  0  0  0  0
  1  4  2  0  0  0  0
  2  7  2  0  0  0  0
  3  5  2  0  0  0  0
  3  7  1  0  0  0  0
  4  5  1  0  0  0  0
  4  9  1  0  0  0  0
  5  8  1  0  0  0  0
  6  9  1  0  0  0  0
  1 10  1  0  0  0  0
  2 11  1  0  0  0  0
  3 12  1  0  0  0  0
  6 13  1  0  0  0  0
  6 14  1  0  0  0  0
  6 15  1  0  0  0  0
  8 16  1  0  0  0  0
  8 17  1  0  0  0  0
  9 18  1  0  0  0  0
M  END
> <id>
EN300-26982120

> <smiles>
Cl.Cl.CNC=1C=CN=CC1N

> <MDLNUMBER>
MFCD32724316

> <IUPAC Name>
N4-methylpyridine-3,4-diamine dihydrochloride

> <CAS>
57680-54-3

> <Purity>
95

> <URL>
https://www.enaminestore.com/catalog/EN300-26982120

> <MP>
221-222

> <ROCS_ShapeQuery>
hit0

> <ROCS_TanimotoCombo>
0.995 

> <ROCS_ShapeTanimoto>
0.508 

> <ROCS_ColorTanimoto>
0.487 

> <ROCS_RefTversky>
1.368 

> <ROCS_RefColorTversky>
0.605 

> <ROCS_RefTverskyCombo>
1.973 

> <ROCS_FitTversky>
0.447 

> <ROCS_FitColorTversky>
0.713 

> <ROCS_FitTverskyCombo>
1.160 

> <ROCS_ColorScore>
-3.602

> <ROCS_Overlap>
167.473

> <ROCS_Rank>
358                 

$$$$
untitled-dbase-31524_12
  -OEChem-06232314393D

 16 16  0     1  0  0  0  0  0999 V2000
   -6.3097    3.9242  -37.9014 C   0  0  0  0  0  0  0  0  0  0  0  0
   -5.1622    5.9506  -37.9173 C   0  0  0  0  0  0  0  0  0  0  0  0
   -6.7113    4.6918  -36.6590 C   0  0  2  0  0  0  0  0  0  0  0  0
   -5.5353    5.6262  -36.4832 C   0  0  2  0  0  0  0  0  0  0  0  0
   -6.7323    6.6759  -34.3525 O   0  0  0  0  0  0  0  0  0  0  0  0
   -5.5599    4.8281  -38.7199 O   0  0  0  0  0  0  0  0  0  0  0  0
   -6.8745    3.8081  -35.5672 O   0  0  0  0  0  0  0  0  0  0  0  0
   -5.9300    7.1171  -35.5339 S   0  0  2  0  0  0  0  0  0  0  0  0
   -7.3925    7.8817  -36.6769 Cl  0  0  0  0  0  0  0  0  0  0  0  0
   -5.6945    3.0462  -37.6890 H   0  0  0  0  0  0  0  0  0  0  0  0
   -7.1868    3.6174  -38.4790 H   0  0  0  0  0  0  0  0  0  0  0  0
   -5.6209    6.8601  -38.3141 H   0  0  0  0  0  0  0  0  0  0  0  0
   -4.0761    6.0436  -38.0195 H   0  0  0  0  0  0  0  0  0  0  0  0
   -7.6855    5.2103  -36.8167 H   0  0  0  0  0  0  0  0  0  0  0  0
   -4.6701    5.1357  -35.9720 H   0  0  0  0  0  0  0  0  0  0  0  0
   -7.1294    4.3535  -34.8073 H   0  0  0  0  0  0  0  0  0  0  0  0
  1  3  1  0  0  0  0
  1  6  1  0  0  0  0
  2  4  1  0  0  0  0
  2  6  1  0  0  0  0
  3  4  1  0  0  0  0
  3  7  1  6  0  0  0
  4  8  1  1  0  0  0
  5  8  2  0  0  0  0
  8  9  1  0  0  0  0
  1 10  1  0  0  0  0
  1 11  1  0  0  0  0
  2 12  1  0  0  0  0
  2 13  1  0  0  0  0
  3 14  1  0  0  0  0
  4 15  1  0  0  0  0
  7 16  1  0  0  0  0
M  END
> <id>
EN300-732865

> <smiles>
O[C@@H]1COC[C@H]1S(=O)Cl |&1:1,5,r|

> <IUPAC Name>
rac-(3R,4R)-4-hydroxyoxolane-3-sulfinyl chloride

> <CAS>
2137434-34-3

> <URL>
https://www.enaminestore.com/catalog/EN300-732865

> <ROCS_ShapeQuery>
hit0

> <ROCS_TanimotoCombo>
0.995 

> <ROCS_ShapeTanimoto>
0.568 

> <ROCS_ColorTanimoto>
0.426 

> <ROCS_RefTversky>
1.376 

> <ROCS_RefColorTversky>
0.507 

> <ROCS_RefTverskyCombo>
1.882 

> <ROCS_FitTversky>
0.492 

> <ROCS_FitColorTversky>
0.729 

> <ROCS_FitTverskyCombo>
1.221 

> <ROCS_ColorScore>
-2.989

> <ROCS_Overlap>
165.723

> <ROCS_Rank>
359                 

$$$$
untitled-dbase-161439_4
  -OEChem-06232314393D

 15 14  0     1  0  0  0  0  0999 V2000
   -6.7717    5.0406  -35.7729 C   0  0  0  0  0  0  0  0  0  0  0  0
   -8.3269    7.0054  -35.8270 C   0  0  0  0  0  0  0  0  0  0  0  0
   -5.3589    4.7236  -37.6442 C   0  0  0  0  0  0  0  0  0  0  0  0
   -7.4664    6.1092  -34.9535 C   0  0  2  0  0  0  0  0  0  0  0  0
   -6.8737    3.8371  -35.5727 O   0  0  0  0  0  0  0  0  0  0  0  0
   -6.4798    6.9166  -34.3301 O   0  0  0  0  0  0  0  0  0  0  0  0
   -6.0475    5.6255  -36.7719 O   0  0  0  0  0  0  0  0  0  0  0  0
   -7.7396    7.4857  -36.6157 H   0  0  0  0  0  0  0  0  0  0  0  0
   -9.1325    6.4285  -36.2937 H   0  0  0  0  0  0  0  0  0  0  0  0
   -8.8031    7.7923  -35.2308 H   0  0  0  0  0  0  0  0  0  0  0  0
   -4.8146    5.2925  -38.4019 H   0  0  0  0  0  0  0  0  0  0  0  0
   -6.0801    4.0561  -38.1226 H   0  0  0  0  0  0  0  0  0  0  0  0
   -4.6516    4.1324  -37.0578 H   0  0  0  0  0  0  0  0  0  0  0  0
   -8.0629    5.6338  -34.1681 H   0  0  0  0  0  0  0  0  0  0  0  0
   -5.9476    7.3111  -35.0407 H   0  0  0  0  0  0  0  0  0  0  0  0
  1  4  1  0  0  0  0
  1  5  2  0  0  0  0
  1  7  1  0  0  0  0
  2  4  1  6  0  0  0
  3  7  1  0  0  0  0
  4  6  1  0  0  0  0
  2  8  1  0  0  0  0
  2  9  1  0  0  0  0
  2 10  1  0  0  0  0
  3 11  1  0  0  0  0
  3 12  1  0  0  0  0
  3 13  1  0  0  0  0
  4 14  1  0  0  0  0
  6 15  1  0  0  0  0
M  END
> <id>
EN300-153431

> <smiles>
COC(=O)[C@H](C)O

> <MDLNUMBER>
MFCD00064265

> <IUPAC Name>
methyl (2S)-2-hydroxypropanoate

> <CAS>
27871-49-4

> <Purity>
95

> <URL>
https://www.enaminestore.com/catalog/EN300-153431

> <ROCS_ShapeQuery>
hit0

> <ROCS_TanimotoCombo>
0.995 

> <ROCS_ShapeTanimoto>
0.496 

> <ROCS_ColorTanimoto>
0.499 

> <ROCS_RefTversky>
1.091 

> <ROCS_RefColorTversky>
0.512 

> <ROCS_RefTverskyCombo>
1.603 

> <ROCS_FitTversky>
0.476 

> <ROCS_FitColorTversky>
0.951 

> <ROCS_FitTverskyCombo>
1.427 

> <ROCS_ColorScore>
-2.996

> <ROCS_Overlap>
127.440

> <ROCS_Rank>
360                 

$$$$
untitled-dbase-18328_4
  -OEChem-06232314393D

 15 14  0     1  0  0  0  0  0999 V2000
   -6.7717    5.0406  -35.7729 C   0  0  0  0  0  0  0  0  0  0  0  0
   -8.3269    7.0054  -35.8270 C   0  0  0  0  0  0  0  0  0  0  0  0
   -5.3589    4.7236  -37.6442 C   0  0  0  0  0  0  0  0  0  0  0  0
   -7.4664    6.1092  -34.9535 C   0  0  2  0  0  0  0  0  0  0  0  0
   -6.8737    3.8371  -35.5727 O   0  0  0  0  0  0  0  0  0  0  0  0
   -6.4798    6.9166  -34.3301 O   0  0  0  0  0  0  0  0  0  0  0  0
   -6.0475    5.6255  -36.7719 O   0  0  0  0  0  0  0  0  0  0  0  0
   -7.7396    7.4857  -36.6157 H   0  0  0  0  0  0  0  0  0  0  0  0
   -9.1325    6.4285  -36.2937 H   0  0  0  0  0  0  0  0  0  0  0  0
   -8.8031    7.7923  -35.2308 H   0  0  0  0  0  0  0  0  0  0  0  0
   -4.8146    5.2925  -38.4019 H   0  0  0  0  0  0  0  0  0  0  0  0
   -6.0801    4.0561  -38.1226 H   0  0  0  0  0  0  0  0  0  0  0  0
   -4.6516    4.1324  -37.0578 H   0  0  0  0  0  0  0  0  0  0  0  0
   -8.0629    5.6338  -34.1681 H   0  0  0  0  0  0  0  0  0  0  0  0
   -5.9476    7.3111  -35.0407 H   0  0  0  0  0  0  0  0  0  0  0  0
  1  4  1  0  0  0  0
  1  5  2  0  0  0  0
  1  7  1  0  0  0  0
  2  4  1  0  0  0  0
  3  7  1  0  0  0  0
  4  6  1  0  0  0  0
  2  8  1  0  0  0  0
  2  9  1  0  0  0  0
  2 10  1  0  0  0  0
  3 11  1  0  0  0  0
  3 12  1  0  0  0  0
  3 13  1  0  0  0  0
  4 14  1  0  0  0  0
  6 15  1  0  0  0  0
M  END
> <id>
EN300-181677

> <smiles>
COC(=O)C(C)O

> <MDLNUMBER>
MFCD00066367

> <IUPAC Name>
methyl 2-hydroxypropanoate

> <CAS>
547-64-8

> <Purity>
95

> <URL>
https://www.enaminestore.com/catalog/EN300-181677

> <ROCS_ShapeQuery>
hit0

> <ROCS_TanimotoCombo>
0.995 

> <ROCS_ShapeTanimoto>
0.496 

> <ROCS_ColorTanimoto>
0.499 

> <ROCS_RefTversky>
1.091 

> <ROCS_RefColorTversky>
0.512 

> <ROCS_RefTverskyCombo>
1.603 

> <ROCS_FitTversky>
0.476 

> <ROCS_FitColorTversky>
0.951 

> <ROCS_FitTverskyCombo>
1.427 

> <ROCS_ColorScore>
-2.996

> <ROCS_Overlap>
127.440

> <ROCS_Rank>
361                 

$$$$
untitled-dbase-136628_6
  -OEChem-06232314393D

 21 21  0     0  0  0  0  0  0999 V2000
   -7.4966    7.4296  -35.1024 C   0  0  0  0  0  0  0  0  0  0  0  0
   -5.8022    7.1229  -36.7972 C   0  0  0  0  0  0  0  0  0  0  0  0
   -7.5849    6.0470  -34.9405 C   0  0  0  0  0  0  0  0  0  0  0  0
   -5.8905    5.7403  -36.6352 C   0  0  0  0  0  0  0  0  0  0  0  0
   -6.7818    5.2023  -35.7068 C   0  0  0  0  0  0  0  0  0  0  0  0
   -6.6053    7.9675  -36.0308 C   0  0  0  0  0  0  0  0  0  0  0  0
   -8.5506    5.4995  -33.9400 C   0  0  0  0  0  0  0  0  0  0  0  0
   -5.0187    4.8602  -37.4710 C   0  0  0  0  0  0  0  0  0  0  0  0
   -6.8719    3.8005  -35.5430 N   0  0  0  0  0  0  0  0  0  0  0  0
   -5.5309    4.8142  -38.7961 O   0  0  0  0  0  0  0  0  0  0  0  0
   -6.4960    9.6732  -36.2300 Cl  0  0  0  0  0  0  0  0  0  0  0  0
   -8.1253    8.0845  -34.5033 H   0  0  0  0  0  0  0  0  0  0  0  0
   -5.1069    7.5386  -37.5230 H   0  0  0  0  0  0  0  0  0  0  0  0
   -9.5242    5.3224  -34.4106 H   0  0  0  0  0  0  0  0  0  0  0  0
   -8.1887    4.5546  -33.5171 H   0  0  0  0  0  0  0  0  0  0  0  0
   -8.6876    6.1935  -33.1018 H   0  0  0  0  0  0  0  0  0  0  0  0
   -3.9882    5.2365  -37.5038 H   0  0  0  0  0  0  0  0  0  0  0  0
   -4.9863    3.8401  -37.0673 H   0  0  0  0  0  0  0  0  0  0  0  0
   -6.3251    3.2083  -36.1316 H   0  0  0  0  0  0  0  0  0  0  0  0
   -7.5480    3.4299  -34.9091 H   0  0  0  0  0  0  0  0  0  0  0  0
   -4.9400    4.2356  -39.3047 H   0  0  0  0  0  0  0  0  0  0  0  0
  1  3  2  0  0  0  0
  1  6  1  0  0  0  0
  2  4  1  0  0  0  0
  2  6  2  0  0  0  0
  3  5  1  0  0  0  0
  3  7  1  0  0  0  0
  4  5  2  0  0  0  0
  4  8  1  0  0  0  0
  5  9  1  0  0  0  0
  6 11  1  0  0  0  0
  8 10  1  0  0  0  0
  1 12  1  0  0  0  0
  2 13  1  0  0  0  0
  7 14  1  0  0  0  0
  7 15  1  0  0  0  0
  7 16  1  0  0  0  0
  8 17  1  0  0  0  0
  8 18  1  0  0  0  0
  9 19  1  0  0  0  0
  9 20  1  0  0  0  0
 10 21  1  0  0  0  0
M  END
> <id>
EN300-7704361

> <smiles>
CC=1C=C(Cl)C=C(CO)C1N

> <MDLNUMBER>
MFCD20702609

> <IUPAC Name>
(2-amino-5-chloro-3-methylphenyl)methanol

> <CAS>
775331-65-2

> <Purity>
95

> <URL>
https://www.enaminestore.com/catalog/EN300-7704361

> <MP>
83-85

> <ROCS_ShapeQuery>
hit0

> <ROCS_TanimotoCombo>
0.995 

> <ROCS_ShapeTanimoto>
0.423 

> <ROCS_ColorTanimoto>
0.571 

> <ROCS_RefTversky>
1.345 

> <ROCS_RefColorTversky>
0.672 

> <ROCS_RefTverskyCombo>
2.017 

> <ROCS_FitTversky>
0.382 

> <ROCS_FitColorTversky>
0.792 

> <ROCS_FitTverskyCombo>
1.174 

> <ROCS_ColorScore>
-3.999

> <ROCS_Overlap>
169.661

> <ROCS_Rank>
362                 

$$$$
untitled-dbase-72551_37
  -OEChem-06232314393D

 23 23  0     1  0  0  0  0  0999 V2000
   -7.4768    7.3649  -35.1417 C   0  0  0  0  0  0  0  0  0  0  0  0
   -7.5691    5.9923  -34.9116 C   0  0  0  0  0  0  0  0  0  0  0  0
   -5.8818    6.9611  -36.9109 C   0  0  0  0  0  0  0  0  0  0  0  0
   -6.6332    7.8493  -36.1414 C   0  0  0  0  0  0  0  0  0  0  0  0
   -5.9741    5.5884  -36.6807 C   0  0  0  0  0  0  0  0  0  0  0  0
   -6.8177    5.1040  -35.6811 C   0  0  0  0  0  0  0  0  0  0  0  0
   -6.5360    9.3169  -36.3879 C   0  0  0  0  0  0  0  0  0  0  0  0
   -5.4149    3.1814  -37.1794 C   0  0  0  0  0  0  0  0  0  0  0  0
   -5.1636    4.6517  -37.5147 C   0  0  1  0  0  0  0  0  0  0  0  0
   -6.9189    3.7665  -35.4416 O   0  0  0  0  0  0  0  0  0  0  0  0
   -5.4896    4.8537  -38.8940 O   0  0  0  0  0  0  0  0  0  0  0  0
   -8.0663    8.0499  -34.5380 H   0  0  0  0  0  0  0  0  0  0  0  0
   -8.2299    5.6221  -34.1323 H   0  0  0  0  0  0  0  0  0  0  0  0
   -5.2246    7.3397  -37.6903 H   0  0  0  0  0  0  0  0  0  0  0  0
   -5.7421    9.7561  -35.7714 H   0  0  0  0  0  0  0  0  0  0  0  0
   -6.3161    9.5303  -37.4420 H   0  0  0  0  0  0  0  0  0  0  0  0
   -7.4807    9.8240  -36.1517 H   0  0  0  0  0  0  0  0  0  0  0  0
   -6.4780    2.9338  -37.2617 H   0  0  0  0  0  0  0  0  0  0  0  0
   -5.0814    2.9408  -36.1637 H   0  0  0  0  0  0  0  0  0  0  0  0
   -4.8510    2.5270  -37.8531 H   0  0  0  0  0  0  0  0  0  0  0  0
   -4.0825    4.8449  -37.4162 H   0  0  0  0  0  0  0  0  0  0  0  0
   -7.5435    3.6022  -34.7179 H   0  0  0  0  0  0  0  0  0  0  0  0
   -6.4361    4.6692  -38.9773 H   0  0  0  0  0  0  0  0  0  0  0  0
  1  2  1  0  0  0  0
  1  4  2  0  0  0  0
  2  6  2  0  0  0  0
  3  4  1  0  0  0  0
  3  5  2  0  0  0  0
  4  7  1  0  0  0  0
  5  6  1  0  0  0  0
  5  9  1  0  0  0  0
  6 10  1  0  0  0  0
  8  9  1  1  0  0  0
  9 11  1  0  0  0  0
  1 12  1  0  0  0  0
  2 13  1  0  0  0  0
  3 14  1  0  0  0  0
  7 15  1  0  0  0  0
  7 16  1  0  0  0  0
  7 17  1  0  0  0  0
  8 18  1  0  0  0  0
  8 19  1  0  0  0  0
  8 20  1  0  0  0  0
  9 21  1  0  0  0  0
 10 22  1  0  0  0  0
 11 23  1  0  0  0  0
M  END
> <id>
EN300-1841067

> <smiles>
C[C@@H](O)C=1C=C(C)C=CC1O

> <MDLNUMBER>
MFCD18340200

> <IUPAC Name>
2-[(1R)-1-hydroxyethyl]-4-methylphenol

> <CAS>
156597-61-4

> <URL>
https://www.enaminestore.com/catalog/EN300-1841067

> <ROCS_ShapeQuery>
hit0

> <ROCS_TanimotoCombo>
0.995 

> <ROCS_ShapeTanimoto>
0.434 

> <ROCS_ColorTanimoto>
0.560 

> <ROCS_RefTversky>
1.389 

> <ROCS_RefColorTversky>
0.664 

> <ROCS_RefTverskyCombo>
2.053 

> <ROCS_FitTversky>
0.387 

> <ROCS_FitColorTversky>
0.782 

> <ROCS_FitTverskyCombo>
1.169 

> <ROCS_ColorScore>
-3.954

> <ROCS_Overlap>
175.881

> <ROCS_Rank>
363                 

$$$$
untitled-dbase-44369_3
  -OEChem-06232314393D

 14 14  0     0  0  0  0  0  0999 V2000
   -6.4219    4.0645  -36.6782 C   0  0  0  0  0  0  0  0  0  0  0  0
   -5.8955    4.9751  -37.5702 C   0  0  0  0  0  0  0  0  0  0  0  0
   -6.4261    5.8346  -35.3834 C   0  0  0  0  0  0  0  0  0  0  0  0
   -6.2633    7.9626  -34.3342 C   0  0  0  0  0  0  0  0  0  0  0  0
   -6.7264    4.5555  -35.4236 N   0  0  0  0  0  0  0  0  0  0  0  0
   -5.5134    4.7556  -38.8507 N   0  0  0  0  0  0  0  0  0  0  0  0
   -6.6204    6.5655  -34.2931 O   0  0  0  0  0  0  0  0  0  0  0  0
   -5.7742    6.5121  -36.8190 S   0  0  0  0  0  0  0  0  0  0  0  0
   -6.6072    3.0192  -36.8890 H   0  0  0  0  0  0  0  0  0  0  0  0
   -6.4813    8.4238  -33.3678 H   0  0  0  0  0  0  0  0  0  0  0  0
   -6.8303    8.4615  -35.1242 H   0  0  0  0  0  0  0  0  0  0  0  0
   -5.1947    8.0504  -34.5444 H   0  0  0  0  0  0  0  0  0  0  0  0
   -5.5463    3.8195  -39.2755 H   0  0  0  0  0  0  0  0  0  0  0  0
   -5.0857    5.4941  -39.4248 H   0  0  0  0  0  0  0  0  0  0  0  0
  1  2  2  0  0  0  0
  1  5  1  0  0  0  0
  2  6  1  0  0  0  0
  2  8  1  0  0  0  0
  3  5  2  0  0  0  0
  3  7  1  0  0  0  0
  3  8  1  0  0  0  0
  4  7  1  0  0  0  0
  1  9  1  0  0  0  0
  4 10  1  0  0  0  0
  4 11  1  0  0  0  0
  4 12  1  0  0  0  0
  6 13  1  0  0  0  0
  6 14  1  0  0  0  0
M  END
> <id>
EN300-1296045

> <smiles>
COC1=NC=C(N)S1

> <MDLNUMBER>
MFCD19543820

> <IUPAC Name>
2-methoxy-1,3-thiazol-5-amine

> <CAS>
1314355-65-1

> <URL>
https://www.enaminestore.com/catalog/EN300-1296045

> <ROCS_ShapeQuery>
hit0

> <ROCS_TanimotoCombo>
0.994 

> <ROCS_ShapeTanimoto>
0.545 

> <ROCS_ColorTanimoto>
0.449 

> <ROCS_RefTversky>
1.294 

> <ROCS_RefColorTversky>
0.573 

> <ROCS_RefTverskyCombo>
1.867 

> <ROCS_FitTversky>
0.485 

> <ROCS_FitColorTversky>
0.674 

> <ROCS_FitTverskyCombo>
1.159 

> <ROCS_ColorScore>
-3.410

> <ROCS_Overlap>
154.648

> <ROCS_Rank>
364                 

$$$$
untitled-dbase-79020_19
  -OEChem-06232314393D

 22 22  0     1  0  0  0  0  0999 V2000
   -6.0560    3.8845  -37.8192 C   0  0  0  0  0  0  0  0  0  0  0  0
   -5.2772    6.0872  -37.8549 C   0  0  0  0  0  0  0  0  0  0  0  0
   -5.9562    4.3947  -36.3899 C   0  0  1  0  0  0  0  0  0  0  0  0
   -6.0845    5.9120  -36.5670 C   0  0  2  0  0  0  0  0  0  0  0  0
   -7.5370    6.3763  -36.7939 C   0  0  0  0  0  0  0  0  0  0  0  0
   -5.4850    6.6996  -35.4006 C   0  0  0  0  0  0  0  0  0  0  0  0
   -6.9149    3.7752  -35.4920 N   0  0  0  0  0  0  0  0  0  0  0  0
   -5.5325    4.9245  -38.6625 O   0  0  0  0  0  0  0  0  0  0  0  0
   -6.4899    6.8822  -34.4220 O   0  0  0  0  0  0  0  0  0  0  0  0
   -5.4803    2.9667  -37.9750 H   0  0  0  0  0  0  0  0  0  0  0  0
   -7.0889    3.6955  -38.1319 H   0  0  0  0  0  0  0  0  0  0  0  0
   -5.5459    6.9843  -38.4212 H   0  0  0  0  0  0  0  0  0  0  0  0
   -4.1987    6.1171  -37.6606 H   0  0  0  0  0  0  0  0  0  0  0  0
   -4.9557    4.1654  -36.0166 H   0  0  0  0  0  0  0  0  0  0  0  0
   -8.0984    6.2475  -35.8755 H   0  0  0  0  0  0  0  0  0  0  0  0
   -7.9810    5.7801  -37.5829 H   0  0  0  0  0  0  0  0  0  0  0  0
   -7.5347    7.4220  -37.0799 H   0  0  0  0  0  0  0  0  0  0  0  0
   -5.1391    7.6702  -35.7516 H   0  0  0  0  0  0  0  0  0  0  0  0
   -4.6547    6.1433  -34.9693 H   0  0  0  0  0  0  0  0  0  0  0  0
   -6.7567    2.7930  -35.4866 H   0  0  0  0  0  0  0  0  0  0  0  0
   -6.7845    4.1510  -34.5802 H   0  0  0  0  0  0  0  0  0  0  0  0
   -7.2141    7.3766  -34.8433 H   0  0  0  0  0  0  0  0  0  0  0  0
  1  3  1  0  0  0  0
  1  8  1  0  0  0  0
  2  4  1  0  0  0  0
  2  8  1  0  0  0  0
  3  4  1  0  0  0  0
  3  7  1  0  0  0  0
  4  5  1  0  0  0  0
  4  6  1  0  0  0  0
  6  9  1  0  0  0  0
  1 10  1  0  0  0  0
  1 11  1  0  0  0  0
  2 12  1  0  0  0  0
  2 13  1  0  0  0  0
  3 14  1  0  0  0  0
  5 15  1  0  0  0  0
  5 16  1  0  0  0  0
  5 17  1  0  0  0  0
  6 18  1  0  0  0  0
  6 19  1  0  0  0  0
  7 20  1  0  0  0  0
  7 21  1  0  0  0  0
  9 22  1  0  0  0  0
M  END
> <id>
EN300-2996604

> <smiles>
CC1(CO)COCC1N

> <MDLNUMBER>
MFCD24127071

> <IUPAC Name>
(4-amino-3-methyloxolan-3-yl)methanol

> <CAS>
1501749-81-0

> <URL>
https://www.enaminestore.com/catalog/EN300-2996604

> <ROCS_ShapeQuery>
hit0

> <ROCS_TanimotoCombo>
0.994 

> <ROCS_ShapeTanimoto>
0.504 

> <ROCS_ColorTanimoto>
0.490 

> <ROCS_RefTversky>
1.324 

> <ROCS_RefColorTversky>
0.658 

> <ROCS_RefTverskyCombo>
1.982 

> <ROCS_FitTversky>
0.448 

> <ROCS_FitColorTversky>
0.658 

> <ROCS_FitTverskyCombo>
1.106 

> <ROCS_ColorScore>
-3.947

> <ROCS_Overlap>
161.110

> <ROCS_Rank>
365                 

$$$$
untitled-dbase-51651_29
  -OEChem-06232314393D

 20 21  0     1  0  0  0  0  0999 V2000
   -7.4303    7.9136  -36.3356 C   0  0  0  0  0  0  0  0  0  0  0  0
   -7.0713    8.1142  -33.9622 C   0  0  0  0  0  0  0  0  0  0  0  0
   -6.6457    6.9352  -35.7618 C   0  0  0  0  0  0  0  0  0  0  0  0
   -5.6040    6.1109  -37.9280 C   0  0  0  0  0  0  0  0  0  0  0  0
   -6.0813    3.8371  -37.8439 C   0  0  0  0  0  0  0  0  0  0  0  0
   -6.0072    5.7736  -36.4924 C   0  0  2  0  0  0  0  0  0  0  0  0
   -6.8418    4.5206  -36.7259 C   0  0  2  0  0  0  0  0  0  0  0  0
   -6.4384    7.0488  -34.4010 N   0  0  0  0  0  0  0  0  0  0  0  0
   -5.5284    4.8762  -38.6558 O   0  0  0  0  0  0  0  0  0  0  0  0
   -6.8982    3.7016  -35.5744 O   0  0  0  0  0  0  0  0  0  0  0  0
   -7.9361    9.0251  -35.1315 S   0  0  0  0  0  0  0  0  0  0  0  0
   -7.7249    8.0287  -37.3693 H   0  0  0  0  0  0  0  0  0  0  0  0
   -7.0522    8.4067  -32.9213 H   0  0  0  0  0  0  0  0  0  0  0  0
   -6.2963    6.7889  -38.4360 H   0  0  0  0  0  0  0  0  0  0  0  0
   -4.6045    6.5588  -37.9517 H   0  0  0  0  0  0  0  0  0  0  0  0
   -5.2716    3.1956  -37.4886 H   0  0  0  0  0  0  0  0  0  0  0  0
   -6.7525    3.2527  -38.4794 H   0  0  0  0  0  0  0  0  0  0  0  0
   -5.0550    5.5321  -35.9230 H   0  0  0  0  0  0  0  0  0  0  0  0
   -7.8903    4.7377  -37.0356 H   0  0  0  0  0  0  0  0  0  0  0  0
   -7.3519    2.8864  -35.8382 H   0  0  0  0  0  0  0  0  0  0  0  0
  1  3  2  0  0  0  0
  1 11  1  0  0  0  0
  2  8  2  0  0  0  0
  2 11  1  0  0  0  0
  3  6  1  1  0  0  0
  3  8  1  0  0  0  0
  4  6  1  0  0  0  0
  4  9  1  0  0  0  0
  5  7  1  0  0  0  0
  5  9  1  0  0  0  0
  6  7  1  0  0  0  0
  7 10  1  6  0  0  0
  1 12  1  0  0  0  0
  2 13  1  0  0  0  0
  4 14  1  0  0  0  0
  4 15  1  0  0  0  0
  5 16  1  0  0  0  0
  5 17  1  0  0  0  0
  6 18  1  0  0  0  0
  7 19  1  0  0  0  0
 10 20  1  0  0  0  0
M  END
> <id>
EN300-1636498

> <smiles>
O[C@@H]1COC[C@H]1C2=CSC=N2 |&1:1,5,r|

> <IUPAC Name>
rac-(3R,4S)-4-(1,3-thiazol-4-yl)oxolan-3-ol

> <CAS>
2227689-04-3

> <URL>
https://www.enaminestore.com/catalog/EN300-1636498

> <ROCS_ShapeQuery>
hit0

> <ROCS_TanimotoCombo>
0.993 

> <ROCS_ShapeTanimoto>
0.508 

> <ROCS_ColorTanimoto>
0.486 

> <ROCS_RefTversky>
1.547 

> <ROCS_RefColorTversky>
0.654 

> <ROCS_RefTverskyCombo>
2.201 

> <ROCS_FitTversky>
0.430 

> <ROCS_FitColorTversky>
0.654 

> <ROCS_FitTverskyCombo>
1.084 

> <ROCS_ColorScore>
-3.924

> <ROCS_Overlap>
196.016

> <ROCS_Rank>
366                 

$$$$
untitled-dbase-12115_57
  -OEChem-06232314393D

 23 23  0     1  0  0  0  0  0999 V2000
   -7.0389    3.6087  -35.6989 C   0  0  0  0  0  0  0  0  0  0  0  0
   -5.0034    5.0304  -35.2109 C   0  0  0  0  0  0  0  0  0  0  0  0
   -6.9478    3.9849  -37.1757 C   0  0  0  0  0  0  0  0  0  0  0  0
   -4.9121    5.4069  -36.6875 C   0  0  0  0  0  0  0  0  0  0  0  0
   -6.4306    4.6706  -34.7701 C   0  0  1  0  0  0  0  0  0  0  0  0
   -5.5159    4.3266  -37.5826 C   0  0  2  0  0  0  0  0  0  0  0  0
   -7.3213    5.9127  -34.6741 C   0  0  0  0  0  0  0  0  0  0  0  0
   -5.4961    4.7631  -38.9376 O   0  0  0  0  0  0  0  0  0  0  0  0
   -6.5365    6.9925  -34.2038 O   0  0  0  0  0  0  0  0  0  0  0  0
   -8.0952    3.4393  -35.4281 H   0  0  0  0  0  0  0  0  0  0  0  0
   -6.5301    2.6432  -35.5410 H   0  0  0  0  0  0  0  0  0  0  0  0
   -4.3296    4.1797  -35.0148 H   0  0  0  0  0  0  0  0  0  0  0  0
   -4.6228    5.8644  -34.5963 H   0  0  0  0  0  0  0  0  0  0  0  0
   -7.3103    3.1508  -37.7848 H   0  0  0  0  0  0  0  0  0  0  0  0
   -7.6022    4.8424  -37.3604 H   0  0  0  0  0  0  0  0  0  0  0  0
   -5.4347    6.3565  -36.8403 H   0  0  0  0  0  0  0  0  0  0  0  0
   -3.8617    5.5590  -36.9576 H   0  0  0  0  0  0  0  0  0  0  0  0
   -6.3667    4.2300  -33.7531 H   0  0  0  0  0  0  0  0  0  0  0  0
   -4.8961    3.4169  -37.5281 H   0  0  0  0  0  0  0  0  0  0  0  0
   -8.1384    5.7292  -33.9774 H   0  0  0  0  0  0  0  0  0  0  0  0
   -7.7220    6.1579  -35.6570 H   0  0  0  0  0  0  0  0  0  0  0  0
   -4.5718    4.9668  -39.1477 H   0  0  0  0  0  0  0  0  0  0  0  0
   -5.8184    7.1254  -34.8463 H   0  0  0  0  0  0  0  0  0  0  0  0
  1  3  1  0  0  0  0
  1  5  1  0  0  0  0
  2  4  1  0  0  0  0
  2  5  1  0  0  0  0
  3  6  1  0  0  0  0
  4  6  1  0  0  0  0
  5  7  1  1  0  0  0
  6  8  1  1  0  0  0
  7  9  1  0  0  0  0
  1 10  1  0  0  0  0
  1 11  1  0  0  0  0
  2 12  1  0  0  0  0
  2 13  1  0  0  0  0
  3 14  1  0  0  0  0
  3 15  1  0  0  0  0
  4 16  1  0  0  0  0
  4 17  1  0  0  0  0
  5 18  1  0  0  0  0
  6 19  1  0  0  0  0
  7 20  1  0  0  0  0
  7 21  1  0  0  0  0
  8 22  1  0  0  0  0
  9 23  1  0  0  0  0
M  END
> <id>
EN300-198663

> <smiles>
OC[C@H]1CC[C@@H](O)CC1

> <MDLNUMBER>
MFCD09866843

> <IUPAC Name>
(1s,4s)-4-(hydroxymethyl)cyclohexan-1-ol

> <CAS>
3685-24-3

> <Purity>
95

> <URL>
https://www.enaminestore.com/catalog/EN300-198663

> <ROCS_ShapeQuery>
hit0

> <ROCS_TanimotoCombo>
0.993 

> <ROCS_ShapeTanimoto>
0.442 

> <ROCS_ColorTanimoto>
0.552 

> <ROCS_RefTversky>
1.186 

> <ROCS_RefColorTversky>
0.657 

> <ROCS_RefTverskyCombo>
1.843 

> <ROCS_FitTversky>
0.413 

> <ROCS_FitColorTversky>
0.774 

> <ROCS_FitTverskyCombo>
1.188 

> <ROCS_ColorScore>
-3.910

> <ROCS_Overlap>
143.580

> <ROCS_Rank>
367                 

$$$$
untitled-dbase-179364_4
  -OEChem-06232314393D

 23 23  0     1  0  0  0  0  0999 V2000
   -7.6960    7.3347  -35.2210 C   0  0  0  0  0  0  0  0  0  0  0  0
   -7.7089    5.9608  -34.9802 C   0  0  0  0  0  0  0  0  0  0  0  0
   -6.0172    7.0194  -36.9296 C   0  0  0  0  0  0  0  0  0  0  0  0
   -6.8502    7.8640  -36.1958 C   0  0  0  0  0  0  0  0  0  0  0  0
   -6.0300    5.6456  -36.6887 C   0  0  0  0  0  0  0  0  0  0  0  0
   -6.8759    5.1163  -35.7140 C   0  0  0  0  0  0  0  0  0  0  0  0
   -6.8379    9.3327  -36.4538 C   0  0  0  0  0  0  0  0  0  0  0  0
   -3.6560    5.1303  -37.3573 C   0  0  0  0  0  0  0  0  0  0  0  0
   -5.1328    4.7560  -37.4844 C   0  0  2  0  0  0  0  0  0  0  0  0
   -6.9002    3.7770  -35.4645 O   0  0  0  0  0  0  0  0  0  0  0  0
   -5.4994    4.8394  -38.8658 O   0  0  0  0  0  0  0  0  0  0  0  0
   -8.3488    7.9854  -34.6451 H   0  0  0  0  0  0  0  0  0  0  0  0
   -8.3719    5.5554  -34.2205 H   0  0  0  0  0  0  0  0  0  0  0  0
   -5.3584    7.4330  -37.6896 H   0  0  0  0  0  0  0  0  0  0  0  0
   -6.0958    9.8267  -35.8147 H   0  0  0  0  0  0  0  0  0  0  0  0
   -6.5950    9.5513  -37.5018 H   0  0  0  0  0  0  0  0  0  0  0  0
   -7.8207    9.7803  -36.2557 H   0  0  0  0  0  0  0  0  0  0  0  0
   -3.4885    6.1761  -37.6341 H   0  0  0  0  0  0  0  0  0  0  0  0
   -3.0275    4.4989  -37.9955 H   0  0  0  0  0  0  0  0  0  0  0  0
   -3.3036    4.9803  -36.3309 H   0  0  0  0  0  0  0  0  0  0  0  0
   -5.2418    3.6976  -37.1947 H   0  0  0  0  0  0  0  0  0  0  0  0
   -7.5382    3.5789  -34.7612 H   0  0  0  0  0  0  0  0  0  0  0  0
   -6.4208    4.5474  -38.9184 H   0  0  0  0  0  0  0  0  0  0  0  0
  1  2  1  0  0  0  0
  1  4  2  0  0  0  0
  2  6  2  0  0  0  0
  3  4  1  0  0  0  0
  3  5  2  0  0  0  0
  4  7  1  0  0  0  0
  5  6  1  0  0  0  0
  5  9  1  0  0  0  0
  6 10  1  0  0  0  0
  8  9  1  6  0  0  0
  9 11  1  0  0  0  0
  1 12  1  0  0  0  0
  2 13  1  0  0  0  0
  3 14  1  0  0  0  0
  7 15  1  0  0  0  0
  7 16  1  0  0  0  0
  7 17  1  0  0  0  0
  8 18  1  0  0  0  0
  8 19  1  0  0  0  0
  8 20  1  0  0  0  0
  9 21  1  0  0  0  0
 10 22  1  0  0  0  0
 11 23  1  0  0  0  0
M  END
> <id>
EN300-1844838

> <smiles>
C[C@H](O)C=1C=C(C)C=CC1O

> <MDLNUMBER>
MFCD18340247

> <IUPAC Name>
2-[(1S)-1-hydroxyethyl]-4-methylphenol

> <CAS>
1344912-98-6

> <URL>
https://www.enaminestore.com/catalog/EN300-1844838

> <ROCS_ShapeQuery>
hit0

> <ROCS_TanimotoCombo>
0.993 

> <ROCS_ShapeTanimoto>
0.427 

> <ROCS_ColorTanimoto>
0.565 

> <ROCS_RefTversky>
1.374 

> <ROCS_RefColorTversky>
0.668 

> <ROCS_RefTverskyCombo>
2.042 

> <ROCS_FitTversky>
0.383 

> <ROCS_FitColorTversky>
0.786 

> <ROCS_FitTverskyCombo>
1.169 

> <ROCS_ColorScore>
-3.976

> <ROCS_Overlap>
174.004

> <ROCS_Rank>
368                 

$$$$
untitled-dbase-49864_0
  -OEChem-06232314393D

 27 28  0     1  0  0  0  0  0999 V2000
   -5.6657    3.2357  -37.4013 C   0  0  0  0  0  0  0  0  0  0  0  0
   -5.1742    3.6087  -38.6419 C   0  0  0  0  0  0  0  0  0  0  0  0
   -6.0896    5.7091  -38.4726 C   0  0  0  0  0  0  0  0  0  0  0  0
   -6.6243    5.4344  -37.2242 C   0  0  0  0  0  0  0  0  0  0  0  0
   -6.4036    4.1718  -36.6853 C   0  0  0  0  0  0  0  0  0  0  0  0
   -7.5847    8.8540  -37.1309 C   0  0  0  0  0  0  0  0  0  0  0  0
   -8.1672    7.4744  -37.4214 C   0  0  0  0  0  0  0  0  0  0  0  0
   -7.1536    8.7626  -35.6790 C   0  0  0  0  0  0  0  0  0  0  0  0
   -7.4201    6.4949  -36.4911 C   0  0  2  0  0  0  0  0  0  0  0  0
   -6.5270    7.3771  -35.5973 C   0  0  2  0  0  0  0  0  0  0  0  0
   -5.3678    4.8257  -39.1980 N   0  0  0  0  0  0  0  0  0  0  0  0
   -6.9192    3.8252  -35.4180 N   0  0  0  0  0  0  0  0  0  0  0  0
   -6.5239    6.8975  -34.2632 O   0  0  0  0  0  0  0  0  0  0  0  0
   -5.4744    2.2419  -37.0107 H   0  0  0  0  0  0  0  0  0  0  0  0
   -4.5920    2.9157  -39.2403 H   0  0  0  0  0  0  0  0  0  0  0  0
   -6.2287    6.6768  -38.9445 H   0  0  0  0  0  0  0  0  0  0  0  0
   -6.7143    9.0356  -37.7730 H   0  0  0  0  0  0  0  0  0  0  0  0
   -8.3093    9.6547  -37.3027 H   0  0  0  0  0  0  0  0  0  0  0  0
   -9.2316    7.4735  -37.1546 H   0  0  0  0  0  0  0  0  0  0  0  0
   -8.0974    7.2232  -38.4851 H   0  0  0  0  0  0  0  0  0  0  0  0
   -6.4449    9.5497  -35.4029 H   0  0  0  0  0  0  0  0  0  0  0  0
   -8.0146    8.8452  -35.0045 H   0  0  0  0  0  0  0  0  0  0  0  0
   -8.1665    5.9429  -35.8647 H   0  0  0  0  0  0  0  0  0  0  0  0
   -5.4911    7.4108  -35.9563 H   0  0  0  0  0  0  0  0  0  0  0  0
   -6.7856    2.8957  -35.0756 H   0  0  0  0  0  0  0  0  0  0  0  0
   -7.4885    4.4841  -34.9275 H   0  0  0  0  0  0  0  0  0  0  0  0
   -6.1141    6.0161  -34.2790 H   0  0  0  0  0  0  0  0  0  0  0  0
  1  2  1  0  0  0  0
  1  5  2  0  0  0  0
  2 11  2  0  0  0  0
  3  4  2  0  0  0  0
  3 11  1  0  0  0  0
  4  5  1  0  0  0  0
  4  9  1  6  0  0  0
  5 12  1  0  0  0  0
  6  7  1  0  0  0  0
  6  8  1  0  0  0  0
  7  9  1  0  0  0  0
  8 10  1  0  0  0  0
  9 10  1  0  0  0  0
 10 13  1  1  0  0  0
  1 14  1  0  0  0  0
  2 15  1  0  0  0  0
  3 16  1  0  0  0  0
  6 17  1  0  0  0  0
  6 18  1  0  0  0  0
  7 19  1  0  0  0  0
  7 20  1  0  0  0  0
  8 21  1  0  0  0  0
  8 22  1  0  0  0  0
  9 23  1  0  0  0  0
 10 24  1  0  0  0  0
 12 25  1  0  0  0  0
 12 26  1  0  0  0  0
 13 27  1  0  0  0  0
M  END
> <id>
EN300-1637536

> <smiles>
NC=1C=CN=CC1[C@@H]2CCC[C@H]2O |&1:7,11,r|

> <IUPAC Name>
rac-(1R,2S)-2-(4-aminopyridin-3-yl)cyclopentan-1-ol

> <CAS>
2227887-28-5

> <URL>
https://www.enaminestore.com/catalog/EN300-1637536

> <ROCS_ShapeQuery>
hit0

> <ROCS_TanimotoCombo>
0.993 

> <ROCS_ShapeTanimoto>
0.409 

> <ROCS_ColorTanimoto>
0.584 

> <ROCS_RefTversky>
1.499 

> <ROCS_RefColorTversky>
0.792 

> <ROCS_RefTverskyCombo>
2.291 

> <ROCS_FitTversky>
0.360 

> <ROCS_FitColorTversky>
0.689 

> <ROCS_FitTverskyCombo>
1.050 

> <ROCS_ColorScore>
-4.792

> <ROCS_Overlap>
197.211

> <ROCS_Rank>
369                 

$$$$
untitled-dbase-173643_5
  -OEChem-06232314393D

 11 10  0     1  0  0  0  0  0999 V2000
   -7.2183    5.9745  -34.6013 C   0  0  0  0  0  0  0  0  0  0  0  0
   -7.1267    5.1560  -35.8696 C   0  0  1  0  0  0  0  0  0  0  0  0
   -6.0067    5.6689  -36.7448 C   0  0  0  0  0  0  0  0  0  0  0  0
   -6.4911    6.9281  -34.3426 O   0  0  0  0  0  0  0  0  0  0  0  0
   -6.8773    3.8011  -35.5500 O   0  0  0  0  0  0  0  0  0  0  0  0
   -6.1960    6.9597  -37.0924 F   0  0  0  0  0  0  0  0  0  0  0  0
   -4.8201    5.5853  -36.1025 F   0  0  0  0  0  0  0  0  0  0  0  0
   -5.9022    4.9440  -37.8800 F   0  0  0  0  0  0  0  0  0  0  0  0
   -7.9802    5.6401  -33.8758 H   0  0  0  0  0  0  0  0  0  0  0  0
   -8.0833    5.2256  -36.3970 H   0  0  0  0  0  0  0  0  0  0  0  0
   -6.0346    3.7710  -35.0647 H   0  0  0  0  0  0  0  0  0  0  0  0
  1  2  1  0  0  0  0
  1  4  2  0  0  0  0
  2  3  1  0  0  0  0
  2  5  1  0  0  0  0
  3  6  1  0  0  0  0
  3  7  1  0  0  0  0
  3  8  1  0  0  0  0
  1  9  1  0  0  0  0
  2 10  1  0  0  0  0
  5 11  1  0  0  0  0
M  END
> <id>
EN300-4306230

> <smiles>
OC(C=O)C(F)(F)F

> <MDLNUMBER>
MFCD21781407

> <IUPAC Name>
3,3,3-trifluoro-2-hydroxypropanal

> <CAS>
152606-47-8

> <URL>
https://www.enaminestore.com/catalog/EN300-4306230

> <ROCS_ShapeQuery>
hit0

> <ROCS_TanimotoCombo>
0.993 

> <ROCS_ShapeTanimoto>
0.493 

> <ROCS_ColorTanimoto>
0.500 

> <ROCS_RefTversky>
1.226 

> <ROCS_RefColorTversky>
0.513 

> <ROCS_RefTverskyCombo>
1.739 

> <ROCS_FitTversky>
0.452 

> <ROCS_FitColorTversky>
0.952 

> <ROCS_FitTverskyCombo>
1.404 

> <ROCS_ColorScore>
-2.999

> <ROCS_Overlap>
146.981

> <ROCS_Rank>
370                 

$$$$
untitled-dbase-97195_2
  -OEChem-06232314393D

 19 19  0     0  0  0  0  0  0999 V2000
   -6.4529    4.4310  -36.5490 C   0  0  0  0  0  0  0  0  0  0  0  0
   -6.3960    5.7970  -36.6331 C   0  0  0  0  0  0  0  0  0  0  0  0
   -5.8967    3.9978  -37.7650 C   0  0  0  0  0  0  0  0  0  0  0  0
   -6.7951    6.8311  -35.7407 C   0  0  0  0  0  0  0  0  0  0  0  0
   -5.6984    2.6156  -38.2343 C   0  0  0  0  0  0  0  0  0  0  0  0
   -8.2272    8.7538  -35.4836 C   0  0  0  0  0  0  0  0  0  0  0  0
   -5.5234    5.0172  -38.5438 N   0  0  0  0  0  0  0  0  0  0  0  0
   -6.9316    3.6837  -35.5355 N   0  0  0  0  0  0  0  0  0  0  0  0
   -6.3571    7.0014  -34.5758 O   0  0  0  0  0  0  0  0  0  0  0  0
   -5.8433    6.1590  -37.8191 O   0  0  0  0  0  0  0  0  0  0  0  0
   -7.7453    7.6704  -36.2858 O   0  0  0  0  0  0  0  0  0  0  0  0
   -6.5778    2.2526  -38.7931 H   0  0  0  0  0  0  0  0  0  0  0  0
   -4.8207    2.5229  -38.8984 H   0  0  0  0  0  0  0  0  0  0  0  0
   -5.5214    1.9137  -37.3999 H   0  0  0  0  0  0  0  0  0  0  0  0
   -8.9690    9.3242  -36.0480 H   0  0  0  0  0  0  0  0  0  0  0  0
   -7.3918    9.3999  -35.2025 H   0  0  0  0  0  0  0  0  0  0  0  0
   -8.6917    8.3488  -34.5814 H   0  0  0  0  0  0  0  0  0  0  0  0
   -7.2794    4.1025  -34.6584 H   0  0  0  0  0  0  0  0  0  0  0  0
   -6.8889    2.6524  -35.5436 H   0  0  0  0  0  0  0  0  0  0  0  0
  1  2  2  0  0  0  0
  1  3  1  0  0  0  0
  1  8  1  0  0  0  0
  2  4  1  0  0  0  0
  2 10  1  0  0  0  0
  3  5  1  0  0  0  0
  3  7  2  0  0  0  0
  4  9  2  0  0  0  0
  4 11  1  0  0  0  0
  6 11  1  0  0  0  0
  7 10  1  0  0  0  0
  5 12  1  0  0  0  0
  5 13  1  0  0  0  0
  5 14  1  0  0  0  0
  6 15  1  0  0  0  0
  6 16  1  0  0  0  0
  6 17  1  0  0  0  0
  8 18  1  0  0  0  0
  8 19  1  0  0  0  0
M  END
> <id>
EN300-268679

> <smiles>
COC(=O)C=1ON=C(C)C1N

> <MDLNUMBER>
MFCD08689882

> <IUPAC Name>
methyl 4-amino-3-methyl-1,2-oxazole-5-carboxylate

> <CAS>
83988-30-1

> <Purity>
95

> <URL>
https://www.enaminestore.com/catalog/EN300-268679

> <MP>
110-112

> <ROCS_ShapeQuery>
hit0

> <ROCS_TanimotoCombo>
0.993 

> <ROCS_ShapeTanimoto>
0.469 

> <ROCS_ColorTanimoto>
0.523 

> <ROCS_RefTversky>
1.496 

> <ROCS_RefColorTversky>
0.635 

> <ROCS_RefTverskyCombo>
2.131 

> <ROCS_FitTversky>
0.406 

> <ROCS_FitColorTversky>
0.748 

> <ROCS_FitTverskyCombo>
1.154 

> <ROCS_ColorScore>
-3.780

> <ROCS_Overlap>
190.636

> <ROCS_Rank>
371                 

$$$$
untitled-dbase-146905_48
  -OEChem-06232314393D

 21 21  0     1  0  0  0  0  0999 V2000
   -5.5848    4.5414  -36.6340 C   0  0  0  0  0  0  0  0  0  0  0  0
   -5.8593    5.1243  -35.3969 C   0  0  0  0  0  0  0  0  0  0  0  0
   -6.1807    6.6057  -37.7389 C   0  0  0  0  0  0  0  0  0  0  0  0
   -6.4553    7.1886  -36.5017 C   0  0  0  0  0  0  0  0  0  0  0  0
   -5.7454    5.2822  -37.8050 C   0  0  0  0  0  0  0  0  0  0  0  0
   -6.2946    6.4478  -35.3307 C   0  0  0  0  0  0  0  0  0  0  0  0
   -8.4477    8.7530  -36.5369 C   0  0  0  0  0  0  0  0  0  0  0  0
   -6.9204    8.6064  -36.4496 C   0  0  1  0  0  0  0  0  0  0  0  0
   -5.4770    4.7131  -39.0119 O   0  0  0  0  0  0  0  0  0  0  0  0
   -6.5596    7.0012  -34.1142 O   0  0  0  0  0  0  0  0  0  0  0  0
   -6.3087    9.4661  -34.9462 S   0  0  0  0  0  0  0  0  0  0  0  0
   -5.2455    3.5103  -36.6794 H   0  0  0  0  0  0  0  0  0  0  0  0
   -5.7298    4.5421  -34.4883 H   0  0  0  0  0  0  0  0  0  0  0  0
   -6.3056    7.1801  -38.6537 H   0  0  0  0  0  0  0  0  0  0  0  0
   -8.9262    8.2017  -35.7190 H   0  0  0  0  0  0  0  0  0  0  0  0
   -8.7693    9.7976  -36.4580 H   0  0  0  0  0  0  0  0  0  0  0  0
   -8.8430    8.3504  -37.4765 H   0  0  0  0  0  0  0  0  0  0  0  0
   -6.5043    9.1814  -37.2961 H   0  0  0  0  0  0  0  0  0  0  0  0
   -5.1861    3.7948  -38.8936 H   0  0  0  0  0  0  0  0  0  0  0  0
   -6.3982    6.3543  -33.4097 H   0  0  0  0  0  0  0  0  0  0  0  0
   -6.9019    8.6347  -34.0821 H   0  0  0  0  0  0  0  0  0  0  0  0
  1  2  1  0  0  0  0
  1  5  2  0  0  0  0
  2  6  2  0  0  0  0
  3  4  2  0  0  0  0
  3  5  1  0  0  0  0
  4  6  1  0  0  0  0
  4  8  1  0  0  0  0
  5  9  1  0  0  0  0
  6 10  1  0  0  0  0
  7  8  1  0  0  0  0
  8 11  1  0  0  0  0
  1 12  1  0  0  0  0
  2 13  1  0  0  0  0
  3 14  1  0  0  0  0
  7 15  1  0  0  0  0
  7 16  1  0  0  0  0
  7 17  1  0  0  0  0
  8 18  1  0  0  0  0
  9 19  1  0  0  0  0
 10 20  1  0  0  0  0
 11 21  1  0  0  0  0
M  END
> <id>
EN300-1288553

> <smiles>
CC(S)C=1C=C(O)C=CC1O

> <MDLNUMBER>
MFCD11193827

> <IUPAC Name>
2-(1-sulfanylethyl)benzene-1,4-diol

> <CAS>
1039319-97-5

> <URL>
https://www.enaminestore.com/catalog/EN300-1288553

> <ROCS_ShapeQuery>
hit0

> <ROCS_TanimotoCombo>
0.993 

> <ROCS_ShapeTanimoto>
0.470 

> <ROCS_ColorTanimoto>
0.523 

> <ROCS_RefTversky>
1.443 

> <ROCS_RefColorTversky>
0.635 

> <ROCS_RefTverskyCombo>
2.078 

> <ROCS_FitTversky>
0.410 

> <ROCS_FitColorTversky>
0.748 

> <ROCS_FitTverskyCombo>
1.158 

> <ROCS_ColorScore>
-3.777

> <ROCS_Overlap>
181.906

> <ROCS_Rank>
372                 

$$$$
untitled-dbase-157637_6
  -OEChem-06232314393D

 18 18  0     0  0  0  0  0  0999 V2000
   -5.3719    7.0024  -36.6713 C   0  0  0  0  0  0  0  0  0  0  0  0
   -6.0096    7.9041  -35.8194 C   0  0  0  0  0  0  0  0  0  0  0  0
   -5.6575    5.6398  -36.5848 C   0  0  0  0  0  0  0  0  0  0  0  0
   -6.5808    5.1789  -35.6462 C   0  0  0  0  0  0  0  0  0  0  0  0
   -6.9329    7.4433  -34.8808 C   0  0  0  0  0  0  0  0  0  0  0  0
   -7.2184    6.0807  -34.7942 C   0  0  0  0  0  0  0  0  0  0  0  0
   -4.9612    4.6970  -37.5116 C   0  0  0  0  0  0  0  0  0  0  0  0
   -6.8804    3.8024  -35.5464 N   0  0  0  0  0  0  0  0  0  0  0  0
   -5.5282    4.8105  -38.8101 O   0  0  0  0  0  0  0  0  0  0  0  0
   -7.5434    8.3094  -34.0616 F   0  0  0  0  0  0  0  0  0  0  0  0
   -8.1084    5.6497  -33.8888 F   0  0  0  0  0  0  0  0  0  0  0  0
   -4.6548    7.3714  -37.3999 H   0  0  0  0  0  0  0  0  0  0  0  0
   -5.7868    8.9649  -35.8862 H   0  0  0  0  0  0  0  0  0  0  0  0
   -3.8884    4.9201  -37.5743 H   0  0  0  0  0  0  0  0  0  0  0  0
   -5.0643    3.6594  -37.1688 H   0  0  0  0  0  0  0  0  0  0  0  0
   -7.5094    3.4923  -34.8350 H   0  0  0  0  0  0  0  0  0  0  0  0
   -6.3873    3.1547  -36.1257 H   0  0  0  0  0  0  0  0  0  0  0  0
   -5.0511    4.1855  -39.3795 H   0  0  0  0  0  0  0  0  0  0  0  0
  1  2  1  0  0  0  0
  1  3  2  0  0  0  0
  2  5  2  0  0  0  0
  3  4  1  0  0  0  0
  3  7  1  0  0  0  0
  4  6  2  0  0  0  0
  4  8  1  0  0  0  0
  5  6  1  0  0  0  0
  5 10  1  0  0  0  0
  6 11  1  0  0  0  0
  7  9  1  0  0  0  0
  1 12  1  0  0  0  0
  2 13  1  0  0  0  0
  7 14  1  0  0  0  0
  7 15  1  0  0  0  0
  8 16  1  0  0  0  0
  8 17  1  0  0  0  0
  9 18  1  0  0  0  0
M  END
> <id>
EN300-7758048

> <smiles>
NC=1C(F)=C(F)C=CC1CO

> <MDLNUMBER>
MFCD25459491

> <IUPAC Name>
(2-amino-3,4-difluorophenyl)methanol

> <CAS>
1823914-87-9

> <Purity>
95

> <URL>
https://www.enaminestore.com/catalog/EN300-7758048

> <ROCS_ShapeQuery>
hit0

> <ROCS_TanimotoCombo>
0.992 

> <ROCS_ShapeTanimoto>
0.421 

> <ROCS_ColorTanimoto>
0.571 

> <ROCS_RefTversky>
1.374 

> <ROCS_RefColorTversky>
0.672 

> <ROCS_RefTverskyCombo>
2.046 

> <ROCS_FitTversky>
0.378 

> <ROCS_FitColorTversky>
0.792 

> <ROCS_FitTverskyCombo>
1.170 

> <ROCS_ColorScore>
-3.999

> <ROCS_Overlap>
174.546

> <ROCS_Rank>
373                 

$$$$
untitled-dbase-144107_1
  -OEChem-06232314393D

 14 13  0     0  0  0  0  0  0999 V2000
   -6.5381    4.7339  -36.5694 C   0  0  0  0  0  0  0  0  0  0  0  0
   -6.3445    6.9805  -35.5390 C   0  0  0  0  0  0  0  0  0  0  0  0
   -6.4391    4.0925  -37.9372 C   0  0  0  0  0  0  0  0  0  0  0  0
   -6.0933    8.2877  -35.9187 N   0  0  0  0  0  0  0  0  0  0  0  0
   -6.3206    6.1104  -36.6331 N   0  0  0  0  0  0  0  0  0  0  0  0
   -6.7800    4.0940  -35.5498 O   0  0  0  0  0  0  0  0  0  0  0  0
   -6.5599    6.6520  -34.3739 O   0  0  0  0  0  0  0  0  0  0  0  0
   -5.5280    4.7978  -38.7529 O   0  0  0  0  0  0  0  0  0  0  0  0
   -6.0828    3.0638  -37.8283 H   0  0  0  0  0  0  0  0  0  0  0  0
   -7.4215    4.0817  -38.4193 H   0  0  0  0  0  0  0  0  0  0  0  0
   -6.0829    9.0180  -35.2146 H   0  0  0  0  0  0  0  0  0  0  0  0
   -5.9194    8.5282  -36.8887 H   0  0  0  0  0  0  0  0  0  0  0  0
   -6.1298    6.5125  -37.5471 H   0  0  0  0  0  0  0  0  0  0  0  0
   -4.6616    4.7714  -38.3095 H   0  0  0  0  0  0  0  0  0  0  0  0
  1  3  1  0  0  0  0
  1  5  1  0  0  0  0
  1  6  2  0  0  0  0
  2  4  1  0  0  0  0
  2  5  1  0  0  0  0
  2  7  2  0  0  0  0
  3  8  1  0  0  0  0
  3  9  1  0  0  0  0
  3 10  1  0  0  0  0
  4 11  1  0  0  0  0
  4 12  1  0  0  0  0
  5 13  1  0  0  0  0
  8 14  1  0  0  0  0
M  END
> <id>
EN300-1262094

> <smiles>
NC(=O)NC(=O)CO

> <MDLNUMBER>
MFCD12137925

> <IUPAC Name>
(2-hydroxyacetyl)urea

> <CAS>
859736-82-6

> <Purity>
95

> <URL>
https://www.enaminestore.com/catalog/EN300-1262094

> <ROCS_ShapeQuery>
hit0

> <ROCS_TanimotoCombo>
0.992 

> <ROCS_ShapeTanimoto>
0.521 

> <ROCS_ColorTanimoto>
0.471 

> <ROCS_RefTversky>
1.246 

> <ROCS_RefColorTversky>
0.641 

> <ROCS_RefTverskyCombo>
1.888 

> <ROCS_FitTversky>
0.472 

> <ROCS_FitColorTversky>
0.640 

> <ROCS_FitTverskyCombo>
1.112 

> <ROCS_ColorScore>
-3.848

> <ROCS_Overlap>
148.721

> <ROCS_Rank>
374                 

$$$$
untitled-dbase-170539_17
  -OEChem-06232314393D

 24 24  0     1  0  0  0  0  0999 V2000
   -6.6174    7.3663  -35.3036 C   0  0  0  0  0  0  0  0  0  0  0  0
   -5.0654    5.5509  -35.9954 C   0  0  0  0  0  0  0  0  0  0  0  0
   -6.8208    6.2925  -37.5540 C   0  0  0  0  0  0  0  0  0  0  0  0
   -5.8639    6.7750  -36.4559 C   0  0  1  0  0  0  0  0  0  0  0  0
   -5.8395    4.3370  -36.5127 C   0  0  2  0  0  0  0  0  0  0  0  0
   -6.4536    4.8326  -37.8191 C   0  0  2  0  0  0  0  0  0  0  0  0
   -8.1105    9.1051  -34.7284 C   0  0  0  0  0  0  0  0  0  0  0  0
   -6.8526    3.9127  -35.5778 N   0  0  0  0  0  0  0  0  0  0  0  0
   -6.5747    6.9304  -34.1611 O   0  0  0  0  0  0  0  0  0  0  0  0
   -5.4992    4.7473  -38.8737 O   0  0  0  0  0  0  0  0  0  0  0  0
   -7.3379    8.4410  -35.7335 O   0  0  0  0  0  0  0  0  0  0  0  0
   -4.0537    5.5591  -36.4127 H   0  0  0  0  0  0  0  0  0  0  0  0
   -4.9615    5.5310  -34.9048 H   0  0  0  0  0  0  0  0  0  0  0  0
   -7.8833    6.3939  -37.2854 H   0  0  0  0  0  0  0  0  0  0  0  0
   -6.6769    6.8901  -38.4687 H   0  0  0  0  0  0  0  0  0  0  0  0
   -5.1967    7.5611  -36.8405 H   0  0  0  0  0  0  0  0  0  0  0  0
   -5.1633    3.5127  -36.7060 H   0  0  0  0  0  0  0  0  0  0  0  0
   -7.3403    4.2543  -38.1060 H   0  0  0  0  0  0  0  0  0  0  0  0
   -8.6458    9.9462  -35.1758 H   0  0  0  0  0  0  0  0  0  0  0  0
   -7.4487    9.4612  -33.9349 H   0  0  0  0  0  0  0  0  0  0  0  0
   -8.8312    8.3988  -34.3096 H   0  0  0  0  0  0  0  0  0  0  0  0
   -7.3501    3.1496  -35.9759 H   0  0  0  0  0  0  0  0  0  0  0  0
   -6.4062    3.6337  -34.7344 H   0  0  0  0  0  0  0  0  0  0  0  0
   -5.2996    3.8043  -39.0029 H   0  0  0  0  0  0  0  0  0  0  0  0
  1  4  1  1  0  0  0
  1  9  2  0  0  0  0
  1 11  1  0  0  0  0
  2  4  1  0  0  0  0
  2  5  1  0  0  0  0
  3  4  1  0  0  0  0
  3  6  1  0  0  0  0
  5  6  1  0  0  0  0
  5  8  1  1  0  0  0
  6 10  1  6  0  0  0
  7 11  1  0  0  0  0
  2 12  1  0  0  0  0
  2 13  1  0  0  0  0
  3 14  1  0  0  0  0
  3 15  1  0  0  0  0
  4 16  1  0  0  0  0
  5 17  1  0  0  0  0
  6 18  1  0  0  0  0
  7 19  1  0  0  0  0
  7 20  1  0  0  0  0
  7 21  1  0  0  0  0
  8 22  1  0  0  0  0
  8 23  1  0  0  0  0
 10 24  1  0  0  0  0
M  END
> <id>
EN300-19730916

> <smiles>
Cl.COC(=O)[C@H]1C[C@@H](N)[C@H](O)C1

> <IUPAC Name>
methyl (1S,3R,4R)-3-amino-4-hydroxycyclopentane-1-carboxylate hydrochloride

> <CAS>
220170-34-3

> <Purity>
95

> <URL>
https://www.enaminestore.com/catalog/EN300-19730916

> <ROCS_ShapeQuery>
hit0

> <ROCS_TanimotoCombo>
0.992 

> <ROCS_ShapeTanimoto>
0.504 

> <ROCS_ColorTanimoto>
0.487 

> <ROCS_RefTversky>
1.519 

> <ROCS_RefColorTversky>
0.655 

> <ROCS_RefTverskyCombo>
2.175 

> <ROCS_FitTversky>
0.430 

> <ROCS_FitColorTversky>
0.655 

> <ROCS_FitTverskyCombo>
1.086 

> <ROCS_ColorScore>
-3.932

> <ROCS_Overlap>
191.738

> <ROCS_Rank>
375                 

$$$$
untitled-dbase-170854_17
  -OEChem-06232314393D

 24 24  0     1  0  0  0  0  0999 V2000
   -6.6174    7.3663  -35.3036 C   0  0  0  0  0  0  0  0  0  0  0  0
   -5.0654    5.5509  -35.9954 C   0  0  0  0  0  0  0  0  0  0  0  0
   -6.8208    6.2925  -37.5540 C   0  0  0  0  0  0  0  0  0  0  0  0
   -5.8639    6.7750  -36.4559 C   0  0  1  0  0  0  0  0  0  0  0  0
   -5.8395    4.3370  -36.5127 C   0  0  2  0  0  0  0  0  0  0  0  0
   -6.4536    4.8326  -37.8191 C   0  0  2  0  0  0  0  0  0  0  0  0
   -8.1105    9.1051  -34.7284 C   0  0  0  0  0  0  0  0  0  0  0  0
   -6.8526    3.9127  -35.5778 N   0  0  0  0  0  0  0  0  0  0  0  0
   -6.5747    6.9304  -34.1611 O   0  0  0  0  0  0  0  0  0  0  0  0
   -5.4992    4.7473  -38.8737 O   0  0  0  0  0  0  0  0  0  0  0  0
   -7.3379    8.4410  -35.7335 O   0  0  0  0  0  0  0  0  0  0  0  0
   -4.0537    5.5591  -36.4127 H   0  0  0  0  0  0  0  0  0  0  0  0
   -4.9615    5.5310  -34.9048 H   0  0  0  0  0  0  0  0  0  0  0  0
   -7.8833    6.3939  -37.2854 H   0  0  0  0  0  0  0  0  0  0  0  0
   -6.6769    6.8901  -38.4687 H   0  0  0  0  0  0  0  0  0  0  0  0
   -5.1967    7.5611  -36.8405 H   0  0  0  0  0  0  0  0  0  0  0  0
   -5.1633    3.5127  -36.7060 H   0  0  0  0  0  0  0  0  0  0  0  0
   -7.3403    4.2543  -38.1060 H   0  0  0  0  0  0  0  0  0  0  0  0
   -8.6458    9.9462  -35.1758 H   0  0  0  0  0  0  0  0  0  0  0  0
   -7.4487    9.4612  -33.9349 H   0  0  0  0  0  0  0  0  0  0  0  0
   -8.8312    8.3988  -34.3096 H   0  0  0  0  0  0  0  0  0  0  0  0
   -7.3501    3.1496  -35.9759 H   0  0  0  0  0  0  0  0  0  0  0  0
   -6.4062    3.6337  -34.7344 H   0  0  0  0  0  0  0  0  0  0  0  0
   -5.2996    3.8043  -39.0029 H   0  0  0  0  0  0  0  0  0  0  0  0
  1  4  1  1  0  0  0
  1  9  2  0  0  0  0
  1 11  1  0  0  0  0
  2  4  1  0  0  0  0
  2  5  1  0  0  0  0
  3  4  1  0  0  0  0
  3  6  1  0  0  0  0
  5  6  1  0  0  0  0
  5  8  1  1  0  0  0
  6 10  1  6  0  0  0
  7 11  1  0  0  0  0
  2 12  1  0  0  0  0
  2 13  1  0  0  0  0
  3 14  1  0  0  0  0
  3 15  1  0  0  0  0
  4 16  1  0  0  0  0
  5 17  1  0  0  0  0
  6 18  1  0  0  0  0
  7 19  1  0  0  0  0
  7 20  1  0  0  0  0
  7 21  1  0  0  0  0
  8 22  1  0  0  0  0
  8 23  1  0  0  0  0
 10 24  1  0  0  0  0
M  END
> <id>
EN300-6814494

> <smiles>
COC(=O)[C@H]1C[C@@H](N)[C@H](O)C1

> <MDLNUMBER>
MFCD18834492

> <IUPAC Name>
methyl (1S,3R,4R)-3-amino-4-hydroxycyclopentane-1-carboxylate

> <CAS>
741237-05-8

> <URL>
https://www.enaminestore.com/catalog/EN300-6814494

> <ROCS_ShapeQuery>
hit0

> <ROCS_TanimotoCombo>
0.992 

> <ROCS_ShapeTanimoto>
0.504 

> <ROCS_ColorTanimoto>
0.487 

> <ROCS_RefTversky>
1.519 

> <ROCS_RefColorTversky>
0.655 

> <ROCS_RefTverskyCombo>
2.175 

> <ROCS_FitTversky>
0.430 

> <ROCS_FitColorTversky>
0.655 

> <ROCS_FitTverskyCombo>
1.086 

> <ROCS_ColorScore>
-3.932

> <ROCS_Overlap>
191.738

> <ROCS_Rank>
376                 

$$$$
untitled-dbase-53656_18
  -OEChem-06232314393D

 25 26  0     1  0  0  0  0  0999 V2000
   -9.0950    8.4859  -37.0797 C   0  0  0  0  0  0  0  0  0  0  0  0
   -9.1279    8.9305  -35.7580 C   0  0  0  0  0  0  0  0  0  0  0  0
   -8.1896    7.4953  -37.4600 C   0  0  0  0  0  0  0  0  0  0  0  0
   -8.2552    8.3846  -34.8167 C   0  0  0  0  0  0  0  0  0  0  0  0
   -7.3170    6.9494  -36.5187 C   0  0  0  0  0  0  0  0  0  0  0  0
   -7.3498    7.3940  -35.1970 C   0  0  0  0  0  0  0  0  0  0  0  0
   -5.8842    5.9871  -38.3984 C   0  0  0  0  0  0  0  0  0  0  0  0
   -5.9148    3.7302  -37.8147 C   0  0  0  0  0  0  0  0  0  0  0  0
   -6.3436    5.8786  -36.9485 C   0  0  2  0  0  0  0  0  0  0  0  0
   -6.8846    4.4580  -36.9051 C   0  0  2  0  0  0  0  0  0  0  0  0
   -5.5029    4.6668  -38.8169 O   0  0  0  0  0  0  0  0  0  0  0  0
   -6.5037    6.8719  -34.2653 O   0  0  0  0  0  0  0  0  0  0  0  0
   -6.8587    3.9303  -35.5930 O   0  0  0  0  0  0  0  0  0  0  0  0
   -9.7740    8.9111  -37.8133 H   0  0  0  0  0  0  0  0  0  0  0  0
   -9.8324    9.7023  -35.4625 H   0  0  0  0  0  0  0  0  0  0  0  0
   -8.1709    7.1569  -38.4926 H   0  0  0  0  0  0  0  0  0  0  0  0
   -8.2855    8.7350  -33.7885 H   0  0  0  0  0  0  0  0  0  0  0  0
   -6.6425    6.3789  -39.0799 H   0  0  0  0  0  0  0  0  0  0  0  0
   -4.9916    6.6150  -38.4734 H   0  0  0  0  0  0  0  0  0  0  0  0
   -5.0293    3.3568  -37.2933 H   0  0  0  0  0  0  0  0  0  0  0  0
   -6.4041    2.8990  -38.3316 H   0  0  0  0  0  0  0  0  0  0  0  0
   -5.4324    5.9915  -36.2734 H   0  0  0  0  0  0  0  0  0  0  0  0
   -7.9280    4.3686  -37.2837 H   0  0  0  0  0  0  0  0  0  0  0  0
   -6.6565    7.2891  -33.4030 H   0  0  0  0  0  0  0  0  0  0  0  0
   -7.4994    4.4435  -35.0771 H   0  0  0  0  0  0  0  0  0  0  0  0
  1  2  2  0  0  0  0
  1  3  1  0  0  0  0
  2  4  1  0  0  0  0
  3  5  2  0  0  0  0
  4  6  2  0  0  0  0
  5  6  1  0  0  0  0
  5  9  1  0  0  0  0
  6 12  1  0  0  0  0
  7  9  1  0  0  0  0
  7 11  1  0  0  0  0
  8 10  1  0  0  0  0
  8 11  1  0  0  0  0
  9 10  1  0  0  0  0
 10 13  1  0  0  0  0
  1 14  1  0  0  0  0
  2 15  1  0  0  0  0
  3 16  1  0  0  0  0
  4 17  1  0  0  0  0
  7 18  1  0  0  0  0
  7 19  1  0  0  0  0
  8 20  1  0  0  0  0
  8 21  1  0  0  0  0
  9 22  1  0  0  0  0
 10 23  1  0  0  0  0
 12 24  1  0  0  0  0
 13 25  1  0  0  0  0
M  END
> <id>
EN300-1624026

> <smiles>
OC1COCC1C=2C=CC=CC2O

> <IUPAC Name>
4-(2-hydroxyphenyl)oxolan-3-ol

> <CAS>
2172182-60-2

> <URL>
https://www.enaminestore.com/catalog/EN300-1624026

> <ROCS_ShapeQuery>
hit0

> <ROCS_TanimotoCombo>
0.991 

> <ROCS_ShapeTanimoto>
0.381 

> <ROCS_ColorTanimoto>
0.610 

> <ROCS_RefTversky>
1.433 

> <ROCS_RefColorTversky>
0.814 

> <ROCS_RefTverskyCombo>
2.248 

> <ROCS_FitTversky>
0.342 

> <ROCS_FitColorTversky>
0.709 

> <ROCS_FitTverskyCombo>
1.051 

> <ROCS_ColorScore>
-4.928

> <ROCS_Overlap>
189.007

> <ROCS_Rank>
377                 

$$$$
untitled-dbase-21997_0
  -OEChem-06232314393D

 14 14  0     0  0  0  0  0  0999 V2000
   -5.9924    6.2709  -36.3045 C   0  0  0  0  0  0  0  0  0  0  0  0
   -6.4057    3.9814  -36.7988 C   0  0  0  0  0  0  0  0  0  0  0  0
   -6.9224    4.7757  -34.7058 C   0  0  0  0  0  0  0  0  0  0  0  0
   -5.9472    5.2209  -37.2149 C   0  0  0  0  0  0  0  0  0  0  0  0
   -6.4879    6.0523  -35.0238 C   0  0  0  0  0  0  0  0  0  0  0  0
   -5.4353    5.4173  -38.5600 C   0  0  0  0  0  0  0  0  0  0  0  0
   -6.8939    3.7308  -35.5633 N   0  0  0  0  0  0  0  0  0  0  0  0
   -5.3769    4.5131  -39.3994 O   0  0  0  0  0  0  0  0  0  0  0  0
   -6.5441    7.0573  -34.1152 O   0  0  0  0  0  0  0  0  0  0  0  0
   -5.6427    7.2603  -36.5887 H   0  0  0  0  0  0  0  0  0  0  0  0
   -6.3950    3.1237  -37.4644 H   0  0  0  0  0  0  0  0  0  0  0  0
   -7.3183    4.5479  -33.7211 H   0  0  0  0  0  0  0  0  0  0  0  0
   -5.0826    6.4372  -38.8312 H   0  0  0  0  0  0  0  0  0  0  0  0
   -6.9141    6.7375  -33.2749 H   0  0  0  0  0  0  0  0  0  0  0  0
  1  4  2  0  0  0  0
  1  5  1  0  0  0  0
  2  4  1  0  0  0  0
  2  7  2  0  0  0  0
  3  5  2  0  0  0  0
  3  7  1  0  0  0  0
  4  6  1  0  0  0  0
  5  9  1  0  0  0  0
  6  8  2  0  0  0  0
  1 10  1  0  0  0  0
  2 11  1  0  0  0  0
  3 12  1  0  0  0  0
  6 13  1  0  0  0  0
  9 14  1  0  0  0  0
M  END
> <id>
EN300-318423

> <smiles>
OC=1C=NC=C(C=O)C1

> <MDLNUMBER>
MFCD13189119

> <IUPAC Name>
5-hydroxypyridine-3-carbaldehyde

> <CAS>
1060804-48-9

> <URL>
https://www.enaminestore.com/catalog/EN300-318423

> <ROCS_ShapeQuery>
hit0

> <ROCS_TanimotoCombo>
0.991 

> <ROCS_ShapeTanimoto>
0.527 

> <ROCS_ColorTanimoto>
0.464 

> <ROCS_RefTversky>
1.411 

> <ROCS_RefColorTversky>
0.586 

> <ROCS_RefTverskyCombo>
1.996 

> <ROCS_FitTversky>
0.457 

> <ROCS_FitColorTversky>
0.690 

> <ROCS_FitTverskyCombo>
1.148 

> <ROCS_ColorScore>
-3.486

> <ROCS_Overlap>
173.020

> <ROCS_Rank>
378                 

$$$$
untitled-dbase-174714_4
  -OEChem-06232314393D

 17 17  0     0  0  0  0  0  0999 V2000
   -5.2055    6.9079  -36.5815 C   0  0  0  0  0  0  0  0  0  0  0  0
   -5.7750    7.8103  -35.6832 C   0  0  0  0  0  0  0  0  0  0  0  0
   -5.5704    5.5621  -36.5439 C   0  0  0  0  0  0  0  0  0  0  0  0
   -6.5046    5.1186  -35.6078 C   0  0  0  0  0  0  0  0  0  0  0  0
   -6.7093    7.3668  -34.7471 C   0  0  0  0  0  0  0  0  0  0  0  0
   -7.0741    6.0210  -34.7094 C   0  0  0  0  0  0  0  0  0  0  0  0
   -4.9510    4.6107  -37.5136 C   0  0  0  0  0  0  0  0  0  0  0  0
   -6.8720    3.8076  -35.5594 O   0  0  0  0  0  0  0  0  0  0  0  0
   -5.5292    4.8047  -38.7980 O   0  0  0  0  0  0  0  0  0  0  0  0
   -7.2565    8.2327  -33.8840 F   0  0  0  0  0  0  0  0  0  0  0  0
   -7.9733    5.6017  -33.8087 F   0  0  0  0  0  0  0  0  0  0  0  0
   -4.4793    7.2631  -37.3080 H   0  0  0  0  0  0  0  0  0  0  0  0
   -5.4928    8.8585  -35.7132 H   0  0  0  0  0  0  0  0  0  0  0  0
   -3.8667    4.7664  -37.5885 H   0  0  0  0  0  0  0  0  0  0  0  0
   -5.1146    3.5697  -37.2052 H   0  0  0  0  0  0  0  0  0  0  0  0
   -7.5257    3.6686  -34.8562 H   0  0  0  0  0  0  0  0  0  0  0  0
   -6.4802    4.6340  -38.7052 H   0  0  0  0  0  0  0  0  0  0  0  0
  1  2  1  0  0  0  0
  1  3  2  0  0  0  0
  2  5  2  0  0  0  0
  3  4  1  0  0  0  0
  3  7  1  0  0  0  0
  4  6  2  0  0  0  0
  4  8  1  0  0  0  0
  5  6  1  0  0  0  0
  5 10  1  0  0  0  0
  6 11  1  0  0  0  0
  7  9  1  0  0  0  0
  1 12  1  0  0  0  0
  2 13  1  0  0  0  0
  7 14  1  0  0  0  0
  7 15  1  0  0  0  0
  8 16  1  0  0  0  0
  9 17  1  0  0  0  0
M  END
> <id>
EN300-160004

> <smiles>
OCC=1C=CC(F)=C(F)C1O

> <MDLNUMBER>
MFCD17169829

> <IUPAC Name>
2,3-difluoro-6-(hydroxymethyl)phenol

> <URL>
https://www.enaminestore.com/catalog/EN300-160004

> <ROCS_ShapeQuery>
hit0

> <ROCS_TanimotoCombo>
0.991 

> <ROCS_ShapeTanimoto>
0.420 

> <ROCS_ColorTanimoto>
0.571 

> <ROCS_RefTversky>
1.375 

> <ROCS_RefColorTversky>
0.672 

> <ROCS_RefTverskyCombo>
2.047 

> <ROCS_FitTversky>
0.377 

> <ROCS_FitColorTversky>
0.792 

> <ROCS_FitTverskyCombo>
1.169 

> <ROCS_ColorScore>
-3.998

> <ROCS_Overlap>
174.780

> <ROCS_Rank>
379                 

$$$$
untitled-dbase-54545_2
  -OEChem-06232314393D

 17 17  0     0  0  0  0  0  0999 V2000
   -5.8227    6.2249  -37.9062 C   0  0  0  0  0  0  0  0  0  0  0  0
   -6.3785    5.8944  -36.6944 C   0  0  0  0  0  0  0  0  0  0  0  0
   -6.3911    4.4867  -36.6853 C   0  0  0  0  0  0  0  0  0  0  0  0
   -6.8252    6.8315  -35.7067 C   0  0  0  0  0  0  0  0  0  0  0  0
   -8.3441    8.6456  -35.2857 C   0  0  0  0  0  0  0  0  0  0  0  0
   -5.8838    3.9593  -37.8026 N   0  0  0  0  0  0  0  0  0  0  0  0
   -5.5473    5.0412  -38.5252 N   0  0  0  0  0  0  0  0  0  0  0  0
   -6.8767    3.7807  -35.6306 N   0  0  0  0  0  0  0  0  0  0  0  0
   -6.3865    6.9130  -34.5387 O   0  0  0  0  0  0  0  0  0  0  0  0
   -7.8149    7.6619  -36.1812 O   0  0  0  0  0  0  0  0  0  0  0  0
   -5.6030    7.1729  -38.3767 H   0  0  0  0  0  0  0  0  0  0  0  0
   -9.1157    9.2269  -35.7965 H   0  0  0  0  0  0  0  0  0  0  0  0
   -7.5393    9.3042  -34.9496 H   0  0  0  0  0  0  0  0  0  0  0  0
   -8.7835    8.1405  -34.4222 H   0  0  0  0  0  0  0  0  0  0  0  0
   -5.1317    4.8988  -39.4375 H   0  0  0  0  0  0  0  0  0  0  0  0
   -7.2105    4.2449  -34.7786 H   0  0  0  0  0  0  0  0  0  0  0  0
   -6.8417    2.7555  -35.6061 H   0  0  0  0  0  0  0  0  0  0  0  0
  1  2  2  0  0  0  0
  1  7  1  0  0  0  0
  2  3  1  0  0  0  0
  2  4  1  0  0  0  0
  3  6  2  0  0  0  0
  3  8  1  0  0  0  0
  4  9  2  0  0  0  0
  4 10  1  0  0  0  0
  5 10  1  0  0  0  0
  6  7  1  0  0  0  0
  1 11  1  0  0  0  0
  5 12  1  0  0  0  0
  5 13  1  0  0  0  0
  5 14  1  0  0  0  0
  7 15  1  0  0  0  0
  8 16  1  0  0  0  0
  8 17  1  0  0  0  0
M  END
> <id>
EN300-229260

> <smiles>
COC(=O)C1=CNN=C1N

> <MDLNUMBER>
MFCD03990487

> <IUPAC Name>
methyl 3-amino-1H-pyrazole-4-carboxylate

> <CAS>
29097-00-5

> <Purity>
95

> <URL>
https://www.enaminestore.com/catalog/EN300-229260

> <MP>
130-135

> <ROCS_ShapeQuery>
hit0

> <ROCS_TanimotoCombo>
0.991 

> <ROCS_ShapeTanimoto>
0.498 

> <ROCS_ColorTanimoto>
0.493 

> <ROCS_RefTversky>
1.471 

> <ROCS_RefColorTversky>
0.661 

> <ROCS_RefTverskyCombo>
2.132 

> <ROCS_FitTversky>
0.430 

> <ROCS_FitColorTversky>
0.660 

> <ROCS_FitTverskyCombo>
1.090 

> <ROCS_ColorScore>
-3.964

> <ROCS_Overlap>
184.410

> <ROCS_Rank>
380                 

$$$$
untitled-dbase-178354_6
  -OEChem-06232314393D

 14 14  0     1  0  0  0  0  0999 V2000
   -5.6669    4.2259  -34.9178 C   0  0  0  0  0  0  0  0  0  0  0  0
   -6.3429    5.1242  -35.9260 C   0  0  2  0  0  0  0  0  0  0  0  0
   -5.8246    5.1801  -37.3263 C   0  0  0  0  0  0  0  0  0  0  0  0
   -7.1526    6.2866  -35.4506 C   0  0  0  0  0  0  0  0  0  0  0  0
   -6.8929    3.8500  -35.5636 O   0  0  0  0  0  0  0  0  0  0  0  0
   -6.5030    6.9052  -34.3418 O   0  0  0  0  0  0  0  0  0  0  0  0
   -4.7668    3.6988  -35.2080 H   0  0  0  0  0  0  0  0  0  0  0  0
   -5.7148    4.4882  -33.8686 H   0  0  0  0  0  0  0  0  0  0  0  0
   -6.4132    5.8736  -37.9456 H   0  0  0  0  0  0  0  0  0  0  0  0
   -5.8639    4.1922  -37.8094 H   0  0  0  0  0  0  0  0  0  0  0  0
   -4.7782    5.5197  -37.3545 H   0  0  0  0  0  0  0  0  0  0  0  0
   -8.1560    5.9725  -35.1236 H   0  0  0  0  0  0  0  0  0  0  0  0
   -7.2718    7.0451  -36.2399 H   0  0  0  0  0  0  0  0  0  0  0  0
   -5.6347    7.1970  -34.6592 H   0  0  0  0  0  0  0  0  0  0  0  0
  1  2  1  0  0  0  0
  1  5  1  0  0  0  0
  2  3  1  6  0  0  0
  2  4  1  0  0  0  0
  2  5  1  0  0  0  0
  4  6  1  0  0  0  0
  1  7  1  0  0  0  0
  1  8  1  0  0  0  0
  3  9  1  0  0  0  0
  3 10  1  0  0  0  0
  3 11  1  0  0  0  0
  4 12  1  0  0  0  0
  4 13  1  0  0  0  0
  6 14  1  0  0  0  0
M  END
> <id>
EN300-192314

> <smiles>
C[C@]1(CO)CO1

> <MDLNUMBER>
MFCD00075121

> <IUPAC Name>
[(2S)-2-methyloxiran-2-yl]methanol

> <CAS>
86884-90-4

> <Purity>
95

> <URL>
https://www.enaminestore.com/catalog/EN300-192314

> <ROCS_ShapeQuery>
hit0

> <ROCS_TanimotoCombo>
0.990 

> <ROCS_ShapeTanimoto>
0.491 

> <ROCS_ColorTanimoto>
0.499 

> <ROCS_RefTversky>
1.000 

> <ROCS_RefColorTversky>
0.512 

> <ROCS_RefTverskyCombo>
1.512 

> <ROCS_FitTversky>
0.492 

> <ROCS_FitColorTversky>
0.951 

> <ROCS_FitTverskyCombo>
1.443 

> <ROCS_ColorScore>
-2.997

> <ROCS_Overlap>
114.504

> <ROCS_Rank>
381                 

$$$$
untitled-dbase-147194_8
  -OEChem-06232314393D

 20 20  0     1  0  0  0  0  0999 V2000
   -7.7488    4.2240  -34.6977 C   0  0  0  0  0  0  0  0  0  0  0  0
   -5.6853    4.4106  -35.8645 C   0  0  0  0  0  0  0  0  0  0  0  0
   -8.3611    5.5212  -35.1946 C   0  0  0  0  0  0  0  0  0  0  0  0
   -5.9596    5.7424  -36.5663 C   0  0  1  0  0  0  0  0  0  0  0  0
   -6.4930    5.5353  -37.9813 C   0  0  0  0  0  0  0  0  0  0  0  0
   -7.6831    7.7506  -36.3971 O   0  0  0  0  0  0  0  0  0  0  0  0
   -6.4225    7.0592  -34.3302 O   0  0  0  0  0  0  0  0  0  0  0  0
   -6.8824    3.6509  -35.6793 O   0  0  0  0  0  0  0  0  0  0  0  0
   -5.5238    4.8256  -38.7332 O   0  0  0  0  0  0  0  0  0  0  0  0
   -7.0941    6.7162  -35.5694 S   0  0  0  0  0  0  0  0  0  0  0  0
   -7.1410    4.4281  -33.8093 H   0  0  0  0  0  0  0  0  0  0  0  0
   -8.5144    3.4935  -34.4081 H   0  0  0  0  0  0  0  0  0  0  0  0
   -4.9451    3.8043  -36.4052 H   0  0  0  0  0  0  0  0  0  0  0  0
   -5.2736    4.6010  -34.8652 H   0  0  0  0  0  0  0  0  0  0  0  0
   -8.9512    5.3650  -36.1022 H   0  0  0  0  0  0  0  0  0  0  0  0
   -8.9961    5.9712  -34.4238 H   0  0  0  0  0  0  0  0  0  0  0  0
   -5.0324    6.3292  -36.6024 H   0  0  0  0  0  0  0  0  0  0  0  0
   -6.6795    6.4994  -38.4576 H   0  0  0  0  0  0  0  0  0  0  0  0
   -7.4182    4.9571  -37.9537 H   0  0  0  0  0  0  0  0  0  0  0  0
   -5.8878    4.7077  -39.6268 H   0  0  0  0  0  0  0  0  0  0  0  0
  1  3  1  0  0  0  0
  1  8  1  0  0  0  0
  2  4  1  0  0  0  0
  2  8  1  0  0  0  0
  3 10  1  0  0  0  0
  4  5  1  0  0  0  0
  4 10  1  0  0  0  0
  5  9  1  0  0  0  0
  6 10  2  0  0  0  0
  7 10  2  0  0  0  0
  1 11  1  0  0  0  0
  1 12  1  0  0  0  0
  2 13  1  0  0  0  0
  2 14  1  0  0  0  0
  3 15  1  0  0  0  0
  3 16  1  0  0  0  0
  4 17  1  0  0  0  0
  5 18  1  0  0  0  0
  5 19  1  0  0  0  0
  9 20  1  0  0  0  0
M  END
> <id>
EN300-28243916

> <smiles>
OCC1COCCS1(=O)=O

> <MDLNUMBER>
MFCD34168298

> <IUPAC Name>
3-(hydroxymethyl)-1,4lambda6-oxathiane-4,4-dione

> <CAS>
2648957-28-0

> <Purity>
95

> <URL>
https://www.enaminestore.com/catalog/EN300-28243916

> <ROCS_ShapeQuery>
hit0

> <ROCS_TanimotoCombo>
0.990 

> <ROCS_ShapeTanimoto>
0.505 

> <ROCS_ColorTanimoto>
0.485 

> <ROCS_RefTversky>
1.376 

> <ROCS_RefColorTversky>
0.654 

> <ROCS_RefTverskyCombo>
2.029 

> <ROCS_FitTversky>
0.444 

> <ROCS_FitColorTversky>
0.653 

> <ROCS_FitTverskyCombo>
1.097 

> <ROCS_ColorScore>
-3.922

> <ROCS_Overlap>
168.877

> <ROCS_Rank>
382                 

$$$$
untitled-dbase-3389_11
  -OEChem-06232314393D

 14 13  0     1  0  0  0  0  0999 V2000
   -5.9087    4.9619  -37.5354 C   0  0  0  0  0  0  0  0  0  0  0  0
   -6.7969    6.4503  -35.7103 C   0  0  0  0  0  0  0  0  0  0  0  0
   -6.0787    5.1421  -36.0325 C   0  0  1  0  0  0  0  0  0  0  0  0
   -6.8426    4.0257  -35.5118 N   0  0  0  0  0  0  0  0  0  0  0  0
   -6.5076    6.8289  -34.3693 O   0  0  0  0  0  0  0  0  0  0  0  0
   -6.8796    4.9656  -38.0415 H   0  0  0  0  0  0  0  0  0  0  0  0
   -5.4050    4.0174  -37.7701 H   0  0  0  0  0  0  0  0  0  0  0  0
   -5.3039    5.7716  -37.9585 H   0  0  0  0  0  0  0  0  0  0  0  0
   -6.4481    7.2540  -36.3671 H   0  0  0  0  0  0  0  0  0  0  0  0
   -7.8828    6.3534  -35.8175 H   0  0  0  0  0  0  0  0  0  0  0  0
   -5.0954    5.1351  -35.5487 H   0  0  0  0  0  0  0  0  0  0  0  0
   -7.6662    4.3757  -35.0745 H   0  0  0  0  0  0  0  0  0  0  0  0
   -7.0853    3.4229  -36.2666 H   0  0  0  0  0  0  0  0  0  0  0  0
   -6.8271    6.1094  -33.8019 H   0  0  0  0  0  0  0  0  0  0  0  0
  1  3  1  6  0  0  0
  2  3  1  0  0  0  0
  2  5  1  0  0  0  0
  3  4  1  0  0  0  0
  1  6  1  0  0  0  0
  1  7  1  0  0  0  0
  1  8  1  0  0  0  0
  2  9  1  0  0  0  0
  2 10  1  0  0  0  0
  3 11  1  0  0  0  0
  4 12  1  0  0  0  0
  4 13  1  0  0  0  0
  5 14  1  0  0  0  0
M  END
> <id>
EN300-86282

> <smiles>
C[C@H](N)CO

> <MDLNUMBER>
MFCD00064412

> <IUPAC Name>
(2S)-2-aminopropan-1-ol

> <CAS>
2749-11-3

> <Purity>
95

> <URL>
https://www.enaminestore.com/catalog/EN300-86282

> <ROCS_ShapeQuery>
hit0

> <ROCS_TanimotoCombo>
0.990 

> <ROCS_ShapeTanimoto>
0.575 

> <ROCS_ColorTanimoto>
0.415 

> <ROCS_RefTversky>
0.939 

> <ROCS_RefColorTversky>
0.497 

> <ROCS_RefTverskyCombo>
1.436 

> <ROCS_FitTversky>
0.597 

> <ROCS_FitColorTversky>
0.715 

> <ROCS_FitTverskyCombo>
1.313 

> <ROCS_ColorScore>
-2.933

> <ROCS_Overlap>
105.216

> <ROCS_Rank>
383                 

$$$$
untitled-dbase-40384_11
  -OEChem-06232314393D

 14 13  0     1  0  0  0  0  0999 V2000
   -5.9087    4.9619  -37.5354 C   0  0  0  0  0  0  0  0  0  0  0  0
   -6.7969    6.4503  -35.7103 C   0  0  0  0  0  0  0  0  0  0  0  0
   -6.0787    5.1421  -36.0325 C   0  0  1  0  0  0  0  0  0  0  0  0
   -6.8426    4.0257  -35.5118 N   0  0  0  0  0  0  0  0  0  0  0  0
   -6.5076    6.8289  -34.3693 O   0  0  0  0  0  0  0  0  0  0  0  0
   -6.8796    4.9656  -38.0415 H   0  0  0  0  0  0  0  0  0  0  0  0
   -5.4050    4.0174  -37.7701 H   0  0  0  0  0  0  0  0  0  0  0  0
   -5.3039    5.7716  -37.9585 H   0  0  0  0  0  0  0  0  0  0  0  0
   -6.4481    7.2540  -36.3671 H   0  0  0  0  0  0  0  0  0  0  0  0
   -7.8828    6.3534  -35.8175 H   0  0  0  0  0  0  0  0  0  0  0  0
   -5.0954    5.1351  -35.5487 H   0  0  0  0  0  0  0  0  0  0  0  0
   -7.6662    4.3757  -35.0745 H   0  0  0  0  0  0  0  0  0  0  0  0
   -7.0853    3.4229  -36.2666 H   0  0  0  0  0  0  0  0  0  0  0  0
   -6.8271    6.1094  -33.8019 H   0  0  0  0  0  0  0  0  0  0  0  0
  1  3  1  0  0  0  0
  2  3  1  0  0  0  0
  2  5  1  0  0  0  0
  3  4  1  0  0  0  0
  1  6  1  0  0  0  0
  1  7  1  0  0  0  0
  1  8  1  0  0  0  0
  2  9  1  0  0  0  0
  2 10  1  0  0  0  0
  3 11  1  0  0  0  0
  4 12  1  0  0  0  0
  4 13  1  0  0  0  0
  5 14  1  0  0  0  0
M  END
> <id>
EN300-29387

> <smiles>
CC(N)CO

> <MDLNUMBER>
MFCD00008085

> <IUPAC Name>
2-aminopropan-1-ol

> <CAS>
6168-72-5

> <Purity>
95

> <URL>
https://www.enaminestore.com/catalog/EN300-29387

> <MP>
8-9

> <ROCS_ShapeQuery>
hit0

> <ROCS_TanimotoCombo>
0.990 

> <ROCS_ShapeTanimoto>
0.575 

> <ROCS_ColorTanimoto>
0.415 

> <ROCS_RefTversky>
0.939 

> <ROCS_RefColorTversky>
0.497 

> <ROCS_RefTverskyCombo>
1.436 

> <ROCS_FitTversky>
0.597 

> <ROCS_FitColorTversky>
0.715 

> <ROCS_FitTverskyCombo>
1.313 

> <ROCS_ColorScore>
-2.933

> <ROCS_Overlap>
105.216

> <ROCS_Rank>
384                 

$$$$
untitled-dbase-50634_141
  -OEChem-06232314393D

 23 23  0     1  0  0  0  0  0999 V2000
   -7.6313    5.2287  -37.7210 C   0  0  0  0  0  0  0  0  0  0  0  0
   -7.9920    6.0514  -36.4957 C   0  0  0  0  0  0  0  0  0  0  0  0
   -5.5854    6.2086  -36.8253 C   0  0  0  0  0  0  0  0  0  0  0  0
   -6.2749    5.7854  -38.1272 C   0  0  1  0  0  0  0  0  0  0  0  0
   -6.6672    6.1632  -35.7213 C   0  0  2  0  0  0  0  0  0  0  0  0
   -6.4567    4.9323  -34.8229 C   0  0  0  0  0  0  0  0  0  0  0  0
   -6.6416    7.4229  -34.8512 C   0  0  0  0  0  0  0  0  0  0  0  0
   -5.5049    4.8142  -38.8121 O   0  0  0  0  0  0  0  0  0  0  0  0
   -6.8884    3.7853  -35.5292 O   0  0  0  0  0  0  0  0  0  0  0  0
   -7.6478    7.3814  -33.9699 F   0  0  0  0  0  0  0  0  0  0  0  0
   -5.4788    7.4909  -34.1923 F   0  0  0  0  0  0  0  0  0  0  0  0
   -6.7757    8.5066  -35.6249 F   0  0  0  0  0  0  0  0  0  0  0  0
   -7.6167    4.1658  -37.5017 H   0  0  0  0  0  0  0  0  0  0  0  0
   -8.3559    5.4128  -38.5117 H   0  0  0  0  0  0  0  0  0  0  0  0
   -8.4134    7.0216  -36.7593 H   0  0  0  0  0  0  0  0  0  0  0  0
   -8.7342    5.5089  -35.9040 H   0  0  0  0  0  0  0  0  0  0  0  0
   -4.7590    5.5164  -36.5934 H   0  0  0  0  0  0  0  0  0  0  0  0
   -5.1297    7.2059  -36.9213 H   0  0  0  0  0  0  0  0  0  0  0  0
   -6.4052    6.6496  -38.7960 H   0  0  0  0  0  0  0  0  0  0  0  0
   -7.0412    5.0385  -33.9108 H   0  0  0  0  0  0  0  0  0  0  0  0
   -5.4009    4.8320  -34.5779 H   0  0  0  0  0  0  0  0  0  0  0  0
   -5.3860    4.0660  -38.2034 H   0  0  0  0  0  0  0  0  0  0  0  0
   -7.8308    3.9125  -35.7343 H   0  0  0  0  0  0  0  0  0  0  0  0
  1  2  1  0  0  0  0
  1  4  1  0  0  0  0
  2  5  1  0  0  0  0
  3  4  1  0  0  0  0
  3  5  1  0  0  0  0
  4  8  1  6  0  0  0
  5  6  1  6  0  0  0
  5  7  1  0  0  0  0
  6  9  1  0  0  0  0
  7 10  1  0  0  0  0
  7 11  1  0  0  0  0
  7 12  1  0  0  0  0
  1 13  1  0  0  0  0
  1 14  1  0  0  0  0
  2 15  1  0  0  0  0
  2 16  1  0  0  0  0
  3 17  1  0  0  0  0
  3 18  1  0  0  0  0
  4 19  1  0  0  0  0
  6 20  1  0  0  0  0
  6 21  1  0  0  0  0
  8 22  1  0  0  0  0
  9 23  1  0  0  0  0
M  END
> <id>
EN300-37100127

> <smiles>
OC[C@@]1(CC[C@H](O)C1)C(F)(F)F |&1:2,5,r|

> <MDLNUMBER>
MFCD34562481

> <IUPAC Name>
rac-(1R,3R)-3-(hydroxymethyl)-3-(trifluoromethyl)cyclopentan-1-ol

> <Purity>
95

> <URL>
https://www.enaminestore.com/catalog/EN300-37100127

> <ROCS_ShapeQuery>
hit0

> <ROCS_TanimotoCombo>
0.990 

> <ROCS_ShapeTanimoto>
0.419 

> <ROCS_ColorTanimoto>
0.571 

> <ROCS_RefTversky>
1.448 

> <ROCS_RefColorTversky>
0.672 

> <ROCS_RefTverskyCombo>
2.120 

> <ROCS_FitTversky>
0.371 

> <ROCS_FitColorTversky>
0.792 

> <ROCS_FitTverskyCombo>
1.163 

> <ROCS_ColorScore>
-3.998

> <ROCS_Overlap>
187.193

> <ROCS_Rank>
385                 

$$$$
untitled-dbase-80934_13
  -OEChem-06232314393D

 17 17  0     1  0  0  0  0  0999 V2000
   -6.2899    6.0799  -34.8259 C   0  0  0  0  0  0  0  0  0  0  0  0
   -7.3002    4.9679  -35.0206 C   0  0  0  0  0  0  0  0  0  0  0  0
   -4.7308    4.6888  -36.0428 C   0  0  0  0  0  0  0  0  0  0  0  0
   -5.9116    3.9578  -36.6493 C   0  0  2  0  0  0  0  0  0  0  0  0
   -6.5121    4.6589  -37.8648 C   0  0  0  0  0  0  0  0  0  0  0  0
   -6.5532    7.0746  -34.1552 O   0  0  0  0  0  0  0  0  0  0  0  0
   -5.1121    5.9561  -35.4825 O   0  0  0  0  0  0  0  0  0  0  0  0
   -6.8680    3.7661  -35.6138 O   0  0  0  0  0  0  0  0  0  0  0  0
   -5.5120    4.7798  -38.8624 O   0  0  0  0  0  0  0  0  0  0  0  0
   -7.7326    4.7340  -34.0340 H   0  0  0  0  0  0  0  0  0  0  0  0
   -8.1128    5.3614  -35.6502 H   0  0  0  0  0  0  0  0  0  0  0  0
   -4.2798    4.0953  -35.2364 H   0  0  0  0  0  0  0  0  0  0  0  0
   -3.9489    4.8896  -36.7896 H   0  0  0  0  0  0  0  0  0  0  0  0
   -5.5690    2.9243  -36.9812 H   0  0  0  0  0  0  0  0  0  0  0  0
   -6.8643    5.6555  -37.5905 H   0  0  0  0  0  0  0  0  0  0  0  0
   -7.3452    4.0765  -38.2639 H   0  0  0  0  0  0  0  0  0  0  0  0
   -5.9213    5.2280  -39.6214 H   0  0  0  0  0  0  0  0  0  0  0  0
  1  2  1  0  0  0  0
  1  6  2  0  0  0  0
  1  7  1  0  0  0  0
  2  8  1  0  0  0  0
  3  4  1  0  0  0  0
  3  7  1  0  0  0  0
  4  5  1  0  0  0  0
  4  8  1  0  0  0  0
  5  9  1  0  0  0  0
  2 10  1  0  0  0  0
  2 11  1  0  0  0  0
  3 12  1  0  0  0  0
  3 13  1  0  0  0  0
  4 14  1  0  0  0  0
  5 15  1  0  0  0  0
  5 16  1  0  0  0  0
  9 17  1  0  0  0  0
M  END
> <id>
EN300-2009496

> <smiles>
OCC1COC(=O)CO1

> <MDLNUMBER>
MFCD28654551

> <IUPAC Name>
5-(hydroxymethyl)-1,4-dioxan-2-one

> <CAS>
122150-99-6

> <URL>
https://www.enaminestore.com/catalog/EN300-2009496

> <ROCS_ShapeQuery>
hit0

> <ROCS_TanimotoCombo>
0.990 

> <ROCS_ShapeTanimoto>
0.435 

> <ROCS_ColorTanimoto>
0.555 

> <ROCS_RefTversky>
1.217 

> <ROCS_RefColorTversky>
0.660 

> <ROCS_RefTverskyCombo>
1.877 

> <ROCS_FitTversky>
0.404 

> <ROCS_FitColorTversky>
0.777 

> <ROCS_FitTverskyCombo>
1.181 

> <ROCS_ColorScore>
-3.925

> <ROCS_Overlap>
148.665

> <ROCS_Rank>
386                 

$$$$
untitled-dbase-78839_101
  -OEChem-06232314393D

 22 22  0     1  0  0  0  0  0999 V2000
   -5.5235    5.9001  -36.3718 C   0  0  0  0  0  0  0  0  0  0  0  0
   -6.1176    7.1136  -35.6472 C   0  0  0  0  0  0  0  0  0  0  0  0
   -7.5137    5.8056  -34.1198 C   0  0  0  0  0  0  0  0  0  0  0  0
   -6.8476    4.4447  -34.2776 C   0  0  0  0  0  0  0  0  0  0  0  0
   -6.5725    4.8228  -36.6754 C   0  0  1  0  0  0  0  0  0  0  0  0
   -6.1160    3.9503  -37.8434 C   0  0  0  0  0  0  0  0  0  0  0  0
   -6.5364    6.8815  -34.2688 N   0  0  0  0  0  0  0  0  0  0  0  0
   -6.8346    3.9260  -35.5989 O   0  0  0  0  0  0  0  0  0  0  0  0
   -5.5175    4.7827  -38.8195 O   0  0  0  0  0  0  0  0  0  0  0  0
   -5.0760    6.2609  -37.2972 H   0  0  0  0  0  0  0  0  0  0  0  0
   -4.7303    5.4727  -35.7587 H   0  0  0  0  0  0  0  0  0  0  0  0
   -5.3828    7.9126  -35.6679 H   0  0  0  0  0  0  0  0  0  0  0  0
   -6.9885    7.4559  -36.1968 H   0  0  0  0  0  0  0  0  0  0  0  0
   -8.2439    5.9157  -34.9320 H   0  0  0  0  0  0  0  0  0  0  0  0
   -8.0698    5.8919  -33.1775 H   0  0  0  0  0  0  0  0  0  0  0  0
   -5.7894    4.5423  -33.9793 H   0  0  0  0  0  0  0  0  0  0  0  0
   -7.2759    3.6929  -33.5874 H   0  0  0  0  0  0  0  0  0  0  0  0
   -7.5415    5.2979  -37.0032 H   0  0  0  0  0  0  0  0  0  0  0  0
   -6.9727    3.4389  -38.2815 H   0  0  0  0  0  0  0  0  0  0  0  0
   -5.3870    3.2182  -37.4972 H   0  0  0  0  0  0  0  0  0  0  0  0
   -5.7165    6.6840  -33.7043 H   0  0  0  0  0  0  0  0  0  0  0  0
   -5.2354    4.2078  -39.5514 H   0  0  0  0  0  0  0  0  0  0  0  0
  1  2  1  0  0  0  0
  1  5  1  0  0  0  0
  2  7  1  0  0  0  0
  3  4  1  0  0  0  0
  3  7  1  0  0  0  0
  4  8  1  0  0  0  0
  5  6  1  0  0  0  0
  5  8  1  0  0  0  0
  6  9  1  0  0  0  0
  1 10  1  0  0  0  0
  1 11  1  0  0  0  0
  2 12  1  0  0  0  0
  2 13  1  0  0  0  0
  3 14  1  0  0  0  0
  3 15  1  0  0  0  0
  4 16  1  0  0  0  0
  4 17  1  0  0  0  0
  5 18  1  0  0  0  0
  6 19  1  0  0  0  0
  6 20  1  0  0  0  0
  7 21  1  0  0  0  0
  9 22  1  0  0  0  0
M  END
> <id>
EN300-2007621

> <smiles>
OCC1CCNCCO1

> <MDLNUMBER>
MFCD28132622

> <IUPAC Name>
(1,4-oxazepan-7-yl)methanol

> <CAS>
627860-89-3

> <Purity>
95

> <URL>
https://www.enaminestore.com/catalog/EN300-2007621

> <ROCS_ShapeQuery>
hit0

> <ROCS_TanimotoCombo>
0.990 

> <ROCS_ShapeTanimoto>
0.495 

> <ROCS_ColorTanimoto>
0.494 

> <ROCS_RefTversky>
1.294 

> <ROCS_RefColorTversky>
0.662 

> <ROCS_RefTverskyCombo>
1.955 

> <ROCS_FitTversky>
0.445 

> <ROCS_FitColorTversky>
0.662 

> <ROCS_FitTverskyCombo>
1.107 

> <ROCS_ColorScore>
-3.971

> <ROCS_Overlap>
156.916

> <ROCS_Rank>
387                 

$$$$
untitled-dbase-79820_101
  -OEChem-06232314393D

 22 22  0     1  0  0  0  0  0999 V2000
   -5.5235    5.9001  -36.3718 C   0  0  0  0  0  0  0  0  0  0  0  0
   -6.1176    7.1136  -35.6472 C   0  0  0  0  0  0  0  0  0  0  0  0
   -7.5137    5.8056  -34.1198 C   0  0  0  0  0  0  0  0  0  0  0  0
   -6.8476    4.4447  -34.2776 C   0  0  0  0  0  0  0  0  0  0  0  0
   -6.5725    4.8228  -36.6754 C   0  0  1  0  0  0  0  0  0  0  0  0
   -6.1160    3.9503  -37.8434 C   0  0  0  0  0  0  0  0  0  0  0  0
   -6.5364    6.8815  -34.2688 N   0  0  0  0  0  0  0  0  0  0  0  0
   -6.8346    3.9260  -35.5989 O   0  0  0  0  0  0  0  0  0  0  0  0
   -5.5175    4.7827  -38.8195 O   0  0  0  0  0  0  0  0  0  0  0  0
   -5.0760    6.2609  -37.2972 H   0  0  0  0  0  0  0  0  0  0  0  0
   -4.7303    5.4727  -35.7587 H   0  0  0  0  0  0  0  0  0  0  0  0
   -5.3828    7.9126  -35.6679 H   0  0  0  0  0  0  0  0  0  0  0  0
   -6.9885    7.4559  -36.1968 H   0  0  0  0  0  0  0  0  0  0  0  0
   -8.2439    5.9157  -34.9320 H   0  0  0  0  0  0  0  0  0  0  0  0
   -8.0698    5.8919  -33.1775 H   0  0  0  0  0  0  0  0  0  0  0  0
   -5.7894    4.5423  -33.9793 H   0  0  0  0  0  0  0  0  0  0  0  0
   -7.2759    3.6929  -33.5874 H   0  0  0  0  0  0  0  0  0  0  0  0
   -7.5415    5.2979  -37.0032 H   0  0  0  0  0  0  0  0  0  0  0  0
   -6.9727    3.4389  -38.2815 H   0  0  0  0  0  0  0  0  0  0  0  0
   -5.3870    3.2182  -37.4972 H   0  0  0  0  0  0  0  0  0  0  0  0
   -5.7165    6.6840  -33.7043 H   0  0  0  0  0  0  0  0  0  0  0  0
   -5.2354    4.2078  -39.5514 H   0  0  0  0  0  0  0  0  0  0  0  0
  1  2  1  0  0  0  0
  1  5  1  0  0  0  0
  2  7  1  0  0  0  0
  3  4  1  0  0  0  0
  3  7  1  0  0  0  0
  4  8  1  0  0  0  0
  5  6  1  0  0  0  0
  5  8  1  0  0  0  0
  6  9  1  0  0  0  0
  1 10  1  0  0  0  0
  1 11  1  0  0  0  0
  2 12  1  0  0  0  0
  2 13  1  0  0  0  0
  3 14  1  0  0  0  0
  3 15  1  0  0  0  0
  4 16  1  0  0  0  0
  4 17  1  0  0  0  0
  5 18  1  0  0  0  0
  6 19  1  0  0  0  0
  6 20  1  0  0  0  0
  7 21  1  0  0  0  0
  9 22  1  0  0  0  0
M  END
> <id>
EN300-2007620

> <smiles>
Cl.OCC1CCNCCO1

> <MDLNUMBER>
MFCD31691310

> <IUPAC Name>
(1,4-oxazepan-7-yl)methanol hydrochloride

> <CAS>
2230803-00-4

> <Purity>
95

> <URL>
https://www.enaminestore.com/catalog/EN300-2007620

> <Saltdate>
Cl

> <ROCS_ShapeQuery>
hit0

> <ROCS_TanimotoCombo>
0.990 

> <ROCS_ShapeTanimoto>
0.495 

> <ROCS_ColorTanimoto>
0.494 

> <ROCS_RefTversky>
1.294 

> <ROCS_RefColorTversky>
0.662 

> <ROCS_RefTverskyCombo>
1.955 

> <ROCS_FitTversky>
0.445 

> <ROCS_FitColorTversky>
0.662 

> <ROCS_FitTverskyCombo>
1.107 

> <ROCS_ColorScore>
-3.971

> <ROCS_Overlap>
156.916

> <ROCS_Rank>
388                 

$$$$
untitled-dbase-2949_10
  -OEChem-06232314393D

 13 12  0     0  0  0  0  0  0999 V2000
   -6.2593    4.8753  -35.5776 C   0  0  0  0  0  0  0  0  0  0  0  0
   -5.9346    4.9975  -38.0425 C   0  0  0  0  0  0  0  0  0  0  0  0
   -5.9388    5.6431  -34.3129 C   0  0  0  0  0  0  0  0  0  0  0  0
   -5.7684    5.5165  -36.7042 N   0  0  0  0  0  0  0  0  0  0  0  0
   -6.8800    3.8157  -35.5718 O   0  0  0  0  0  0  0  0  0  0  0  0
   -6.5202    6.9290  -34.3494 O   0  0  0  0  0  0  0  0  0  0  0  0
   -5.0854    4.3440  -38.2910 H   0  0  0  0  0  0  0  0  0  0  0  0
   -6.8696    4.4208  -38.0985 H   0  0  0  0  0  0  0  0  0  0  0  0
   -5.9756    5.8329  -38.7570 H   0  0  0  0  0  0  0  0  0  0  0  0
   -6.3430    5.1037  -33.4510 H   0  0  0  0  0  0  0  0  0  0  0  0
   -4.8548    5.7409  -34.1974 H   0  0  0  0  0  0  0  0  0  0  0  0
   -5.2682    6.3923  -36.5833 H   0  0  0  0  0  0  0  0  0  0  0  0
   -6.2846    7.3772  -33.5178 H   0  0  0  0  0  0  0  0  0  0  0  0
  1  3  1  0  0  0  0
  1  4  1  0  0  0  0
  1  5  2  0  0  0  0
  2  4  1  0  0  0  0
  3  6  1  0  0  0  0
  2  7  1  0  0  0  0
  2  8  1  0  0  0  0
  2  9  1  0  0  0  0
  3 10  1  0  0  0  0
  3 11  1  0  0  0  0
  4 12  1  0  0  0  0
  6 13  1  0  0  0  0
M  END
> <id>
EN300-65463

> <smiles>
CNC(=O)CO

> <MDLNUMBER>
MFCD02197926

> <IUPAC Name>
2-hydroxy-N-methylacetamide

> <CAS>
5415-94-1

> <Purity>
95

> <URL>
https://www.enaminestore.com/catalog/EN300-65463

> <MP>
64-66

> <ROCS_ShapeQuery>
hit0

> <ROCS_TanimotoCombo>
0.990 

> <ROCS_ShapeTanimoto>
0.560 

> <ROCS_ColorTanimoto>
0.430 

> <ROCS_RefTversky>
1.061 

> <ROCS_RefColorTversky>
0.510 

> <ROCS_RefTverskyCombo>
1.571 

> <ROCS_FitTversky>
0.542 

> <ROCS_FitColorTversky>
0.733 

> <ROCS_FitTverskyCombo>
1.276 

> <ROCS_ColorScore>
-3.009

> <ROCS_Overlap>
121.482

> <ROCS_Rank>
389                 

$$$$
untitled-dbase-70841_4
  -OEChem-06232314393D

 17 17  0     0  0  0  0  0  0999 V2000
   -6.3491    5.8989  -37.1013 C   0  0  0  0  0  0  0  0  0  0  0  0
   -7.1555    4.6819  -35.2237 C   0  0  0  0  0  0  0  0  0  0  0  0
   -6.9160    5.9037  -35.8316 C   0  0  0  0  0  0  0  0  0  0  0  0
   -6.0434    4.6895  -37.7155 C   0  0  0  0  0  0  0  0  0  0  0  0
   -6.3218    3.5221  -37.0231 C   0  0  0  0  0  0  0  0  0  0  0  0
   -7.2546    7.1803  -35.1477 C   0  0  0  0  0  0  0  0  0  0  0  0
   -6.8720    3.4870  -35.7887 N   0  0  0  0  0  0  0  0  0  0  0  0
   -5.4699    4.6822  -39.0001 N   0  0  0  0  0  0  0  0  0  0  0  0
   -6.5316    7.2720  -33.9247 O   0  0  0  0  0  0  0  0  0  0  0  0
   -5.9914    1.9623  -37.6720 Cl  0  0  0  0  0  0  0  0  0  0  0  0
   -6.1468    6.8389  -37.6094 H   0  0  0  0  0  0  0  0  0  0  0  0
   -7.5961    4.6231  -34.2332 H   0  0  0  0  0  0  0  0  0  0  0  0
   -7.0002    8.0522  -35.7685 H   0  0  0  0  0  0  0  0  0  0  0  0
   -8.3299    7.2425  -34.9243 H   0  0  0  0  0  0  0  0  0  0  0  0
   -5.2089    3.8095  -39.4168 H   0  0  0  0  0  0  0  0  0  0  0  0
   -5.2433    5.5523  -39.4417 H   0  0  0  0  0  0  0  0  0  0  0  0
   -5.5898    7.2437  -34.1560 H   0  0  0  0  0  0  0  0  0  0  0  0
  1  3  1  0  0  0  0
  1  4  2  0  0  0  0
  2  3  2  0  0  0  0
  2  7  1  0  0  0  0
  3  6  1  0  0  0  0
  4  5  1  0  0  0  0
  4  8  1  0  0  0  0
  5  7  2  0  0  0  0
  5 10  1  0  0  0  0
  6  9  1  0  0  0  0
  1 11  1  0  0  0  0
  2 12  1  0  0  0  0
  6 13  1  0  0  0  0
  6 14  1  0  0  0  0
  8 15  1  0  0  0  0
  8 16  1  0  0  0  0
  9 17  1  0  0  0  0
M  END
> <id>
EN300-217473

> <smiles>
NC=1C=C(CO)C=NC1Cl

> <MDLNUMBER>
MFCD13192521

> <IUPAC Name>
(5-amino-6-chloropyridin-3-yl)methanol

> <CAS>
321845-13-0

> <Purity>
95

> <URL>
https://www.enaminestore.com/catalog/EN300-217473

> <MP>
85-86

> <ROCS_ShapeQuery>
hit0

> <ROCS_TanimotoCombo>
0.990 

> <ROCS_ShapeTanimoto>
0.447 

> <ROCS_ColorTanimoto>
0.543 

> <ROCS_RefTversky>
1.321 

> <ROCS_RefColorTversky>
0.704 

> <ROCS_RefTverskyCombo>
2.025 

> <ROCS_FitTversky>
0.403 

> <ROCS_FitColorTversky>
0.704 

> <ROCS_FitTverskyCombo>
1.107 

> <ROCS_ColorScore>
-4.222

> <ROCS_Overlap>
164.035

> <ROCS_Rank>
390                 

$$$$
untitled-dbase-61047_4
  -OEChem-06232314393D

 17 17  0     0  0  0  0  0  0999 V2000
   -5.8854    7.1127  -36.7796 C   0  0  0  0  0  0  0  0  0  0  0  0
   -7.5977    7.3551  -35.0925 C   0  0  0  0  0  0  0  0  0  0  0  0
   -5.9316    5.7269  -36.6275 C   0  0  0  0  0  0  0  0  0  0  0  0
   -6.8110    5.1552  -35.7080 C   0  0  0  0  0  0  0  0  0  0  0  0
   -6.7183    7.9268  -36.0120 C   0  0  0  0  0  0  0  0  0  0  0  0
   -7.6440    5.9693  -34.9404 C   0  0  0  0  0  0  0  0  0  0  0  0
   -5.0327    4.8713  -37.4576 C   0  0  0  0  0  0  0  0  0  0  0  0
   -6.8686    3.8033  -35.5487 O   0  0  0  0  0  0  0  0  0  0  0  0
   -5.5337    4.8133  -38.7870 O   0  0  0  0  0  0  0  0  0  0  0  0
   -6.6740    9.2575  -36.1581 F   0  0  0  0  0  0  0  0  0  0  0  0
   -8.4911    5.4264  -34.0552 F   0  0  0  0  0  0  0  0  0  0  0  0
   -5.2038    7.5678  -37.4933 H   0  0  0  0  0  0  0  0  0  0  0  0
   -8.2460    7.9888  -34.4948 H   0  0  0  0  0  0  0  0  0  0  0  0
   -4.0112    5.2731  -37.4836 H   0  0  0  0  0  0  0  0  0  0  0  0
   -4.9762    3.8511  -37.0556 H   0  0  0  0  0  0  0  0  0  0  0  0
   -7.5273    3.5732  -34.8748 H   0  0  0  0  0  0  0  0  0  0  0  0
   -6.4240    4.4301  -38.7338 H   0  0  0  0  0  0  0  0  0  0  0  0
  1  3  2  0  0  0  0
  1  5  1  0  0  0  0
  2  5  2  0  0  0  0
  2  6  1  0  0  0  0
  3  4  1  0  0  0  0
  3  7  1  0  0  0  0
  4  6  2  0  0  0  0
  4  8  1  0  0  0  0
  5 10  1  0  0  0  0
  6 11  1  0  0  0  0
  7  9  1  0  0  0  0
  1 12  1  0  0  0  0
  2 13  1  0  0  0  0
  7 14  1  0  0  0  0
  7 15  1  0  0  0  0
  8 16  1  0  0  0  0
  9 17  1  0  0  0  0
M  END
> <id>
EN300-1867383

> <smiles>
OCC=1C=C(F)C=C(F)C1O

> <MDLNUMBER>
MFCD06203087

> <IUPAC Name>
2,4-difluoro-6-(hydroxymethyl)phenol

> <CAS>
447-12-1

> <URL>
https://www.enaminestore.com/catalog/EN300-1867383

> <ROCS_ShapeQuery>
hit0

> <ROCS_TanimotoCombo>
0.990 

> <ROCS_ShapeTanimoto>
0.419 

> <ROCS_ColorTanimoto>
0.571 

> <ROCS_RefTversky>
1.368 

> <ROCS_RefColorTversky>
0.672 

> <ROCS_RefTverskyCombo>
2.040 

> <ROCS_FitTversky>
0.376 

> <ROCS_FitColorTversky>
0.792 

> <ROCS_FitTverskyCombo>
1.168 

> <ROCS_ColorScore>
-3.998

> <ROCS_Overlap>
173.787

> <ROCS_Rank>
391                 

$$$$
untitled-dbase-115798_2
  -OEChem-06232314393D

 23 23  0     0  0  0  0  0  0999 V2000
   -6.2345    5.9245  -36.7134 C   0  0  0  0  0  0  0  0  0  0  0  0
   -5.7071    6.0603  -38.0116 C   0  0  0  0  0  0  0  0  0  0  0  0
   -6.4054    4.5712  -36.5520 C   0  0  0  0  0  0  0  0  0  0  0  0
   -6.5409    6.9364  -35.7464 C   0  0  0  0  0  0  0  0  0  0  0  0
   -5.3370    7.3037  -38.7106 C   0  0  0  0  0  0  0  0  0  0  0  0
   -5.9661    2.5930  -38.0446 C   0  0  0  0  0  0  0  0  0  0  0  0
   -7.2300    9.2217  -35.4666 C   0  0  0  0  0  0  0  0  0  0  0  0
   -5.5529    4.8869  -38.6308 N   0  0  0  0  0  0  0  0  0  0  0  0
   -5.9859    4.0009  -37.7178 N   0  0  0  0  0  0  0  0  0  0  0  0
   -6.8738    3.8263  -35.5284 N   0  0  0  0  0  0  0  0  0  0  0  0
   -6.4955    6.7866  -34.5058 O   0  0  0  0  0  0  0  0  0  0  0  0
   -6.9006    8.1292  -36.3313 O   0  0  0  0  0  0  0  0  0  0  0  0
   -4.2837    7.5708  -38.5204 H   0  0  0  0  0  0  0  0  0  0  0  0
   -5.4675    7.2210  -39.8041 H   0  0  0  0  0  0  0  0  0  0  0  0
   -5.9600    8.1594  -38.3955 H   0  0  0  0  0  0  0  0  0  0  0  0
   -6.9250    2.3399  -38.5045 H   0  0  0  0  0  0  0  0  0  0  0  0
   -5.1446    2.3916  -38.7378 H   0  0  0  0  0  0  0  0  0  0  0  0
   -5.8140    2.0119  -37.1307 H   0  0  0  0  0  0  0  0  0  0  0  0
   -7.4936   10.0958  -36.0670 H   0  0  0  0  0  0  0  0  0  0  0  0
   -6.3748    9.4510  -34.8258 H   0  0  0  0  0  0  0  0  0  0  0  0
   -8.0828    8.9386  -34.8452 H   0  0  0  0  0  0  0  0  0  0  0  0
   -7.1504    4.2444  -34.6276 H   0  0  0  0  0  0  0  0  0  0  0  0
   -6.8896    2.7962  -35.5624 H   0  0  0  0  0  0  0  0  0  0  0  0
  1  2  1  0  0  0  0
  1  3  2  0  0  0  0
  1  4  1  0  0  0  0
  2  5  1  0  0  0  0
  2  8  2  0  0  0  0
  3  9  1  0  0  0  0
  3 10  1  0  0  0  0
  4 11  2  0  0  0  0
  4 12  1  0  0  0  0
  6  9  1  0  0  0  0
  7 12  1  0  0  0  0
  8  9  1  0  0  0  0
  5 13  1  0  0  0  0
  5 14  1  0  0  0  0
  5 15  1  0  0  0  0
  6 16  1  0  0  0  0
  6 17  1  0  0  0  0
  6 18  1  0  0  0  0
  7 19  1  0  0  0  0
  7 20  1  0  0  0  0
  7 21  1  0  0  0  0
 10 22  1  0  0  0  0
 10 23  1  0  0  0  0
M  END
> <id>
EN300-302319

> <smiles>
COC(=O)C=1C(C)=NN(C)C1N

> <MDLNUMBER>
MFCD20722626

> <IUPAC Name>
methyl 5-amino-1,3-dimethyl-1H-pyrazole-4-carboxylate

> <CAS>
110860-59-8

> <Purity>
95

> <URL>
https://www.enaminestore.com/catalog/EN300-302319

> <ROCS_ShapeQuery>
hit0

> <ROCS_TanimotoCombo>
0.989 

> <ROCS_ShapeTanimoto>
0.436 

> <ROCS_ColorTanimoto>
0.553 

> <ROCS_RefTversky>
1.505 

> <ROCS_RefColorTversky>
0.659 

> <ROCS_RefTverskyCombo>
2.164 

> <ROCS_FitTversky>
0.380 

> <ROCS_FitColorTversky>
0.776 

> <ROCS_FitTverskyCombo>
1.156 

> <ROCS_ColorScore>
-3.918

> <ROCS_Overlap>
195.379

> <ROCS_Rank>
392                 

$$$$
untitled-dbase-55394_5
  -OEChem-06232314393D

 18 18  0     0  0  0  0  0  0999 V2000
   -7.3411    6.0711  -34.8399 C   0  0  0  0  0  0  0  0  0  0  0  0
   -6.2109    7.9354  -35.8811 C   0  0  0  0  0  0  0  0  0  0  0  0
   -5.7312    5.6786  -36.5979 C   0  0  0  0  0  0  0  0  0  0  0  0
   -6.6446    5.1880  -35.6648 C   0  0  0  0  0  0  0  0  0  0  0  0
   -7.1243    7.4448  -34.9481 C   0  0  0  0  0  0  0  0  0  0  0  0
   -5.5143    7.0522  -36.7061 C   0  0  0  0  0  0  0  0  0  0  0  0
   -4.9730    4.7526  -37.4926 C   0  0  0  0  0  0  0  0  0  0  0  0
   -6.8772    3.8006  -35.5411 N   0  0  0  0  0  0  0  0  0  0  0  0
   -5.5219    4.8110  -38.8024 O   0  0  0  0  0  0  0  0  0  0  0  0
   -7.7933    8.2930  -34.1559 F   0  0  0  0  0  0  0  0  0  0  0  0
   -4.6387    7.5342  -37.5994 F   0  0  0  0  0  0  0  0  0  0  0  0
   -8.0555    5.7009  -34.1090 H   0  0  0  0  0  0  0  0  0  0  0  0
   -6.0422    9.0048  -35.9652 H   0  0  0  0  0  0  0  0  0  0  0  0
   -3.9115    5.0274  -37.5422 H   0  0  0  0  0  0  0  0  0  0  0  0
   -5.0308    3.7185  -37.1293 H   0  0  0  0  0  0  0  0  0  0  0  0
   -6.4131    3.1725  -36.1642 H   0  0  0  0  0  0  0  0  0  0  0  0
   -7.5709    3.4798  -34.8977 H   0  0  0  0  0  0  0  0  0  0  0  0
   -5.0047    4.1988  -39.3504 H   0  0  0  0  0  0  0  0  0  0  0  0
  1  4  2  0  0  0  0
  1  5  1  0  0  0  0
  2  5  2  0  0  0  0
  2  6  1  0  0  0  0
  3  4  1  0  0  0  0
  3  6  2  0  0  0  0
  3  7  1  0  0  0  0
  4  8  1  0  0  0  0
  5 10  1  0  0  0  0
  6 11  1  0  0  0  0
  7  9  1  0  0  0  0
  1 12  1  0  0  0  0
  2 13  1  0  0  0  0
  7 14  1  0  0  0  0
  7 15  1  0  0  0  0
  8 16  1  0  0  0  0
  8 17  1  0  0  0  0
  9 18  1  0  0  0  0
M  END
> <id>
EN300-7701303

> <smiles>
NC=1C=C(F)C=C(F)C1CO

> <MDLNUMBER>
MFCD15528758

> <IUPAC Name>
(2-amino-4,6-difluorophenyl)methanol

> <CAS>
1260783-44-5

> <Purity>
95

> <URL>
https://www.enaminestore.com/catalog/EN300-7701303

> <ROCS_ShapeQuery>
hit0

> <ROCS_TanimotoCombo>
0.989 

> <ROCS_ShapeTanimoto>
0.417 

> <ROCS_ColorTanimoto>
0.571 

> <ROCS_RefTversky>
1.362 

> <ROCS_RefColorTversky>
0.672 

> <ROCS_RefTverskyCombo>
2.034 

> <ROCS_FitTversky>
0.376 

> <ROCS_FitColorTversky>
0.792 

> <ROCS_FitTverskyCombo>
1.168 

> <ROCS_ColorScore>
-4.000

> <ROCS_Overlap>
172.935

> <ROCS_Rank>
393                 

$$$$
untitled-dbase-31790_1
  -OEChem-06232314393D

 15 15  0     0  0  0  0  0  0999 V2000
   -6.0448    6.0421  -36.3972 C   0  0  0  0  0  0  0  0  0  0  0  0
   -6.0248    7.2093  -35.6144 C   0  0  0  0  0  0  0  0  0  0  0  0
   -6.5607    5.0935  -35.5544 C   0  0  0  0  0  0  0  0  0  0  0  0
   -5.6350    5.8423  -37.7544 C   0  0  0  0  0  0  0  0  0  0  0  0
   -5.5656    8.5545  -36.0007 C   0  0  0  0  0  0  0  0  0  0  0  0
   -6.4925    7.0007  -34.3805 N   0  0  0  0  0  0  0  0  0  0  0  0
   -6.8294    3.7807  -35.7082 N   0  0  0  0  0  0  0  0  0  0  0  0
   -5.7007    4.7480  -38.3479 O   0  0  0  0  0  0  0  0  0  0  0  0
   -6.8319    5.6534  -34.3478 O   0  0  0  0  0  0  0  0  0  0  0  0
   -5.2286    6.7198  -38.3242 H   0  0  0  0  0  0  0  0  0  0  0  0
   -6.3896    9.1518  -36.4269 H   0  0  0  0  0  0  0  0  0  0  0  0
   -5.1559    9.1174  -35.1432 H   0  0  0  0  0  0  0  0  0  0  0  0
   -4.7571    8.5190  -36.7526 H   0  0  0  0  0  0  0  0  0  0  0  0
   -7.1814    3.1975  -34.9337 H   0  0  0  0  0  0  0  0  0  0  0  0
   -6.6083    3.2731  -36.5784 H   0  0  0  0  0  0  0  0  0  0  0  0
  1  2  1  0  0  0  0
  1  3  2  0  0  0  0
  1  4  1  0  0  0  0
  2  5  1  0  0  0  0
  2  6  2  0  0  0  0
  3  7  1  0  0  0  0
  3  9  1  0  0  0  0
  4  8  2  0  0  0  0
  6  9  1  0  0  0  0
  4 10  1  0  0  0  0
  5 11  1  0  0  0  0
  5 12  1  0  0  0  0
  5 13  1  0  0  0  0
  7 14  1  0  0  0  0
  7 15  1  0  0  0  0
M  END
> <id>
EN300-716267

> <smiles>
CC1=NOC(N)=C1C=O

> <MDLNUMBER>
MFCD26719786

> <IUPAC Name>
5-amino-3-methyl-1,2-oxazole-4-carbaldehyde

> <CAS>
1510686-66-4

> <Purity>
95

> <URL>
https://www.enaminestore.com/catalog/EN300-716267

> <ROCS_ShapeQuery>
hit0

> <ROCS_TanimotoCombo>
0.988 

> <ROCS_ShapeTanimoto>
0.479 

> <ROCS_ColorTanimoto>
0.509 

> <ROCS_RefTversky>
1.332 

> <ROCS_RefColorTversky>
0.624 

> <ROCS_RefTverskyCombo>
1.956 

> <ROCS_FitTversky>
0.428 

> <ROCS_FitColorTversky>
0.735 

> <ROCS_FitTverskyCombo>
1.163 

> <ROCS_ColorScore>
-3.711

> <ROCS_Overlap>
163.656

> <ROCS_Rank>
394                 

$$$$
untitled-dbase-172524_10
  -OEChem-06232314393D

 21 21  0     1  0  0  0  0  0999 V2000
   -6.7727    6.2601  -34.8108 C   0  0  0  0  0  0  0  0  0  0  0  0
   -7.0255    4.7931  -34.4876 C   0  0  0  0  0  0  0  0  0  0  0  0
   -7.5180    4.3017  -36.7150 C   0  0  0  0  0  0  0  0  0  0  0  0
   -6.8412    5.5728  -37.2151 C   0  0  2  0  0  0  0  0  0  0  0  0
   -6.7271    7.9879  -36.5769 C   0  0  0  0  0  0  0  0  0  0  0  0
   -5.4117    5.2814  -37.6826 C   0  0  0  0  0  0  0  0  0  0  0  0
   -6.8391    6.5960  -36.1612 N   0  0  0  0  0  0  0  0  0  0  0  0
   -6.5975    7.0659  -33.8949 O   0  0  0  0  0  0  0  0  0  0  0  0
   -6.8529    3.8669  -35.5359 O   0  0  0  0  0  0  0  0  0  0  0  0
   -5.4737    4.7206  -38.9790 O   0  0  0  0  0  0  0  0  0  0  0  0
   -6.3430    4.5054  -33.6811 H   0  0  0  0  0  0  0  0  0  0  0  0
   -8.0486    4.7073  -34.1029 H   0  0  0  0  0  0  0  0  0  0  0  0
   -8.5837    4.4621  -36.5097 H   0  0  0  0  0  0  0  0  0  0  0  0
   -7.4447    3.5026  -37.4603 H   0  0  0  0  0  0  0  0  0  0  0  0
   -7.4198    5.9600  -38.0624 H   0  0  0  0  0  0  0  0  0  0  0  0
   -5.6702    8.2330  -36.7585 H   0  0  0  0  0  0  0  0  0  0  0  0
   -7.3032    8.1419  -37.5013 H   0  0  0  0  0  0  0  0  0  0  0  0
   -7.1237    8.6401  -35.7848 H   0  0  0  0  0  0  0  0  0  0  0  0
   -4.9413    4.5751  -37.0020 H   0  0  0  0  0  0  0  0  0  0  0  0
   -4.8408    6.2070  -37.7127 H   0  0  0  0  0  0  0  0  0  0  0  0
   -5.9952    3.9017  -38.9133 H   0  0  0  0  0  0  0  0  0  0  0  0
  1  2  1  0  0  0  0
  1  7  1  0  0  0  0
  1  8  2  0  0  0  0
  2  9  1  0  0  0  0
  3  4  1  0  0  0  0
  3  9  1  0  0  0  0
  4  6  1  0  0  0  0
  4  7  1  0  0  0  0
  5  7  1  0  0  0  0
  6 10  1  0  0  0  0
  2 11  1  0  0  0  0
  2 12  1  0  0  0  0
  3 13  1  0  0  0  0
  3 14  1  0  0  0  0
  4 15  1  0  0  0  0
  5 16  1  0  0  0  0
  5 17  1  0  0  0  0
  5 18  1  0  0  0  0
  6 19  1  0  0  0  0
  6 20  1  0  0  0  0
 10 21  1  0  0  0  0
M  END
> <id>
EN300-7160612

> <smiles>
CN1C(CO)COCC1=O

> <MDLNUMBER>
MFCD28550434

> <IUPAC Name>
5-(hydroxymethyl)-4-methylmorpholin-3-one

> <CAS>
1780456-89-4

> <URL>
https://www.enaminestore.com/catalog/EN300-7160612

> <ROCS_ShapeQuery>
hit0

> <ROCS_TanimotoCombo>
0.988 

> <ROCS_ShapeTanimoto>
0.479 

> <ROCS_ColorTanimoto>
0.509 

> <ROCS_RefTversky>
1.388 

> <ROCS_RefColorTversky>
0.624 

> <ROCS_RefTverskyCombo>
2.012 

> <ROCS_FitTversky>
0.422 

> <ROCS_FitColorTversky>
0.735 

> <ROCS_FitTverskyCombo>
1.158 

> <ROCS_ColorScore>
-3.712

> <ROCS_Overlap>
172.418

> <ROCS_Rank>
395                 

$$$$
untitled-dbase-171042_10
  -OEChem-06232314393D

 21 21  0     1  0  0  0  0  0999 V2000
   -6.7724    6.2603  -34.8105 C   0  0  0  0  0  0  0  0  0  0  0  0
   -7.0245    4.7931  -34.4875 C   0  0  0  0  0  0  0  0  0  0  0  0
   -7.5182    4.3023  -36.7149 C   0  0  0  0  0  0  0  0  0  0  0  0
   -6.8409    5.5730  -37.2150 C   0  0  2  0  0  0  0  0  0  0  0  0
   -6.7272    7.9882  -36.5768 C   0  0  0  0  0  0  0  0  0  0  0  0
   -5.4115    5.2812  -37.6825 C   0  0  0  0  0  0  0  0  0  0  0  0
   -6.8384    6.5962  -36.1610 N   0  0  0  0  0  0  0  0  0  0  0  0
   -6.5977    7.0660  -33.8945 O   0  0  0  0  0  0  0  0  0  0  0  0
   -6.8529    3.8669  -35.5361 O   0  0  0  0  0  0  0  0  0  0  0  0
   -5.4739    4.7205  -38.9790 O   0  0  0  0  0  0  0  0  0  0  0  0
   -6.3412    4.5051  -33.6818 H   0  0  0  0  0  0  0  0  0  0  0  0
   -8.0472    4.7069  -34.1017 H   0  0  0  0  0  0  0  0  0  0  0  0
   -8.5837    4.4630  -36.5089 H   0  0  0  0  0  0  0  0  0  0  0  0
   -7.4454    3.5035  -37.4605 H   0  0  0  0  0  0  0  0  0  0  0  0
   -7.4195    5.9604  -38.0622 H   0  0  0  0  0  0  0  0  0  0  0  0
   -5.6704    8.2340  -36.7579 H   0  0  0  0  0  0  0  0  0  0  0  0
   -7.3029    8.1416  -37.5014 H   0  0  0  0  0  0  0  0  0  0  0  0
   -7.1247    8.6401  -35.7849 H   0  0  0  0  0  0  0  0  0  0  0  0
   -4.9413    4.5747  -37.0020 H   0  0  0  0  0  0  0  0  0  0  0  0
   -4.8403    6.2066  -37.7126 H   0  0  0  0  0  0  0  0  0  0  0  0
   -5.9956    3.9018  -38.9134 H   0  0  0  0  0  0  0  0  0  0  0  0
  1  2  1  0  0  0  0
  1  7  1  0  0  0  0
  1  8  2  0  0  0  0
  2  9  1  0  0  0  0
  3  4  1  0  0  0  0
  3  9  1  0  0  0  0
  4  6  1  1  0  0  0
  4  7  1  0  0  0  0
  5  7  1  0  0  0  0
  6 10  1  0  0  0  0
  2 11  1  0  0  0  0
  2 12  1  0  0  0  0
  3 13  1  0  0  0  0
  3 14  1  0  0  0  0
  4 15  1  0  0  0  0
  5 16  1  0  0  0  0
  5 17  1  0  0  0  0
  5 18  1  0  0  0  0
  6 19  1  0  0  0  0
  6 20  1  0  0  0  0
 10 21  1  0  0  0  0
M  END
> <id>
EN300-6966478

> <smiles>
CN1[C@@H](CO)COCC1=O

> <MDLNUMBER>
MFCD30337363

> <IUPAC Name>
(5S)-5-(hydroxymethyl)-4-methylmorpholin-3-one

> <CAS>
1207625-91-9

> <Purity>
95

> <URL>
https://www.enaminestore.com/catalog/EN300-6966478

> <ROCS_ShapeQuery>
hit0

> <ROCS_TanimotoCombo>
0.988 

> <ROCS_ShapeTanimoto>
0.479 

> <ROCS_ColorTanimoto>
0.509 

> <ROCS_RefTversky>
1.388 

> <ROCS_RefColorTversky>
0.624 

> <ROCS_RefTverskyCombo>
2.012 

> <ROCS_FitTversky>
0.422 

> <ROCS_FitColorTversky>
0.735 

> <ROCS_FitTverskyCombo>
1.158 

> <ROCS_ColorScore>
-3.712

> <ROCS_Overlap>
172.429

> <ROCS_Rank>
396                 

$$$$
untitled-dbase-99895_44
  -OEChem-06232314393D

 19 19  0     1  0  0  0  0  0999 V2000
   -6.3282    6.1421  -34.8416 C   0  0  0  0  0  0  0  0  0  0  0  0
   -5.4705    5.0409  -34.2808 C   0  0  0  0  0  0  0  0  0  0  0  0
   -6.9488    5.9274  -36.2007 C   0  0  0  0  0  0  0  0  0  0  0  0
   -6.0111    3.6517  -34.5949 C   0  0  0  0  0  0  0  0  0  0  0  0
   -6.7186    4.5172  -36.7336 C   0  0  1  0  0  0  0  0  0  0  0  0
   -5.3909    4.3230  -37.4618 C   0  0  0  0  0  0  0  0  0  0  0  0
   -6.4710    7.2079  -34.2416 O   0  0  0  0  0  0  0  0  0  0  0  0
   -6.9155    3.5673  -35.6915 O   0  0  0  0  0  0  0  0  0  0  0  0
   -5.5219    4.8158  -38.7838 O   0  0  0  0  0  0  0  0  0  0  0  0
   -4.4564    5.1643  -34.7140 H   0  0  0  0  0  0  0  0  0  0  0  0
   -5.3699    5.1688  -33.1835 H   0  0  0  0  0  0  0  0  0  0  0  0
   -8.0344    6.1463  -36.1440 H   0  0  0  0  0  0  0  0  0  0  0  0
   -6.5027    6.6851  -36.8776 H   0  0  0  0  0  0  0  0  0  0  0  0
   -5.1574    2.9673  -34.8162 H   0  0  0  0  0  0  0  0  0  0  0  0
   -6.5003    3.2055  -33.6914 H   0  0  0  0  0  0  0  0  0  0  0  0
   -7.5488    4.3091  -37.5051 H   0  0  0  0  0  0  0  0  0  0  0  0
   -5.1345    3.2630  -37.4984 H   0  0  0  0  0  0  0  0  0  0  0  0
   -4.5987    4.8730  -36.9514 H   0  0  0  0  0  0  0  0  0  0  0  0
   -5.7477    5.7588  -38.7148 H   0  0  0  0  0  0  0  0  0  0  0  0
  1  2  1  0  0  0  0
  1  3  1  0  0  0  0
  1  7  2  0  0  0  0
  2  4  1  0  0  0  0
  3  5  1  0  0  0  0
  4  8  1  0  0  0  0
  5  6  1  0  0  0  0
  5  8  1  0  0  0  0
  6  9  1  0  0  0  0
  2 10  1  0  0  0  0
  2 11  1  0  0  0  0
  3 12  1  0  0  0  0
  3 13  1  0  0  0  0
  4 14  1  0  0  0  0
  4 15  1  0  0  0  0
  5 16  1  0  0  0  0
  6 17  1  0  0  0  0
  6 18  1  0  0  0  0
  9 19  1  0  0  0  0
M  END
> <id>
EN300-1266157

> <smiles>
OCC1CC(=O)CCO1

> <MDLNUMBER>
MFCD24693577

> <IUPAC Name>
2-(hydroxymethyl)oxan-4-one

> <CAS>
243968-13-0

> <Purity>
95

> <URL>
https://www.enaminestore.com/catalog/EN300-1266157

> <ROCS_ShapeQuery>
hit0

> <ROCS_TanimotoCombo>
0.988 

> <ROCS_ShapeTanimoto>
0.453 

> <ROCS_ColorTanimoto>
0.534 

> <ROCS_RefTversky>
1.234 

> <ROCS_RefColorTversky>
0.644 

> <ROCS_RefTverskyCombo>
1.878 

> <ROCS_FitTversky>
0.418 

> <ROCS_FitColorTversky>
0.758 

> <ROCS_FitTverskyCombo>
1.176 

> <ROCS_ColorScore>
-3.830

> <ROCS_Overlap>
150.166

> <ROCS_Rank>
397                 

$$$$
untitled-dbase-158083_0
  -OEChem-06232314393D

 14 14  0     0  0  0  0  0  0999 V2000
   -6.0444    4.0081  -37.8276 C   0  0  0  0  0  0  0  0  0  0  0  0
   -6.3409    4.5881  -36.5610 C   0  0  0  0  0  0  0  0  0  0  0  0
   -6.0182    5.9278  -36.5667 C   0  0  0  0  0  0  0  0  0  0  0  0
   -6.1278    6.9238  -35.5537 C   0  0  0  0  0  0  0  0  0  0  0  0
   -5.5332    4.8088  -38.7596 N   0  0  0  0  0  0  0  0  0  0  0  0
   -6.8626    3.9156  -35.5104 N   0  0  0  0  0  0  0  0  0  0  0  0
   -5.7136    8.2351  -35.8459 N   0  0  0  0  0  0  0  0  0  0  0  0
   -6.5663    6.6722  -34.4005 O   0  0  0  0  0  0  0  0  0  0  0  0
   -5.3922    6.3316  -38.1091 S   0  0  0  0  0  0  0  0  0  0  0  0
   -6.1978    2.9727  -38.1020 H   0  0  0  0  0  0  0  0  0  0  0  0
   -7.0174    4.3647  -34.5969 H   0  0  0  0  0  0  0  0  0  0  0  0
   -7.0412    2.9021  -35.5453 H   0  0  0  0  0  0  0  0  0  0  0  0
   -5.7919    8.9435  -35.1243 H   0  0  0  0  0  0  0  0  0  0  0  0
   -5.3391    8.5000  -36.7512 H   0  0  0  0  0  0  0  0  0  0  0  0
  1  2  1  0  0  0  0
  1  5  2  0  0  0  0
  2  3  2  0  0  0  0
  2  6  1  0  0  0  0
  3  4  1  0  0  0  0
  3  9  1  0  0  0  0
  4  7  1  0  0  0  0
  4  8  2  0  0  0  0
  5  9  1  0  0  0  0
  1 10  1  0  0  0  0
  6 11  1  0  0  0  0
  6 12  1  0  0  0  0
  7 13  1  0  0  0  0
  7 14  1  0  0  0  0
M  END
> <id>
EN300-7330168

> <smiles>
NC(=O)C=1SN=CC1N

> <MDLNUMBER>
MFCD18821789

> <IUPAC Name>
4-amino-1,2-thiazole-5-carboxamide

> <CAS>
533937-83-6

> <URL>
https://www.enaminestore.com/catalog/EN300-7330168

> <ROCS_ShapeQuery>
hit0

> <ROCS_TanimotoCombo>
0.987 

> <ROCS_ShapeTanimoto>
0.503 

> <ROCS_ColorTanimoto>
0.484 

> <ROCS_RefTversky>
1.334 

> <ROCS_RefColorTversky>
0.653 

> <ROCS_RefTverskyCombo>
1.987 

> <ROCS_FitTversky>
0.447 

> <ROCS_FitColorTversky>
0.653 

> <ROCS_FitTverskyCombo>
1.099 

> <ROCS_ColorScore>
-3.916

> <ROCS_Overlap>
162.686

> <ROCS_Rank>
398                 

$$$$
untitled-dbase-173182_44
  -OEChem-06232314393D

 19 19  0     1  0  0  0  0  0999 V2000
   -6.4866    6.2468  -34.9589 C   0  0  0  0  0  0  0  0  0  0  0  0
   -6.6463    6.7356  -36.3763 C   0  0  0  0  0  0  0  0  0  0  0  0
   -6.0733    4.8017  -34.7913 C   0  0  0  0  0  0  0  0  0  0  0  0
   -7.4111    5.6980  -37.1848 C   0  0  0  0  0  0  0  0  0  0  0  0
   -6.8522    4.2840  -37.0028 C   0  0  1  0  0  0  0  0  0  0  0  0
   -5.4920    4.0736  -37.6634 C   0  0  0  0  0  0  0  0  0  0  0  0
   -6.5814    7.0077  -33.9974 O   0  0  0  0  0  0  0  0  0  0  0  0
   -6.8295    3.9338  -35.6153 O   0  0  0  0  0  0  0  0  0  0  0  0
   -5.4918    4.7278  -38.9203 O   0  0  0  0  0  0  0  0  0  0  0  0
   -7.1878    7.6864  -36.3499 H   0  0  0  0  0  0  0  0  0  0  0  0
   -5.6601    6.9066  -36.8177 H   0  0  0  0  0  0  0  0  0  0  0  0
   -5.0169    4.6977  -35.0730 H   0  0  0  0  0  0  0  0  0  0  0  0
   -6.1744    4.5117  -33.7355 H   0  0  0  0  0  0  0  0  0  0  0  0
   -8.4797    5.7297  -36.9131 H   0  0  0  0  0  0  0  0  0  0  0  0
   -7.3479    5.9768  -38.2520 H   0  0  0  0  0  0  0  0  0  0  0  0
   -7.5779    3.5550  -37.5089 H   0  0  0  0  0  0  0  0  0  0  0  0
   -5.3089    3.0085  -37.8139 H   0  0  0  0  0  0  0  0  0  0  0  0
   -4.7025    4.4955  -37.0397 H   0  0  0  0  0  0  0  0  0  0  0  0
   -5.6552    5.6709  -38.7501 H   0  0  0  0  0  0  0  0  0  0  0  0
  1  2  1  0  0  0  0
  1  3  1  0  0  0  0
  1  7  2  0  0  0  0
  2  4  1  0  0  0  0
  3  8  1  0  0  0  0
  4  5  1  0  0  0  0
  5  6  1  0  0  0  0
  5  8  1  0  0  0  0
  6  9  1  0  0  0  0
  2 10  1  0  0  0  0
  2 11  1  0  0  0  0
  3 12  1  0  0  0  0
  3 13  1  0  0  0  0
  4 14  1  0  0  0  0
  4 15  1  0  0  0  0
  5 16  1  0  0  0  0
  6 17  1  0  0  0  0
  6 18  1  0  0  0  0
  9 19  1  0  0  0  0
M  END
> <id>
EN300-7538645

> <smiles>
OCC1CCC(=O)CO1

> <IUPAC Name>
6-(hydroxymethyl)oxan-3-one

> <CAS>
1808936-58-4

> <URL>
https://www.enaminestore.com/catalog/EN300-7538645

> <ROCS_ShapeQuery>
hit0

> <ROCS_TanimotoCombo>
0.987 

> <ROCS_ShapeTanimoto>
0.457 

> <ROCS_ColorTanimoto>
0.530 

> <ROCS_RefTversky>
1.241 

> <ROCS_RefColorTversky>
0.641 

> <ROCS_RefTverskyCombo>
1.882 

> <ROCS_FitTversky>
0.420 

> <ROCS_FitColorTversky>
0.755 

> <ROCS_FitTverskyCombo>
1.175 

> <ROCS_ColorScore>
-3.812

> <ROCS_Overlap>
151.004

> <ROCS_Rank>
399                 

$$$$
untitled-dbase-3207_22
  -OEChem-06232314393D

 20 20  0     1  0  0  0  0  0999 V2000
   -6.8879    3.0746  -36.0704 C   0  0  0  0  0  0  0  0  0  0  0  0
   -7.3088    4.1788  -35.3293 C   0  0  0  0  0  0  0  0  0  0  0  0
   -6.2649    3.2594  -37.3047 C   0  0  0  0  0  0  0  0  0  0  0  0
   -6.4839    5.6527  -37.0568 C   0  0  0  0  0  0  0  0  0  0  0  0
   -7.1068    5.4678  -35.8225 C   0  0  0  0  0  0  0  0  0  0  0  0
   -6.0630    4.5485  -37.7979 C   0  0  0  0  0  0  0  0  0  0  0  0
   -7.8996    7.8582  -35.9010 C   0  0  0  0  0  0  0  0  0  0  0  0
   -7.5574    6.6482  -35.0302 C   0  0  2  0  0  0  0  0  0  0  0  0
   -5.4545    4.7288  -39.0021 O   0  0  0  0  0  0  0  0  0  0  0  0
   -6.5152    7.0295  -34.1247 O   0  0  0  0  0  0  0  0  0  0  0  0
   -7.0447    2.0711  -35.6861 H   0  0  0  0  0  0  0  0  0  0  0  0
   -7.7936    4.0248  -34.3688 H   0  0  0  0  0  0  0  0  0  0  0  0
   -5.9394    2.3953  -37.8770 H   0  0  0  0  0  0  0  0  0  0  0  0
   -6.3254    6.6565  -37.4440 H   0  0  0  0  0  0  0  0  0  0  0  0
   -7.0556    8.1349  -36.5409 H   0  0  0  0  0  0  0  0  0  0  0  0
   -8.1689    8.7266  -35.2892 H   0  0  0  0  0  0  0  0  0  0  0  0
   -8.7659    7.6481  -36.5378 H   0  0  0  0  0  0  0  0  0  0  0  0
   -8.4401    6.4163  -34.4101 H   0  0  0  0  0  0  0  0  0  0  0  0
   -5.2215    3.8715  -39.3928 H   0  0  0  0  0  0  0  0  0  0  0  0
   -6.8503    7.7941  -33.6352 H   0  0  0  0  0  0  0  0  0  0  0  0
  1  2  1  0  0  0  0
  1  3  2  0  0  0  0
  2  5  2  0  0  0  0
  3  6  1  0  0  0  0
  4  5  1  0  0  0  0
  4  6  2  0  0  0  0
  5  8  1  0  0  0  0
  6  9  1  0  0  0  0
  7  8  1  0  0  0  0
  8 10  1  0  0  0  0
  1 11  1  0  0  0  0
  2 12  1  0  0  0  0
  3 13  1  0  0  0  0
  4 14  1  0  0  0  0
  7 15  1  0  0  0  0
  7 16  1  0  0  0  0
  7 17  1  0  0  0  0
  8 18  1  0  0  0  0
  9 19  1  0  0  0  0
 10 20  1  0  0  0  0
M  END
> <id>
EN300-60803

> <smiles>
CC(O)C=1C=CC=C(O)C1

> <MDLNUMBER>
MFCD00238621

> <IUPAC Name>
3-(1-hydroxyethyl)phenol

> <CAS>
2415-09-0

> <Purity>
95

> <URL>
https://www.enaminestore.com/catalog/EN300-60803

> <ROCS_ShapeQuery>
hit0

> <ROCS_TanimotoCombo>
0.987 

> <ROCS_ShapeTanimoto>
0.461 

> <ROCS_ColorTanimoto>
0.525 

> <ROCS_RefTversky>
1.357 

> <ROCS_RefColorTversky>
0.637 

> <ROCS_RefTverskyCombo>
1.994 

> <ROCS_FitTversky>
0.412 

> <ROCS_FitColorTversky>
0.750 

> <ROCS_FitTverskyCombo>
1.162 

> <ROCS_ColorScore>
-3.789

> <ROCS_Overlap>
168.680

> <ROCS_Rank>
400                 

$$$$
untitled-dbase-15799_22
  -OEChem-06232314393D

 20 20  0     1  0  0  0  0  0999 V2000
   -6.8879    3.0746  -36.0704 C   0  0  0  0  0  0  0  0  0  0  0  0
   -7.3088    4.1788  -35.3293 C   0  0  0  0  0  0  0  0  0  0  0  0
   -6.2649    3.2594  -37.3047 C   0  0  0  0  0  0  0  0  0  0  0  0
   -6.4839    5.6527  -37.0568 C   0  0  0  0  0  0  0  0  0  0  0  0
   -7.1068    5.4678  -35.8225 C   0  0  0  0  0  0  0  0  0  0  0  0
   -6.0630    4.5485  -37.7979 C   0  0  0  0  0  0  0  0  0  0  0  0
   -7.8996    7.8582  -35.9010 C   0  0  0  0  0  0  0  0  0  0  0  0
   -7.5574    6.6482  -35.0302 C   0  0  2  0  0  0  0  0  0  0  0  0
   -5.4545    4.7288  -39.0021 O   0  0  0  0  0  0  0  0  0  0  0  0
   -6.5152    7.0295  -34.1247 O   0  0  0  0  0  0  0  0  0  0  0  0
   -7.0447    2.0711  -35.6861 H   0  0  0  0  0  0  0  0  0  0  0  0
   -7.7936    4.0248  -34.3688 H   0  0  0  0  0  0  0  0  0  0  0  0
   -5.9394    2.3953  -37.8770 H   0  0  0  0  0  0  0  0  0  0  0  0
   -6.3254    6.6565  -37.4440 H   0  0  0  0  0  0  0  0  0  0  0  0
   -7.0556    8.1349  -36.5409 H   0  0  0  0  0  0  0  0  0  0  0  0
   -8.1689    8.7266  -35.2892 H   0  0  0  0  0  0  0  0  0  0  0  0
   -8.7659    7.6481  -36.5378 H   0  0  0  0  0  0  0  0  0  0  0  0
   -8.4401    6.4163  -34.4101 H   0  0  0  0  0  0  0  0  0  0  0  0
   -5.2215    3.8715  -39.3928 H   0  0  0  0  0  0  0  0  0  0  0  0
   -6.8503    7.7941  -33.6352 H   0  0  0  0  0  0  0  0  0  0  0  0
  1  2  1  0  0  0  0
  1  3  2  0  0  0  0
  2  5  2  0  0  0  0
  3  6  1  0  0  0  0
  4  5  1  0  0  0  0
  4  6  2  0  0  0  0
  5  8  1  0  0  0  0
  6  9  1  0  0  0  0
  7  8  1  6  0  0  0
  8 10  1  0  0  0  0
  1 11  1  0  0  0  0
  2 12  1  0  0  0  0
  3 13  1  0  0  0  0
  4 14  1  0  0  0  0
  7 15  1  0  0  0  0
  7 16  1  0  0  0  0
  7 17  1  0  0  0  0
  8 18  1  0  0  0  0
  9 19  1  0  0  0  0
 10 20  1  0  0  0  0
M  END
> <id>
EN300-71630

> <smiles>
C[C@H](O)C=1C=CC=C(O)C1

> <MDLNUMBER>
MFCD14705954

> <IUPAC Name>
3-[(1S)-1-hydroxyethyl]phenol

> <CAS>
194545-44-3

> <Purity>
95

> <URL>
https://www.enaminestore.com/catalog/EN300-71630

> <ROCS_ShapeQuery>
hit0

> <ROCS_TanimotoCombo>
0.987 

> <ROCS_ShapeTanimoto>
0.461 

> <ROCS_ColorTanimoto>
0.525 

> <ROCS_RefTversky>
1.357 

> <ROCS_RefColorTversky>
0.637 

> <ROCS_RefTverskyCombo>
1.994 

> <ROCS_FitTversky>
0.412 

> <ROCS_FitColorTversky>
0.750 

> <ROCS_FitTverskyCombo>
1.162 

> <ROCS_ColorScore>
-3.789

> <ROCS_Overlap>
168.680

> <ROCS_Rank>
401                 

$$$$
untitled-dbase-93637_3
  -OEChem-06232314393D

  9  8  0     0  0  0  0  0  0999 V2000
   -6.4357    6.7726  -35.7623 C   0  0  0  0  0  0  0  0  0  0  0  0
   -5.8591    5.4257  -36.1810 C   0  0  0  0  0  0  0  0  0  0  0  0
   -6.5056    6.9002  -34.3477 O   0  0  0  0  0  0  0  0  0  0  0  0
   -6.8389    4.0840  -35.5403 Cl  0  0  0  0  0  0  0  0  0  0  0  0
   -5.7456    5.3004  -37.9535 Cl  0  0  0  0  0  0  0  0  0  0  0  0
   -5.8272    7.5970  -36.1498 H   0  0  0  0  0  0  0  0  0  0  0  0
   -7.4484    6.8990  -36.1597 H   0  0  0  0  0  0  0  0  0  0  0  0
   -4.8479    5.3105  -35.7808 H   0  0  0  0  0  0  0  0  0  0  0  0
   -7.0800    6.1848  -34.0308 H   0  0  0  0  0  0  0  0  0  0  0  0
  1  2  1  0  0  0  0
  1  3  1  0  0  0  0
  2  4  1  0  0  0  0
  2  5  1  0  0  0  0
  1  6  1  0  0  0  0
  1  7  1  0  0  0  0
  2  8  1  0  0  0  0
  3  9  1  0  0  0  0
M  END
> <id>
EN300-344057

> <smiles>
OCC(Cl)Cl

> <MDLNUMBER>
MFCD00004700

> <IUPAC Name>
2,2-dichloroethan-1-ol

> <CAS>
598-38-9

> <Purity>
95

> <URL>
https://www.enaminestore.com/catalog/EN300-344057

> <ROCS_ShapeQuery>
hit0

> <ROCS_TanimotoCombo>
0.987 

> <ROCS_ShapeTanimoto>
0.654 

> <ROCS_ColorTanimoto>
0.333 

> <ROCS_RefTversky>
0.964 

> <ROCS_RefColorTversky>
0.345 

> <ROCS_RefTverskyCombo>
1.309 

> <ROCS_FitTversky>
0.670 

> <ROCS_FitColorTversky>
0.909 

> <ROCS_FitTverskyCombo>
1.579 

> <ROCS_ColorScore>
-1.999

> <ROCS_Overlap>
107.198

> <ROCS_Rank>
402                 

$$$$
untitled-dbase-91273_3
  -OEChem-06232314393D

 15 15  0     0  0  0  0  0  0999 V2000
   -7.5243    4.9749  -34.3242 C   0  0  0  0  0  0  0  0  0  0  0  0
   -7.5753    3.7588  -34.9743 C   0  0  0  0  0  0  0  0  0  0  0  0
   -6.6117    5.8813  -34.8240 C   0  0  0  0  0  0  0  0  0  0  0  0
   -5.9505    4.4092  -36.4249 C   0  0  0  0  0  0  0  0  0  0  0  0
   -5.0759    4.0946  -37.5908 C   0  0  0  0  0  0  0  0  0  0  0  0
   -6.8000    3.4410  -36.0318 N   0  0  0  0  0  0  0  0  0  0  0  0
   -5.8058    5.6307  -35.8766 N   0  0  0  0  0  0  0  0  0  0  0  0
   -6.5003    7.1118  -34.2327 O   0  0  0  0  0  0  0  0  0  0  0  0
   -5.5603    4.7749  -38.7423 O   0  0  0  0  0  0  0  0  0  0  0  0
   -8.1615    5.1967  -33.4779 H   0  0  0  0  0  0  0  0  0  0  0  0
   -8.2616    2.9826  -34.6531 H   0  0  0  0  0  0  0  0  0  0  0  0
   -4.0381    4.4069  -37.4097 H   0  0  0  0  0  0  0  0  0  0  0  0
   -5.0630    3.0157  -37.7980 H   0  0  0  0  0  0  0  0  0  0  0  0
   -5.8254    7.6344  -34.6883 H   0  0  0  0  0  0  0  0  0  0  0  0
   -5.5352    5.7232  -38.5371 H   0  0  0  0  0  0  0  0  0  0  0  0
  1  2  2  0  0  0  0
  1  3  1  0  0  0  0
  2  6  1  0  0  0  0
  3  7  2  0  0  0  0
  3  8  1  0  0  0  0
  4  5  1  0  0  0  0
  4  6  2  0  0  0  0
  4  7  1  0  0  0  0
  5  9  1  0  0  0  0
  1 10  1  0  0  0  0
  2 11  1  0  0  0  0
  5 12  1  0  0  0  0
  5 13  1  0  0  0  0
  8 14  1  0  0  0  0
  9 15  1  0  0  0  0
M  END
> <id>
EN300-6748368

> <smiles>
Cl.OCC=1N=CC=C(O)N1

> <MDLNUMBER>
MFCD31810722

> <IUPAC Name>
2-(hydroxymethyl)pyrimidin-4-ol hydrochloride

> <CAS>
2305254-99-1

> <Purity>
95

> <URL>
https://www.enaminestore.com/catalog/EN300-6748368

> <Saltdate>
Cl

> <ROCS_ShapeQuery>
hit0

> <ROCS_TanimotoCombo>
0.987 

> <ROCS_ShapeTanimoto>
0.441 

> <ROCS_ColorTanimoto>
0.545 

> <ROCS_RefTversky>
1.253 

> <ROCS_RefColorTversky>
0.759 

> <ROCS_RefTverskyCombo>
2.012 

> <ROCS_FitTversky>
0.405 

> <ROCS_FitColorTversky>
0.659 

> <ROCS_FitTverskyCombo>
1.065 

> <ROCS_ColorScore>
-4.593

> <ROCS_Overlap>
153.713

> <ROCS_Rank>
403                 

$$$$
untitled-dbase-51229_26
  -OEChem-06232314393D

 21 22  0     1  0  0  0  0  0999 V2000
   -7.7403    8.7056  -35.0097 C   0  0  0  0  0  0  0  0  0  0  0  0
   -7.4235    7.9766  -36.1808 C   0  0  0  0  0  0  0  0  0  0  0  0
   -7.1255    8.0460  -33.9711 C   0  0  0  0  0  0  0  0  0  0  0  0
   -6.6374    6.9236  -35.7743 C   0  0  0  0  0  0  0  0  0  0  0  0
   -5.5604    6.1161  -37.9423 C   0  0  0  0  0  0  0  0  0  0  0  0
   -6.1169    3.8540  -37.8517 C   0  0  0  0  0  0  0  0  0  0  0  0
   -5.9730    5.7863  -36.5119 C   0  0  2  0  0  0  0  0  0  0  0  0
   -6.8420    4.5560  -36.7208 C   0  0  2  0  0  0  0  0  0  0  0  0
   -6.4510    6.9587  -34.4287 O   0  0  0  0  0  0  0  0  0  0  0  0
   -5.5301    4.8757  -38.6660 O   0  0  0  0  0  0  0  0  0  0  0  0
   -6.8923    3.7502  -35.5594 O   0  0  0  0  0  0  0  0  0  0  0  0
   -8.3419    9.5996  -34.9322 H   0  0  0  0  0  0  0  0  0  0  0  0
   -7.7318    8.1942  -37.1935 H   0  0  0  0  0  0  0  0  0  0  0  0
   -7.0740    8.2137  -32.9053 H   0  0  0  0  0  0  0  0  0  0  0  0
   -6.2288    6.8146  -38.4507 H   0  0  0  0  0  0  0  0  0  0  0  0
   -4.5461    6.5252  -37.9669 H   0  0  0  0  0  0  0  0  0  0  0  0
   -5.3274    3.1808  -37.5072 H   0  0  0  0  0  0  0  0  0  0  0  0
   -6.8135    3.2961  -38.4848 H   0  0  0  0  0  0  0  0  0  0  0  0
   -5.0370    5.5290  -35.9218 H   0  0  0  0  0  0  0  0  0  0  0  0
   -7.8902    4.7969  -37.0102 H   0  0  0  0  0  0  0  0  0  0  0  0
   -7.3663    2.9411  -35.8057 H   0  0  0  0  0  0  0  0  0  0  0  0
  1  2  1  0  0  0  0
  1  3  2  0  0  0  0
  2  4  2  0  0  0  0
  3  9  1  0  0  0  0
  4  7  1  0  0  0  0
  4  9  1  0  0  0  0
  5  7  1  0  0  0  0
  5 10  1  0  0  0  0
  6  8  1  0  0  0  0
  6 10  1  0  0  0  0
  7  8  1  0  0  0  0
  8 11  1  0  0  0  0
  1 12  1  0  0  0  0
  2 13  1  0  0  0  0
  3 14  1  0  0  0  0
  5 15  1  0  0  0  0
  5 16  1  0  0  0  0
  6 17  1  0  0  0  0
  6 18  1  0  0  0  0
  7 19  1  0  0  0  0
  8 20  1  0  0  0  0
 11 21  1  0  0  0  0
M  END
> <id>
EN300-1637040

> <smiles>
OC1COCC1C2=CC=CO2

> <MDLNUMBER>
MFCD22688534

> <IUPAC Name>
4-(furan-2-yl)oxolan-3-ol

> <CAS>
1420793-84-5

> <URL>
https://www.enaminestore.com/catalog/EN300-1637040

> <ROCS_ShapeQuery>
hit0

> <ROCS_TanimotoCombo>
0.987 

> <ROCS_ShapeTanimoto>
0.495 

> <ROCS_ColorTanimoto>
0.492 

> <ROCS_RefTversky>
1.555 

> <ROCS_RefColorTversky>
0.659 

> <ROCS_RefTverskyCombo>
2.214 

> <ROCS_FitTversky>
0.420 

> <ROCS_FitColorTversky>
0.659 

> <ROCS_FitTverskyCombo>
1.080 

> <ROCS_ColorScore>
-3.957

> <ROCS_Overlap>
198.393

> <ROCS_Rank>
404                 

$$$$
untitled-dbase-78902_136
  -OEChem-06232314393D

 22 22  0     1  0  0  0  0  0999 V2000
   -5.0226    5.2618  -36.1206 C   0  0  0  0  0  0  0  0  0  0  0  0
   -7.1063    6.1751  -35.2605 C   0  0  0  0  0  0  0  0  0  0  0  0
   -6.1773    4.9677  -35.1647 C   0  0  1  0  0  0  0  0  0  0  0  0
   -5.5184    6.4221  -36.9861 C   0  0  1  0  0  0  0  0  0  0  0  0
   -7.1634    8.2192  -36.5764 C   0  0  0  0  0  0  0  0  0  0  0  0
   -6.2426    5.9227  -38.2403 C   0  0  0  0  0  0  0  0  0  0  0  0
   -6.3381    7.1614  -36.0203 N   0  0  1  0  0  0  0  0  0  0  0  0
   -6.8748    3.7998  -35.5758 O   0  0  0  0  0  0  0  0  0  0  0  0
   -5.5376    4.8078  -38.7567 O   0  0  0  0  0  0  0  0  0  0  0  0
   -4.1193    5.5482  -35.5706 H   0  0  0  0  0  0  0  0  0  0  0  0
   -4.7766    4.3783  -36.7234 H   0  0  0  0  0  0  0  0  0  0  0  0
   -8.0547    5.9414  -35.7586 H   0  0  0  0  0  0  0  0  0  0  0  0
   -7.3213    6.5424  -34.2468 H   0  0  0  0  0  0  0  0  0  0  0  0
   -5.8265    4.8186  -34.1407 H   0  0  0  0  0  0  0  0  0  0  0  0
   -4.6392    7.0246  -37.2908 H   0  0  0  0  0  0  0  0  0  0  0  0
   -6.5297    8.9250  -37.1334 H   0  0  0  0  0  0  0  0  0  0  0  0
   -7.9103    7.7826  -37.2557 H   0  0  0  0  0  0  0  0  0  0  0  0
   -7.6758    8.7513  -35.7613 H   0  0  0  0  0  0  0  0  0  0  0  0
   -6.2709    6.7101  -38.9946 H   0  0  0  0  0  0  0  0  0  0  0  0
   -7.2599    5.6193  -37.9895 H   0  0  0  0  0  0  0  0  0  0  0  0
   -7.5926    3.6621  -34.9365 H   0  0  0  0  0  0  0  0  0  0  0  0
   -5.5324    4.1275  -38.0621 H   0  0  0  0  0  0  0  0  0  0  0  0
  1  3  1  0  0  0  0
  1  4  1  0  0  0  0
  2  3  1  0  0  0  0
  2  7  1  0  0  0  0
  3  8  1  1  0  0  0
  4  6  1  1  0  0  0
  4  7  1  0  0  0  0
  5  7  1  0  0  0  0
  6  9  1  0  0  0  0
  1 10  1  0  0  0  0
  1 11  1  0  0  0  0
  2 12  1  0  0  0  0
  2 13  1  0  0  0  0
  3 14  1  0  0  0  0
  4 15  1  0  0  0  0
  5 16  1  0  0  0  0
  5 17  1  0  0  0  0
  5 18  1  0  0  0  0
  6 19  1  0  0  0  0
  6 20  1  0  0  0  0
  8 21  1  0  0  0  0
  9 22  1  0  0  0  0
M  END
> <id>
EN300-3425514

> <smiles>
CN1C[C@@H](O)C[C@H]1CO

> <MDLNUMBER>
MFCD31667610

> <IUPAC Name>
(3S,5S)-5-(hydroxymethyl)-1-methylpyrrolidin-3-ol

> <CAS>
1841379-64-3

> <Purity>
95

> <URL>
https://www.enaminestore.com/catalog/EN300-3425514

> <ROCS_ShapeQuery>
hit0

> <ROCS_TanimotoCombo>
0.987 

> <ROCS_ShapeTanimoto>
0.488 

> <ROCS_ColorTanimoto>
0.499 

> <ROCS_RefTversky>
1.295 

> <ROCS_RefColorTversky>
0.665 

> <ROCS_RefTverskyCombo>
1.961 

> <ROCS_FitTversky>
0.439 

> <ROCS_FitColorTversky>
0.665 

> <ROCS_FitTverskyCombo>
1.105 

> <ROCS_ColorScore>
-3.992

> <ROCS_Overlap>
157.553

> <ROCS_Rank>
405                 

$$$$
untitled-dbase-101198_3
  -OEChem-06232314393D

 15 15  0     1  0  0  0  0  0999 V2000
   -6.4803    4.5294  -36.4254 C   0  0  0  0  0  0  0  0  0  0  0  0
   -5.9318    4.3028  -37.8461 C   0  0  0  0  0  0  0  0  0  0  0  0
   -5.4451    5.7705  -37.8105 C   0  0  0  0  0  0  0  0  0  0  0  0
   -6.3062    6.0593  -36.5466 C   0  0  2  0  0  0  0  0  0  0  0  0
   -5.5929    6.7360  -35.3948 C   0  0  0  0  0  0  0  0  0  0  0  0
   -6.8845    3.7905  -35.5533 O   0  0  0  0  0  0  0  0  0  0  0  0
   -6.5122    6.9264  -34.3301 O   0  0  0  0  0  0  0  0  0  0  0  0
   -5.1422    3.5518  -37.9133 H   0  0  0  0  0  0  0  0  0  0  0  0
   -6.7165    4.0954  -38.5786 H   0  0  0  0  0  0  0  0  0  0  0  0
   -4.3638    5.8632  -37.6539 H   0  0  0  0  0  0  0  0  0  0  0  0
   -5.7148    6.3618  -38.6912 H   0  0  0  0  0  0  0  0  0  0  0  0
   -7.2583    6.5511  -36.7833 H   0  0  0  0  0  0  0  0  0  0  0  0
   -5.2045    7.7107  -35.7042 H   0  0  0  0  0  0  0  0  0  0  0  0
   -4.7647    6.1161  -35.0393 H   0  0  0  0  0  0  0  0  0  0  0  0
   -6.8314    6.0459  -34.0724 H   0  0  0  0  0  0  0  0  0  0  0  0
  1  2  1  0  0  0  0
  1  4  1  0  0  0  0
  1  6  2  0  0  0  0
  2  3  1  0  0  0  0
  3  4  1  0  0  0  0
  4  5  1  0  0  0  0
  5  7  1  0  0  0  0
  2  8  1  0  0  0  0
  2  9  1  0  0  0  0
  3 10  1  0  0  0  0
  3 11  1  0  0  0  0
  4 12  1  0  0  0  0
  5 13  1  0  0  0  0
  5 14  1  0  0  0  0
  7 15  1  0  0  0  0
M  END
> <id>
EN300-6737744

> <smiles>
OCC1CCC1=O

> <MDLNUMBER>
MFCD23106469

> <IUPAC Name>
2-(hydroxymethyl)cyclobutan-1-one

> <CAS>
23107-52-0

> <Purity>
95

> <URL>
https://www.enaminestore.com/catalog/EN300-6737744

> <ROCS_ShapeQuery>
hit0

> <ROCS_TanimotoCombo>
0.986 

> <ROCS_ShapeTanimoto>
0.558 

> <ROCS_ColorTanimoto>
0.428 

> <ROCS_RefTversky>
1.189 

> <ROCS_RefColorTversky>
0.508 

> <ROCS_RefTverskyCombo>
1.697 

> <ROCS_FitTversky>
0.513 

> <ROCS_FitColorTversky>
0.732 

> <ROCS_FitTverskyCombo>
1.244 

> <ROCS_ColorScore>
-2.999

> <ROCS_Overlap>
139.131

> <ROCS_Rank>
406                 

$$$$
untitled-dbase-92196_27
  -OEChem-06232314393D

 22 22  0     1  0  0  0  0  0999 V2000
   -5.9542    6.1130  -36.6986 C   0  0  0  0  0  0  0  0  0  0  0  0
   -6.1191    3.5935  -36.7624 C   0  0  0  0  0  0  0  0  0  0  0  0
   -7.1950    4.8158  -34.9239 C   0  0  0  0  0  0  0  0  0  0  0  0
   -6.3211    4.8908  -37.5428 C   0  0  2  0  0  0  0  0  0  0  0  0
   -6.1046    5.8474  -35.1990 C   0  0  2  0  0  0  0  0  0  0  0  0
   -6.1292    6.9709  -33.1387 C   0  0  0  0  0  0  0  0  0  0  0  0
   -6.9476    3.5213  -35.5582 N   0  0  0  0  0  0  0  0  0  0  0  0
   -5.5194    4.8866  -38.7186 O   0  0  0  0  0  0  0  0  0  0  0  0
   -6.4246    7.0585  -34.5240 O   0  0  0  0  0  0  0  0  0  0  0  0
   -4.9160    6.4080  -36.9164 H   0  0  0  0  0  0  0  0  0  0  0  0
   -6.5809    6.9635  -37.0061 H   0  0  0  0  0  0  0  0  0  0  0  0
   -6.3533    2.7338  -37.4113 H   0  0  0  0  0  0  0  0  0  0  0  0
   -5.0553    3.4611  -36.5000 H   0  0  0  0  0  0  0  0  0  0  0  0
   -7.3111    4.6696  -33.8358 H   0  0  0  0  0  0  0  0  0  0  0  0
   -8.1666    5.1897  -35.2880 H   0  0  0  0  0  0  0  0  0  0  0  0
   -7.3738    4.9742  -37.8625 H   0  0  0  0  0  0  0  0  0  0  0  0
   -5.1498    5.4917  -34.7964 H   0  0  0  0  0  0  0  0  0  0  0  0
   -6.3856    7.9143  -32.6503 H   0  0  0  0  0  0  0  0  0  0  0  0
   -5.0660    6.7561  -33.0048 H   0  0  0  0  0  0  0  0  0  0  0  0
   -6.7201    6.1636  -32.6996 H   0  0  0  0  0  0  0  0  0  0  0  0
   -7.8543    3.1001  -35.8100 H   0  0  0  0  0  0  0  0  0  0  0  0
   -5.7774    4.1020  -39.2277 H   0  0  0  0  0  0  0  0  0  0  0  0
  1  4  1  0  0  0  0
  1  5  1  0  0  0  0
  2  4  1  0  0  0  0
  2  7  1  0  0  0  0
  3  5  1  0  0  0  0
  3  7  1  0  0  0  0
  4  8  1  6  0  0  0
  5  9  1  1  0  0  0
  6  9  1  0  0  0  0
  1 10  1  0  0  0  0
  1 11  1  0  0  0  0
  2 12  1  0  0  0  0
  2 13  1  0  0  0  0
  3 14  1  0  0  0  0
  3 15  1  0  0  0  0
  4 16  1  0  0  0  0
  5 17  1  0  0  0  0
  6 18  1  0  0  0  0
  6 19  1  0  0  0  0
  6 20  1  0  0  0  0
  7 21  1  0  0  0  0
  8 22  1  0  0  0  0
M  END
> <id>
EN300-6766387

> <smiles>
Cl.CO[C@H]1CNC[C@H](O)C1

> <MDLNUMBER>
MFCD31915820

> <IUPAC Name>
(3R,5R)-5-methoxypiperidin-3-ol hydrochloride

> <CAS>
2309431-95-4

> <Purity>
95

> <URL>
https://www.enaminestore.com/catalog/EN300-6766387

> <Saltdate>
Cl

> <ROCS_ShapeQuery>
hit0

> <ROCS_TanimotoCombo>
0.986 

> <ROCS_ShapeTanimoto>
0.517 

> <ROCS_ColorTanimoto>
0.469 

> <ROCS_RefTversky>
1.337 

> <ROCS_RefColorTversky>
0.639 

> <ROCS_RefTverskyCombo>
1.976 

> <ROCS_FitTversky>
0.457 

> <ROCS_FitColorTversky>
0.639 

> <ROCS_FitTverskyCombo>
1.096 

> <ROCS_ColorScore>
-3.833

> <ROCS_Overlap>
162.336

> <ROCS_Rank>
407                 

$$$$
untitled-dbase-92377_27
  -OEChem-06232314393D

 22 22  0     1  0  0  0  0  0999 V2000
   -5.9542    6.1130  -36.6986 C   0  0  0  0  0  0  0  0  0  0  0  0
   -6.1191    3.5935  -36.7624 C   0  0  0  0  0  0  0  0  0  0  0  0
   -7.1950    4.8158  -34.9239 C   0  0  0  0  0  0  0  0  0  0  0  0
   -6.3211    4.8908  -37.5428 C   0  0  2  0  0  0  0  0  0  0  0  0
   -6.1046    5.8474  -35.1990 C   0  0  2  0  0  0  0  0  0  0  0  0
   -6.1292    6.9709  -33.1387 C   0  0  0  0  0  0  0  0  0  0  0  0
   -6.9476    3.5213  -35.5582 N   0  0  0  0  0  0  0  0  0  0  0  0
   -5.5194    4.8866  -38.7186 O   0  0  0  0  0  0  0  0  0  0  0  0
   -6.4246    7.0585  -34.5240 O   0  0  0  0  0  0  0  0  0  0  0  0
   -4.9160    6.4080  -36.9164 H   0  0  0  0  0  0  0  0  0  0  0  0
   -6.5809    6.9635  -37.0061 H   0  0  0  0  0  0  0  0  0  0  0  0
   -6.3533    2.7338  -37.4113 H   0  0  0  0  0  0  0  0  0  0  0  0
   -5.0553    3.4611  -36.5000 H   0  0  0  0  0  0  0  0  0  0  0  0
   -7.3111    4.6696  -33.8358 H   0  0  0  0  0  0  0  0  0  0  0  0
   -8.1666    5.1897  -35.2880 H   0  0  0  0  0  0  0  0  0  0  0  0
   -7.3738    4.9742  -37.8625 H   0  0  0  0  0  0  0  0  0  0  0  0
   -5.1498    5.4917  -34.7964 H   0  0  0  0  0  0  0  0  0  0  0  0
   -6.3856    7.9143  -32.6503 H   0  0  0  0  0  0  0  0  0  0  0  0
   -5.0660    6.7561  -33.0048 H   0  0  0  0  0  0  0  0  0  0  0  0
   -6.7201    6.1636  -32.6996 H   0  0  0  0  0  0  0  0  0  0  0  0
   -7.8543    3.1001  -35.8100 H   0  0  0  0  0  0  0  0  0  0  0  0
   -5.7774    4.1020  -39.2277 H   0  0  0  0  0  0  0  0  0  0  0  0
  1  4  1  0  0  0  0
  1  5  1  0  0  0  0
  2  4  1  0  0  0  0
  2  7  1  0  0  0  0
  3  5  1  0  0  0  0
  3  7  1  0  0  0  0
  4  8  1  6  0  0  0
  5  9  1  1  0  0  0
  6  9  1  0  0  0  0
  1 10  1  0  0  0  0
  1 11  1  0  0  0  0
  2 12  1  0  0  0  0
  2 13  1  0  0  0  0
  3 14  1  0  0  0  0
  3 15  1  0  0  0  0
  4 16  1  0  0  0  0
  5 17  1  0  0  0  0
  6 18  1  0  0  0  0
  6 19  1  0  0  0  0
  6 20  1  0  0  0  0
  7 21  1  0  0  0  0
  8 22  1  0  0  0  0
M  END
> <id>
EN300-6766388

> <smiles>
CO[C@H]1CNC[C@H](O)C1

> <MDLNUMBER>
MFCD31915892

> <IUPAC Name>
(3R,5R)-5-methoxypiperidin-3-ol

> <CAS>
2309431-36-3

> <URL>
https://www.enaminestore.com/catalog/EN300-6766388

> <ROCS_ShapeQuery>
hit0

> <ROCS_TanimotoCombo>
0.986 

> <ROCS_ShapeTanimoto>
0.517 

> <ROCS_ColorTanimoto>
0.469 

> <ROCS_RefTversky>
1.337 

> <ROCS_RefColorTversky>
0.639 

> <ROCS_RefTverskyCombo>
1.976 

> <ROCS_FitTversky>
0.457 

> <ROCS_FitColorTversky>
0.639 

> <ROCS_FitTverskyCombo>
1.096 

> <ROCS_ColorScore>
-3.833

> <ROCS_Overlap>
162.336

> <ROCS_Rank>
408                 

$$$$
untitled-dbase-51126_13
  -OEChem-06232314393D

 22 23  0     1  0  0  0  0  0999 V2000
   -7.6933    8.7320  -35.0610 C   0  0  0  0  0  0  0  0  0  0  0  0
   -7.3500    7.9544  -36.1943 C   0  0  0  0  0  0  0  0  0  0  0  0
   -7.1256    8.1285  -33.9606 C   0  0  0  0  0  0  0  0  0  0  0  0
   -6.5831    6.8991  -35.7520 C   0  0  0  0  0  0  0  0  0  0  0  0
   -5.5345    6.0981  -37.9363 C   0  0  0  0  0  0  0  0  0  0  0  0
   -6.1312    3.8455  -37.8686 C   0  0  0  0  0  0  0  0  0  0  0  0
   -5.9440    5.7588  -36.5073 C   0  0  2  0  0  0  0  0  0  0  0  0
   -6.8364    4.5469  -36.7248 C   0  0  2  0  0  0  0  0  0  0  0  0
   -6.4535    7.0150  -34.3926 N   0  0  0  0  0  0  0  0  0  0  0  0
   -5.5312    4.8659  -38.6747 O   0  0  0  0  0  0  0  0  0  0  0  0
   -6.8938    3.7284  -35.5726 O   0  0  0  0  0  0  0  0  0  0  0  0
   -8.2895    9.6335  -35.0467 H   0  0  0  0  0  0  0  0  0  0  0  0
   -7.6333    8.1456  -37.2202 H   0  0  0  0  0  0  0  0  0  0  0  0
   -7.1411    8.3914  -32.9124 H   0  0  0  0  0  0  0  0  0  0  0  0
   -6.1935    6.8144  -38.4321 H   0  0  0  0  0  0  0  0  0  0  0  0
   -4.5132    6.4891  -37.9627 H   0  0  0  0  0  0  0  0  0  0  0  0
   -5.3518    3.1541  -37.5372 H   0  0  0  0  0  0  0  0  0  0  0  0
   -6.8417    3.3076  -38.5037 H   0  0  0  0  0  0  0  0  0  0  0  0
   -5.0091    5.4778  -35.9263 H   0  0  0  0  0  0  0  0  0  0  0  0
   -7.8818    4.8099  -37.0045 H   0  0  0  0  0  0  0  0  0  0  0  0
   -5.9421    6.3779  -33.7971 H   0  0  0  0  0  0  0  0  0  0  0  0
   -7.3839    2.9309  -35.8254 H   0  0  0  0  0  0  0  0  0  0  0  0
  1  2  1  0  0  0  0
  1  3  2  0  0  0  0
  2  4  2  0  0  0  0
  3  9  1  0  0  0  0
  4  7  1  0  0  0  0
  4  9  1  0  0  0  0
  5  7  1  0  0  0  0
  5 10  1  0  0  0  0
  6  8  1  0  0  0  0
  6 10  1  0  0  0  0
  7  8  1  0  0  0  0
  8 11  1  0  0  0  0
  1 12  1  0  0  0  0
  2 13  1  0  0  0  0
  3 14  1  0  0  0  0
  5 15  1  0  0  0  0
  5 16  1  0  0  0  0
  6 17  1  0  0  0  0
  6 18  1  0  0  0  0
  7 19  1  0  0  0  0
  8 20  1  0  0  0  0
  9 21  1  0  0  0  0
 11 22  1  0  0  0  0
M  END
> <id>
EN300-1634333

> <smiles>
OC1COCC1C2=CC=CN2

> <IUPAC Name>
4-(1H-pyrrol-2-yl)oxolan-3-ol

> <CAS>
2021483-59-8

> <URL>
https://www.enaminestore.com/catalog/EN300-1634333

> <ROCS_ShapeQuery>
hit0

> <ROCS_TanimotoCombo>
0.986 

> <ROCS_ShapeTanimoto>
0.495 

> <ROCS_ColorTanimoto>
0.491 

> <ROCS_RefTversky>
1.554 

> <ROCS_RefColorTversky>
0.658 

> <ROCS_RefTverskyCombo>
2.212 

> <ROCS_FitTversky>
0.421 

> <ROCS_FitColorTversky>
0.658 

> <ROCS_FitTverskyCombo>
1.080 

> <ROCS_ColorScore>
-3.951

> <ROCS_Overlap>
198.124

> <ROCS_Rank>
409                 

$$$$
untitled-dbase-86769_5
  -OEChem-06232314393D

 21 21  0     1  0  0  0  0  0999 V2000
   -6.8950    7.0818  -35.4780 C   0  0  0  0  0  0  0  0  0  0  0  0
   -5.5076    5.1528  -38.3572 C   0  0  0  0  0  0  0  0  0  0  0  0
   -5.8962    6.4691  -37.7037 C   0  0  0  0  0  0  0  0  0  0  0  0
   -5.1804    4.2365  -37.1824 C   0  0  0  0  0  0  0  0  0  0  0  0
   -6.7320    6.0146  -36.5099 C   0  0  1  0  0  0  0  0  0  0  0  0
   -5.9793    4.7796  -35.9920 C   0  0  1  0  0  0  0  0  0  0  0  0
   -7.5881    8.3443  -35.9138 C   0  0  0  0  0  0  0  0  0  0  0  0
   -6.4847    6.9351  -34.3277 O   0  0  0  0  0  0  0  0  0  0  0  0
   -6.8956    3.7926  -35.5384 O   0  0  0  0  0  0  0  0  0  0  0  0
   -6.3572    4.7478  -38.9200 H   0  0  0  0  0  0  0  0  0  0  0  0
   -4.6654    5.2612  -39.0467 H   0  0  0  0  0  0  0  0  0  0  0  0
   -5.0035    7.0215  -37.3851 H   0  0  0  0  0  0  0  0  0  0  0  0
   -6.4642    7.1123  -38.3831 H   0  0  0  0  0  0  0  0  0  0  0  0
   -5.4013    3.1899  -37.4146 H   0  0  0  0  0  0  0  0  0  0  0  0
   -4.1090    4.3108  -36.9604 H   0  0  0  0  0  0  0  0  0  0  0  0
   -7.7573    5.7216  -36.8551 H   0  0  0  0  0  0  0  0  0  0  0  0
   -5.3017    5.0108  -35.1586 H   0  0  0  0  0  0  0  0  0  0  0  0
   -8.6648    8.2504  -35.7469 H   0  0  0  0  0  0  0  0  0  0  0  0
   -7.4090    8.5116  -36.9788 H   0  0  0  0  0  0  0  0  0  0  0  0
   -7.2123    9.1886  -35.3308 H   0  0  0  0  0  0  0  0  0  0  0  0
   -7.3757    4.1798  -34.7887 H   0  0  0  0  0  0  0  0  0  0  0  0
  1  5  1  0  0  0  0
  1  7  1  0  0  0  0
  1  8  2  0  0  0  0
  2  3  1  0  0  0  0
  2  4  1  0  0  0  0
  3  5  1  0  0  0  0
  4  6  1  0  0  0  0
  5  6  1  0  0  0  0
  6  9  1  0  0  0  0
  2 10  1  0  0  0  0
  2 11  1  0  0  0  0
  3 12  1  0  0  0  0
  3 13  1  0  0  0  0
  4 14  1  0  0  0  0
  4 15  1  0  0  0  0
  5 16  1  0  0  0  0
  6 17  1  0  0  0  0
  7 18  1  0  0  0  0
  7 19  1  0  0  0  0
  7 20  1  0  0  0  0
  9 21  1  0  0  0  0
M  END
> <id>
EN300-1636343

> <smiles>
CC(=O)C1CCCC1O

> <MDLNUMBER>
MFCD24735134

> <IUPAC Name>
1-(2-hydroxycyclopentyl)ethan-1-one

> <CAS>
190143-64-7

> <URL>
https://www.enaminestore.com/catalog/EN300-1636343

> <ROCS_ShapeQuery>
hit0

> <ROCS_TanimotoCombo>
0.986 

> <ROCS_ShapeTanimoto>
0.558 

> <ROCS_ColorTanimoto>
0.428 

> <ROCS_RefTversky>
1.410 

> <ROCS_RefColorTversky>
0.508 

> <ROCS_RefTverskyCombo>
1.918 

> <ROCS_FitTversky>
0.480 

> <ROCS_FitColorTversky>
0.731 

> <ROCS_FitTverskyCombo>
1.211 

> <ROCS_ColorScore>
-2.999

> <ROCS_Overlap>
171.398

> <ROCS_Rank>
410                 

$$$$
untitled-dbase-161261_2
  -OEChem-06232314393D

 16 15  0     1  0  0  0  0  0999 V2000
   -6.6281    6.1281  -35.1265 C   0  0  0  0  0  0  0  0  0  0  0  0
   -5.4406    6.4326  -37.8963 C   0  0  0  0  0  0  0  0  0  0  0  0
   -5.8125    3.9673  -38.2276 C   0  0  0  0  0  0  0  0  0  0  0  0
   -6.7910    5.1002  -36.1655 C   0  0  1  0  0  0  0  0  0  0  0  0
   -5.6424    5.0840  -37.1950 C   0  0  0  0  0  0  0  0  0  0  0  0
   -6.5027    6.9393  -34.3064 N   0  0  0  0  0  0  0  0  0  0  0  0
   -6.8764    3.8127  -35.5550 O   0  0  0  0  0  0  0  0  0  0  0  0
   -6.3246    6.7135  -38.4776 H   0  0  0  0  0  0  0  0  0  0  0  0
   -4.5791    6.4138  -38.5717 H   0  0  0  0  0  0  0  0  0  0  0  0
   -5.2663    7.2245  -37.1595 H   0  0  0  0  0  0  0  0  0  0  0  0
   -6.7218    4.0993  -38.8231 H   0  0  0  0  0  0  0  0  0  0  0  0
   -5.8635    2.9892  -37.7379 H   0  0  0  0  0  0  0  0  0  0  0  0
   -4.9624    3.9490  -38.9182 H   0  0  0  0  0  0  0  0  0  0  0  0
   -7.7372    5.2650  -36.6946 H   0  0  0  0  0  0  0  0  0  0  0  0
   -4.7149    4.8836  -36.6406 H   0  0  0  0  0  0  0  0  0  0  0  0
   -7.6479    3.8380  -34.9690 H   0  0  0  0  0  0  0  0  0  0  0  0
  1  4  1  0  0  0  0
  1  6  3  0  0  0  0
  2  5  1  0  0  0  0
  3  5  1  0  0  0  0
  4  5  1  0  0  0  0
  4  7  1  0  0  0  0
  2  8  1  0  0  0  0
  2  9  1  0  0  0  0
  2 10  1  0  0  0  0
  3 11  1  0  0  0  0
  3 12  1  0  0  0  0
  3 13  1  0  0  0  0
  4 14  1  0  0  0  0
  5 15  1  0  0  0  0
  7 16  1  0  0  0  0
M  END
> <id>
EN300-62480

> <smiles>
CC(C)C(O)C#N

> <MDLNUMBER>
MFCD00798446

> <IUPAC Name>
2-hydroxy-3-methylbutanenitrile

> <CAS>
15344-34-0

> <Purity>
95

> <URL>
https://www.enaminestore.com/catalog/EN300-62480

> <ROCS_ShapeQuery>
hit0

> <ROCS_TanimotoCombo>
0.986 

> <ROCS_ShapeTanimoto>
0.558 

> <ROCS_ColorTanimoto>
0.428 

> <ROCS_RefTversky>
1.149 

> <ROCS_RefColorTversky>
0.508 

> <ROCS_RefTverskyCombo>
1.657 

> <ROCS_FitTversky>
0.520 

> <ROCS_FitColorTversky>
0.731 

> <ROCS_FitTverskyCombo>
1.251 

> <ROCS_ColorScore>
-2.998

> <ROCS_Overlap>
133.602

> <ROCS_Rank>
411                 

$$$$
untitled-dbase-58138_1
  -OEChem-06232314393D

 14 14  0     0  0  0  0  0  0999 V2000
   -6.8514    3.7987  -35.5944 C   0  0  0  0  0  0  0  0  0  0  0  0
   -6.1043    4.3902  -36.5826 C   0  0  0  0  0  0  0  0  0  0  0  0
   -6.4445    5.8390  -35.0965 C   0  0  0  0  0  0  0  0  0  0  0  0
   -5.6114    3.8079  -37.8381 C   0  0  0  0  0  0  0  0  0  0  0  0
   -5.8470    5.6976  -36.2581 N   0  0  0  0  0  0  0  0  0  0  0  0
   -6.5167    6.9347  -34.3062 N   0  0  0  0  0  0  0  0  0  0  0  0
   -7.0774    4.7296  -34.6259 O   0  0  0  0  0  0  0  0  0  0  0  0
   -5.5128    4.8170  -38.8463 O   0  0  0  0  0  0  0  0  0  0  0  0
   -7.2734    2.8186  -35.4297 H   0  0  0  0  0  0  0  0  0  0  0  0
   -4.6112    3.3468  -37.7266 H   0  0  0  0  0  0  0  0  0  0  0  0
   -6.2785    3.0122  -38.2214 H   0  0  0  0  0  0  0  0  0  0  0  0
   -7.0575    6.9408  -33.4306 H   0  0  0  0  0  0  0  0  0  0  0  0
   -6.1140    7.8385  -34.5894 H   0  0  0  0  0  0  0  0  0  0  0  0
   -4.8912    5.4784  -38.5087 H   0  0  0  0  0  0  0  0  0  0  0  0
  1  2  2  0  0  0  0
  1  7  1  0  0  0  0
  2  4  1  0  0  0  0
  2  5  1  0  0  0  0
  3  5  2  0  0  0  0
  3  6  1  0  0  0  0
  3  7  1  0  0  0  0
  4  8  1  0  0  0  0
  1  9  1  0  0  0  0
  4 10  1  0  0  0  0
  4 11  1  0  0  0  0
  6 12  1  0  0  0  0
  6 13  1  0  0  0  0
  8 14  1  0  0  0  0
M  END
> <id>
EN300-332990

> <smiles>
NC1=NC(CO)=CO1

> <MDLNUMBER>
MFCD12913769

> <IUPAC Name>
(2-amino-1,3-oxazol-4-yl)methanol

> <CAS>
191399-20-9

> <Purity>
95

> <URL>
https://www.enaminestore.com/catalog/EN300-332990

> <ROCS_ShapeQuery>
hit0

> <ROCS_TanimotoCombo>
0.986 

> <ROCS_ShapeTanimoto>
0.486 

> <ROCS_ColorTanimoto>
0.500 

> <ROCS_RefTversky>
1.247 

> <ROCS_RefColorTversky>
0.667 

> <ROCS_RefTverskyCombo>
1.914 

> <ROCS_FitTversky>
0.443 

> <ROCS_FitColorTversky>
0.667 

> <ROCS_FitTverskyCombo>
1.110 

> <ROCS_ColorScore>
-4.003

> <ROCS_Overlap>
150.390

> <ROCS_Rank>
412                 

$$$$
untitled-dbase-84605_2
  -OEChem-06232314393D

 17 17  0     0  0  0  0  0  0999 V2000
   -6.2182    7.0453  -36.7614 C   0  0  0  0  0  0  0  0  0  0  0  0
   -6.6841    5.7522  -34.4042 C   0  0  0  0  0  0  0  0  0  0  0  0
   -6.4469    5.6738  -36.7694 C   0  0  0  0  0  0  0  0  0  0  0  0
   -6.6851    5.0074  -35.5725 C   0  0  0  0  0  0  0  0  0  0  0  0
   -6.2383    7.6989  -35.5398 C   0  0  0  0  0  0  0  0  0  0  0  0
   -6.4329    4.9561  -38.0361 C   0  0  0  0  0  0  0  0  0  0  0  0
   -7.6864    4.2356  -38.4369 C   0  0  0  0  0  0  0  0  0  0  0  0
   -6.4661    7.0855  -34.3568 N   0  0  0  0  0  0  0  0  0  0  0  0
   -5.4682    4.8927  -38.7996 O   0  0  0  0  0  0  0  0  0  0  0  0
   -6.9134    3.6698  -35.5298 O   0  0  0  0  0  0  0  0  0  0  0  0
   -5.9668    9.3899  -35.4337 Cl  0  0  0  0  0  0  0  0  0  0  0  0
   -6.0302    7.5851  -37.6845 H   0  0  0  0  0  0  0  0  0  0  0  0
   -6.8641    5.2848  -33.4411 H   0  0  0  0  0  0  0  0  0  0  0  0
   -8.3847    4.8481  -39.0288 H   0  0  0  0  0  0  0  0  0  0  0  0
   -8.2468    3.8313  -37.5797 H   0  0  0  0  0  0  0  0  0  0  0  0
   -7.4965    3.3582  -39.0806 H   0  0  0  0  0  0  0  0  0  0  0  0
   -7.0589    3.3790  -34.6141 H   0  0  0  0  0  0  0  0  0  0  0  0
  1  3  2  0  0  0  0
  1  5  1  0  0  0  0
  2  4  2  0  0  0  0
  2  8  1  0  0  0  0
  3  4  1  0  0  0  0
  3  6  1  0  0  0  0
  4 10  1  0  0  0  0
  5  8  2  0  0  0  0
  5 11  1  0  0  0  0
  6  7  1  0  0  0  0
  6  9  2  0  0  0  0
  1 12  1  0  0  0  0
  2 13  1  0  0  0  0
  7 14  1  0  0  0  0
  7 15  1  0  0  0  0
  7 16  1  0  0  0  0
 10 17  1  0  0  0  0
M  END
> <id>
EN300-1086297

> <smiles>
CC(=O)C=1C=C(Cl)N=CC1O

> <MDLNUMBER>
MFCD13189875

> <IUPAC Name>
1-(2-chloro-5-hydroxypyridin-4-yl)ethan-1-one

> <CAS>
1196153-84-0

> <URL>
https://www.enaminestore.com/catalog/EN300-1086297

> <ROCS_ShapeQuery>
hit0

> <ROCS_TanimotoCombo>
0.986 

> <ROCS_ShapeTanimoto>
0.432 

> <ROCS_ColorTanimoto>
0.554 

> <ROCS_RefTversky>
1.389 

> <ROCS_RefColorTversky>
0.659 

> <ROCS_RefTverskyCombo>
2.048 

> <ROCS_FitTversky>
0.385 

> <ROCS_FitColorTversky>
0.777 

> <ROCS_FitTverskyCombo>
1.162 

> <ROCS_ColorScore>
-3.922

> <ROCS_Overlap>
176.197

> <ROCS_Rank>
413                 

$$$$
untitled-dbase-40911_58
  -OEChem-06232314393D

 28 28  0     1  0  0  0  0  0999 V2000
   -7.2459    8.0488  -37.7588 C   0  0  0  0  0  0  0  0  0  0  0  0
   -7.2401    6.6057  -38.2792 C   0  0  0  0  0  0  0  0  0  0  0  0
   -5.4974    6.3114  -36.4458 C   0  0  0  0  0  0  0  0  0  0  0  0
   -7.3270    8.1168  -36.2351 C   0  0  1  0  0  0  0  0  0  0  0  0
   -6.1123    7.4279  -35.5861 C   0  0  1  0  0  0  0  0  0  0  0  0
   -6.5109    5.5956  -37.3595 C   0  0  1  0  0  0  0  0  0  0  0  0
   -7.4412    9.5674  -35.7590 C   0  0  0  0  0  0  0  0  0  0  0  0
   -7.5158    4.7676  -36.5392 C   0  0  0  0  0  0  0  0  0  0  0  0
   -5.7772    4.6269  -38.1916 N   0  0  0  0  0  0  0  0  0  0  0  0
   -6.5217    6.9037  -34.3226 O   0  0  0  0  0  0  0  0  0  0  0  0
   -6.7885    3.8629  -35.7336 O   0  0  0  0  0  0  0  0  0  0  0  0
   -6.3444    8.5691  -38.1141 H   0  0  0  0  0  0  0  0  0  0  0  0
   -8.0998    8.5793  -38.2041 H   0  0  0  0  0  0  0  0  0  0  0  0
   -8.2856    6.2827  -38.4096 H   0  0  0  0  0  0  0  0  0  0  0  0
   -6.7987    6.5910  -39.2884 H   0  0  0  0  0  0  0  0  0  0  0  0
   -4.6669    6.7280  -37.0343 H   0  0  0  0  0  0  0  0  0  0  0  0
   -5.0234    5.5778  -35.7765 H   0  0  0  0  0  0  0  0  0  0  0  0
   -8.2325    7.5988  -35.8989 H   0  0  0  0  0  0  0  0  0  0  0  0
   -5.3355    8.1950  -35.3670 H   0  0  0  0  0  0  0  0  0  0  0  0
   -6.5607   10.1241  -36.0708 H   0  0  0  0  0  0  0  0  0  0  0  0
   -7.5163    9.5905  -34.6745 H   0  0  0  0  0  0  0  0  0  0  0  0
   -8.3280   10.0245  -36.1913 H   0  0  0  0  0  0  0  0  0  0  0  0
   -8.1670    4.2166  -37.2127 H   0  0  0  0  0  0  0  0  0  0  0  0
   -8.1024    5.4301  -35.9082 H   0  0  0  0  0  0  0  0  0  0  0  0
   -6.4367    4.1615  -38.7640 H   0  0  0  0  0  0  0  0  0  0  0  0
   -5.1244    5.1328  -38.7366 H   0  0  0  0  0  0  0  0  0  0  0  0
   -5.7247    6.5470  -33.9014 H   0  0  0  0  0  0  0  0  0  0  0  0
   -6.2712    3.2955  -36.3318 H   0  0  0  0  0  0  0  0  0  0  0  0
  1  2  1  0  0  0  0
  1  4  1  0  0  0  0
  2  6  1  0  0  0  0
  3  5  1  0  0  0  0
  3  6  1  0  0  0  0
  4  5  1  0  0  0  0
  4  7  1  0  0  0  0
  5 10  1  0  0  0  0
  6  8  1  0  0  0  0
  6  9  1  0  0  0  0
  8 11  1  0  0  0  0
  1 12  1  0  0  0  0
  1 13  1  0  0  0  0
  2 14  1  0  0  0  0
  2 15  1  0  0  0  0
  3 16  1  0  0  0  0
  3 17  1  0  0  0  0
  4 18  1  0  0  0  0
  5 19  1  0  0  0  0
  7 20  1  0  0  0  0
  7 21  1  0  0  0  0
  7 22  1  0  0  0  0
  8 23  1  0  0  0  0
  8 24  1  0  0  0  0
  9 25  1  0  0  0  0
  9 26  1  0  0  0  0
 10 27  1  0  0  0  0
 11 28  1  0  0  0  0
M  END
> <id>
EN300-1159193

> <smiles>
CC1CCC(N)(CO)CC1O

> <IUPAC Name>
5-amino-5-(hydroxymethyl)-2-methylcyclohexan-1-ol

> <CAS>
2137480-65-8

> <URL>
https://www.enaminestore.com/catalog/EN300-1159193

> <ROCS_ShapeQuery>
hit0

> <ROCS_TanimotoCombo>
0.986 

> <ROCS_ShapeTanimoto>
0.452 

> <ROCS_ColorTanimoto>
0.533 

> <ROCS_RefTversky>
1.383 

> <ROCS_RefColorTversky>
0.748 

> <ROCS_RefTverskyCombo>
2.130 

> <ROCS_FitTversky>
0.402 

> <ROCS_FitColorTversky>
0.651 

> <ROCS_FitTverskyCombo>
1.053 

> <ROCS_ColorScore>
-4.523

> <ROCS_Overlap>
173.500

> <ROCS_Rank>
414                 

$$$$
untitled-dbase-171908_4
  -OEChem-06232314393D

 14 14  0     0  0  0  0  0  0999 V2000
   -5.8701    5.6347  -36.6958 C   0  0  0  0  0  0  0  0  0  0  0  0
   -6.4113    5.0923  -35.5604 C   0  0  0  0  0  0  0  0  0  0  0  0
   -5.9481    4.5914  -37.6345 C   0  0  0  0  0  0  0  0  0  0  0  0
   -6.6497    5.6025  -34.2046 C   0  0  0  0  0  0  0  0  0  0  0  0
   -6.4956    3.4864  -37.1206 N   0  0  0  0  0  0  0  0  0  0  0  0
   -5.5016    4.7451  -38.9067 N   0  0  0  0  0  0  0  0  0  0  0  0
   -6.7884    3.8105  -35.8013 O   0  0  0  0  0  0  0  0  0  0  0  0
   -6.5347    7.0280  -34.1841 O   0  0  0  0  0  0  0  0  0  0  0  0
   -5.4798    6.6346  -36.8195 H   0  0  0  0  0  0  0  0  0  0  0  0
   -7.6569    5.3428  -33.8247 H   0  0  0  0  0  0  0  0  0  0  0  0
   -5.9280    5.1961  -33.4699 H   0  0  0  0  0  0  0  0  0  0  0  0
   -5.1337    5.6417  -39.2466 H   0  0  0  0  0  0  0  0  0  0  0  0
   -5.5998    4.0013  -39.6081 H   0  0  0  0  0  0  0  0  0  0  0  0
   -7.2042    7.3629  -34.7982 H   0  0  0  0  0  0  0  0  0  0  0  0
  1  2  2  0  0  0  0
  1  3  1  0  0  0  0
  2  4  1  0  0  0  0
  2  7  1  0  0  0  0
  3  5  2  0  0  0  0
  3  6  1  0  0  0  0
  4  8  1  0  0  0  0
  5  7  1  0  0  0  0
  1  9  1  0  0  0  0
  4 10  1  0  0  0  0
  4 11  1  0  0  0  0
  6 12  1  0  0  0  0
  6 13  1  0  0  0  0
  8 14  1  0  0  0  0
M  END
> <id>
EN300-1228906

> <smiles>
NC=1C=C(CO)ON1

> <MDLNUMBER>
MFCD19212119

> <IUPAC Name>
(3-amino-1,2-oxazol-5-yl)methanol

> <CAS>
99356-55-5

> <URL>
https://www.enaminestore.com/catalog/EN300-1228906

> <ROCS_ShapeQuery>
hit0

> <ROCS_TanimotoCombo>
0.986 

> <ROCS_ShapeTanimoto>
0.493 

> <ROCS_ColorTanimoto>
0.493 

> <ROCS_RefTversky>
1.249 

> <ROCS_RefColorTversky>
0.661 

> <ROCS_RefTverskyCombo>
1.910 

> <ROCS_FitTversky>
0.448 

> <ROCS_FitColorTversky>
0.660 

> <ROCS_FitTverskyCombo>
1.109 

> <ROCS_ColorScore>
-3.965

> <ROCS_Overlap>
150.434

> <ROCS_Rank>
415                 

$$$$
untitled-dbase-109721_16
  -OEChem-06232314393D

 20 20  0     1  0  0  0  0  0999 V2000
   -6.1437    7.0023  -35.6018 C   0  0  0  0  0  0  0  0  0  0  0  0
   -5.4357    6.1276  -37.8492 C   0  0  0  0  0  0  0  0  0  0  0  0
   -6.8283    4.2633  -37.9860 C   0  0  0  0  0  0  0  0  0  0  0  0
   -5.7971    5.7949  -36.4094 C   0  0  2  0  0  0  0  0  0  0  0  0
   -6.9639    4.8189  -36.5694 C   0  0  2  0  0  0  0  0  0  0  0  0
   -6.0482    8.3327  -36.2984 C   0  0  0  0  0  0  0  0  0  0  0  0
   -5.5945    4.8419  -38.5388 N   0  0  0  0  0  0  0  0  0  0  0  0
   -6.4922    6.9134  -34.4255 O   0  0  0  0  0  0  0  0  0  0  0  0
   -6.8527    3.7827  -35.6042 O   0  0  0  0  0  0  0  0  0  0  0  0
   -6.1051    6.8825  -38.2804 H   0  0  0  0  0  0  0  0  0  0  0  0
   -4.4083    6.4946  -37.9358 H   0  0  0  0  0  0  0  0  0  0  0  0
   -6.7881    3.1704  -38.0195 H   0  0  0  0  0  0  0  0  0  0  0  0
   -7.6783    4.5961  -38.5934 H   0  0  0  0  0  0  0  0  0  0  0  0
   -4.9375    5.2866  -35.9052 H   0  0  0  0  0  0  0  0  0  0  0  0
   -7.9416    5.3025  -36.4367 H   0  0  0  0  0  0  0  0  0  0  0  0
   -7.0073    8.5744  -36.7648 H   0  0  0  0  0  0  0  0  0  0  0  0
   -5.2799    8.2856  -37.0741 H   0  0  0  0  0  0  0  0  0  0  0  0
   -5.8029    9.1103  -35.5710 H   0  0  0  0  0  0  0  0  0  0  0  0
   -5.6776    4.9773  -39.5448 H   0  0  0  0  0  0  0  0  0  0  0  0
   -6.9470    4.2000  -34.7326 H   0  0  0  0  0  0  0  0  0  0  0  0
  1  4  1  6  0  0  0
  1  6  1  0  0  0  0
  1  8  2  0  0  0  0
  2  4  1  0  0  0  0
  2  7  1  0  0  0  0
  3  5  1  0  0  0  0
  3  7  1  0  0  0  0
  4  5  1  0  0  0  0
  5  9  1  1  0  0  0
  2 10  1  0  0  0  0
  2 11  1  0  0  0  0
  3 12  1  0  0  0  0
  3 13  1  0  0  0  0
  4 14  1  0  0  0  0
  5 15  1  0  0  0  0
  6 16  1  0  0  0  0
  6 17  1  0  0  0  0
  6 18  1  0  0  0  0
  7 19  1  0  0  0  0
  9 20  1  0  0  0  0
M  END
> <id>
EN300-1626665

> <smiles>
CC(=O)[C@@H]1CNC[C@H]1O |&1:3,7,r|

> <IUPAC Name>
rac-1-[(3R,4S)-4-hydroxypyrrolidin-3-yl]ethan-1-one

> <CAS>
2227883-26-1

> <URL>
https://www.enaminestore.com/catalog/EN300-1626665

> <ROCS_ShapeQuery>
hit0

> <ROCS_TanimotoCombo>
0.985 

> <ROCS_ShapeTanimoto>
0.502 

> <ROCS_ColorTanimoto>
0.483 

> <ROCS_RefTversky>
1.326 

> <ROCS_RefColorTversky>
0.651 

> <ROCS_RefTverskyCombo>
1.977 

> <ROCS_FitTversky>
0.447 

> <ROCS_FitColorTversky>
0.651 

> <ROCS_FitTverskyCombo>
1.098 

> <ROCS_ColorScore>
-3.907

> <ROCS_Overlap>
161.449

> <ROCS_Rank>
416                 

$$$$
untitled-dbase-23566_73
  -OEChem-06232314393D

 24 24  0     1  0  0  0  0  0999 V2000
   -6.3933    5.2593  -38.2290 C   0  0  0  0  0  0  0  0  0  0  0  0
   -7.2003    7.0087  -36.6759 C   0  0  0  0  0  0  0  0  0  0  0  0
   -5.0961    5.8729  -36.1292 C   0  0  0  0  0  0  0  0  0  0  0  0
   -7.6495    6.8058  -35.2371 C   0  0  0  0  0  0  0  0  0  0  0  0
   -5.5789    5.7285  -34.6832 C   0  0  2  0  0  0  0  0  0  0  0  0
   -7.8101    5.0516  -38.7011 C   0  0  0  0  0  0  0  0  0  0  0  0
   -6.1291    4.3362  -34.3791 C   0  0  0  0  0  0  0  0  0  0  0  0
   -6.2318    5.9812  -37.0491 N   0  0  0  0  0  0  0  0  0  0  0  0
   -5.4606    4.7975  -38.8909 O   0  0  0  0  0  0  0  0  0  0  0  0
   -6.5252    6.7551  -34.3562 O   0  0  0  0  0  0  0  0  0  0  0  0
   -6.8936    3.8978  -35.4887 O   0  0  0  0  0  0  0  0  0  0  0  0
   -8.0512    6.8973  -37.3573 H   0  0  0  0  0  0  0  0  0  0  0  0
   -6.7860    8.0117  -36.8096 H   0  0  0  0  0  0  0  0  0  0  0  0
   -4.4172    6.7275  -36.2138 H   0  0  0  0  0  0  0  0  0  0  0  0
   -4.5375    4.9781  -36.4399 H   0  0  0  0  0  0  0  0  0  0  0  0
   -8.3373    7.5994  -34.9127 H   0  0  0  0  0  0  0  0  0  0  0  0
   -8.1851    5.8528  -35.1450 H   0  0  0  0  0  0  0  0  0  0  0  0
   -4.6793    5.8818  -34.0001 H   0  0  0  0  0  0  0  0  0  0  0  0
   -8.0914    5.8729  -39.3518 H   0  0  0  0  0  0  0  0  0  0  0  0
   -8.4703    5.0175  -37.8403 H   0  0  0  0  0  0  0  0  0  0  0  0
   -7.8701    4.1125  -39.2419 H   0  0  0  0  0  0  0  0  0  0  0  0
   -6.7679    4.3698  -33.4950 H   0  0  0  0  0  0  0  0  0  0  0  0
   -5.3088    3.6367  -34.2105 H   0  0  0  0  0  0  0  0  0  0  0  0
   -7.2308    3.0127  -35.2697 H   0  0  0  0  0  0  0  0  0  0  0  0
  1  6  1  0  0  0  0
  1  8  1  0  0  0  0
  1  9  2  0  0  0  0
  2  4  1  0  0  0  0
  2  8  1  0  0  0  0
  3  5  1  0  0  0  0
  3  8  1  0  0  0  0
  4 10  1  0  0  0  0
  5  7  1  0  0  0  0
  5 10  1  0  0  0  0
  7 11  1  0  0  0  0
  2 12  1  0  0  0  0
  2 13  1  0  0  0  0
  3 14  1  0  0  0  0
  3 15  1  0  0  0  0
  4 16  1  0  0  0  0
  4 17  1  0  0  0  0
  5 18  1  0  0  0  0
  6 19  1  0  0  0  0
  6 20  1  0  0  0  0
  6 21  1  0  0  0  0
  7 22  1  0  0  0  0
  7 23  1  0  0  0  0
 11 24  1  0  0  0  0
M  END
> <id>
EN300-316160

> <smiles>
CC(=O)N1CCOC(CO)C1

> <MDLNUMBER>
MFCD24068822

> <IUPAC Name>
1-[2-(hydroxymethyl)morpholin-4-yl]ethan-1-one

> <CAS>
1536993-59-5

> <Purity>
95

> <URL>
https://www.enaminestore.com/catalog/EN300-316160

> <ROCS_ShapeQuery>
hit0

> <ROCS_TanimotoCombo>
0.985 

> <ROCS_ShapeTanimoto>
0.427 

> <ROCS_ColorTanimoto>
0.558 

> <ROCS_RefTversky>
1.353 

> <ROCS_RefColorTversky>
0.662 

> <ROCS_RefTverskyCombo>
2.015 

> <ROCS_FitTversky>
0.384 

> <ROCS_FitColorTversky>
0.780 

> <ROCS_FitTverskyCombo>
1.164 

> <ROCS_ColorScore>
-3.941

> <ROCS_Overlap>
170.588

> <ROCS_Rank>
417                 

$$$$
untitled-dbase-174496_1
  -OEChem-06232314393D

 22 23  0     0  0  0  0  0  0999 V2000
   -5.8889    5.1017  -35.4181 C   0  0  0  0  0  0  0  0  0  0  0  0
   -5.6139    4.5188  -36.6551 C   0  0  0  0  0  0  0  0  0  0  0  0
   -6.1288    6.6079  -37.7541 C   0  0  0  0  0  0  0  0  0  0  0  0
   -6.4039    7.1908  -36.5171 C   0  0  0  0  0  0  0  0  0  0  0  0
   -6.2840    6.4377  -35.3491 C   0  0  0  0  0  0  0  0  0  0  0  0
   -5.7338    5.2718  -37.8231 C   0  0  0  0  0  0  0  0  0  0  0  0
   -8.1189    8.9810  -35.7906 C   0  0  0  0  0  0  0  0  0  0  0  0
   -8.0148    9.0613  -37.2815 C   0  0  0  0  0  0  0  0  0  0  0  0
   -6.8249    8.6232  -36.4707 C   0  0  0  0  0  0  0  0  0  0  0  0
   -6.5580    7.0097  -34.0872 N   0  0  0  0  0  0  0  0  0  0  0  0
   -5.4653    4.7027  -39.0300 O   0  0  0  0  0  0  0  0  0  0  0  0
   -5.7921    4.5049  -34.5147 H   0  0  0  0  0  0  0  0  0  0  0  0
   -5.3066    3.4776  -36.7025 H   0  0  0  0  0  0  0  0  0  0  0  0
   -6.2208    7.1909  -38.6674 H   0  0  0  0  0  0  0  0  0  0  0  0
   -8.1481    9.9117  -35.2362 H   0  0  0  0  0  0  0  0  0  0  0  0
   -8.7332    8.1937  -35.3708 H   0  0  0  0  0  0  0  0  0  0  0  0
   -8.5579    8.3263  -37.8639 H   0  0  0  0  0  0  0  0  0  0  0  0
   -7.9753   10.0455  -37.7328 H   0  0  0  0  0  0  0  0  0  0  0  0
   -6.0160    9.3347  -36.3767 H   0  0  0  0  0  0  0  0  0  0  0  0
   -6.7950    7.9787  -34.0340 H   0  0  0  0  0  0  0  0  0  0  0  0
   -6.4183    6.4606  -33.2644 H   0  0  0  0  0  0  0  0  0  0  0  0
   -5.5929    5.3492  -39.7425 H   0  0  0  0  0  0  0  0  0  0  0  0
  1  2  1  0  0  0  0
  1  5  2  0  0  0  0
  2  6  2  0  0  0  0
  3  4  2  0  0  0  0
  3  6  1  0  0  0  0
  4  5  1  0  0  0  0
  4  9  1  0  0  0  0
  5 10  1  0  0  0  0
  6 11  1  0  0  0  0
  7  8  1  0  0  0  0
  7  9  1  0  0  0  0
  8  9  1  0  0  0  0
  1 12  1  0  0  0  0
  2 13  1  0  0  0  0
  3 14  1  0  0  0  0
  7 15  1  0  0  0  0
  7 16  1  0  0  0  0
  8 17  1  0  0  0  0
  8 18  1  0  0  0  0
  9 19  1  0  0  0  0
 10 20  1  0  0  0  0
 10 21  1  0  0  0  0
 11 22  1  0  0  0  0
M  END
> <id>
EN300-22169746

> <smiles>
NC=1C=CC(O)=CC1C2CC2

> <MDLNUMBER>
MFCD30490021

> <IUPAC Name>
4-amino-3-cyclopropylphenol

> <CAS>
2166979-96-8

> <Purity>
95

> <URL>
https://www.enaminestore.com/catalog/EN300-22169746

> <ROCS_ShapeQuery>
hit0

> <ROCS_TanimotoCombo>
0.985 

> <ROCS_ShapeTanimoto>
0.472 

> <ROCS_ColorTanimoto>
0.513 

> <ROCS_RefTversky>
1.487 

> <ROCS_RefColorTversky>
0.627 

> <ROCS_RefTverskyCombo>
2.114 

> <ROCS_FitTversky>
0.409 

> <ROCS_FitColorTversky>
0.739 

> <ROCS_FitTverskyCombo>
1.147 

> <ROCS_ColorScore>
-3.730

> <ROCS_Overlap>
188.934

> <ROCS_Rank>
418                 

$$$$
untitled-dbase-60081_6
  -OEChem-06232314393D

 22 23  0     0  0  0  0  0  0999 V2000
   -7.1518    8.8063  -37.9261 C   0  0  0  0  0  0  0  0  0  0  0  0
   -7.1206    9.5519  -36.7477 C   0  0  0  0  0  0  0  0  0  0  0  0
   -6.9726    7.4236  -37.8815 C   0  0  0  0  0  0  0  0  0  0  0  0
   -6.9101    8.9150  -35.5248 C   0  0  0  0  0  0  0  0  0  0  0  0
   -6.1495    3.2199  -36.9459 C   0  0  0  0  0  0  0  0  0  0  0  0
   -6.7621    6.7867  -36.6586 C   0  0  0  0  0  0  0  0  0  0  0  0
   -6.0473    4.4847  -37.5554 C   0  0  0  0  0  0  0  0  0  0  0  0
   -6.7308    7.5324  -35.4801 C   0  0  0  0  0  0  0  0  0  0  0  0
   -6.5787    5.3538  -36.6340 C   0  0  0  0  0  0  0  0  0  0  0  0
   -6.7020    3.2760  -35.7312 N   0  0  0  0  0  0  0  0  0  0  0  0
   -6.9518    4.5866  -35.5699 N   0  0  0  0  0  0  0  0  0  0  0  0
   -5.5414    4.7708  -38.7712 N   0  0  0  0  0  0  0  0  0  0  0  0
   -6.5264    6.9361  -34.2708 O   0  0  0  0  0  0  0  0  0  0  0  0
   -7.3147    9.3024  -38.8786 H   0  0  0  0  0  0  0  0  0  0  0  0
   -7.2606   10.6284  -36.7824 H   0  0  0  0  0  0  0  0  0  0  0  0
   -7.0005    6.8577  -38.8094 H   0  0  0  0  0  0  0  0  0  0  0  0
   -6.8873    9.5019  -34.6106 H   0  0  0  0  0  0  0  0  0  0  0  0
   -5.8455    2.2575  -37.3333 H   0  0  0  0  0  0  0  0  0  0  0  0
   -7.3814    4.8871  -34.7034 H   0  0  0  0  0  0  0  0  0  0  0  0
   -5.1202    4.0485  -39.3762 H   0  0  0  0  0  0  0  0  0  0  0  0
   -5.4629    5.7386  -39.1209 H   0  0  0  0  0  0  0  0  0  0  0  0
   -6.5349    7.6011  -33.5652 H   0  0  0  0  0  0  0  0  0  0  0  0
  1  2  2  0  0  0  0
  1  3  1  0  0  0  0
  2  4  1  0  0  0  0
  3  6  2  0  0  0  0
  4  8  2  0  0  0  0
  5  7  1  0  0  0  0
  5 10  2  0  0  0  0
  6  8  1  0  0  0  0
  6  9  1  0  0  0  0
  7  9  2  0  0  0  0
  7 12  1  0  0  0  0
  8 13  1  0  0  0  0
  9 11  1  0  0  0  0
 10 11  1  0  0  0  0
  1 14  1  0  0  0  0
  2 15  1  0  0  0  0
  3 16  1  0  0  0  0
  4 17  1  0  0  0  0
  5 18  1  0  0  0  0
 11 19  1  0  0  0  0
 12 20  1  0  0  0  0
 12 21  1  0  0  0  0
 13 22  1  0  0  0  0
M  END
> <id>
EN300-1804374

> <smiles>
NC=1C=NNC1C=2C=CC=CC2O

> <IUPAC Name>
2-(4-amino-1H-pyrazol-5-yl)phenol

> <URL>
https://www.enaminestore.com/catalog/EN300-1804374

> <ROCS_ShapeQuery>
hit0

> <ROCS_TanimotoCombo>
0.985 

> <ROCS_ShapeTanimoto>
0.389 

> <ROCS_ColorTanimoto>
0.596 

> <ROCS_RefTversky>
1.487 

> <ROCS_RefColorTversky>
0.857 

> <ROCS_RefTverskyCombo>
2.344 

> <ROCS_FitTversky>
0.345 

> <ROCS_FitColorTversky>
0.662 

> <ROCS_FitTverskyCombo>
1.007 

> <ROCS_ColorScore>
-5.229

> <ROCS_Overlap>
197.680

> <ROCS_Rank>
419                 

$$$$
untitled-dbase-17055_0
  -OEChem-06232314393D

 12 11  0     0  0  0  0  0  0999 V2000
   -5.7668    5.2064  -37.7775 C   0  0  0  0  0  0  0  0  0  0  0  0
   -6.7090    4.2628  -35.7000 C   0  0  0  0  0  0  0  0  0  0  0  0
   -6.0785    6.5885  -35.8618 C   0  0  0  0  0  0  0  0  0  0  0  0
   -6.1870    5.3739  -36.4247 C   0  0  0  0  0  0  0  0  0  0  0  0
   -6.8365    8.2860  -34.4755 C   0  0  0  0  0  0  0  0  0  0  0  0
   -5.4257    5.0682  -38.8781 N   0  0  0  0  0  0  0  0  0  0  0  0
   -7.1344    3.3575  -35.1114 N   0  0  0  0  0  0  0  0  0  0  0  0
   -6.4278    6.9401  -34.5844 O   0  0  0  0  0  0  0  0  0  0  0  0
   -5.6872    7.4575  -36.3768 H   0  0  0  0  0  0  0  0  0  0  0  0
   -7.1008    8.5044  -33.4380 H   0  0  0  0  0  0  0  0  0  0  0  0
   -7.6970    8.4601  -35.1264 H   0  0  0  0  0  0  0  0  0  0  0  0
   -6.0123    8.9338  -34.7833 H   0  0  0  0  0  0  0  0  0  0  0  0
  1  4  1  0  0  0  0
  1  6  3  0  0  0  0
  2  4  1  0  0  0  0
  2  7  3  0  0  0  0
  3  4  2  0  0  0  0
  3  8  1  0  0  0  0
  5  8  1  0  0  0  0
  3  9  1  0  0  0  0
  5 10  1  0  0  0  0
  5 11  1  0  0  0  0
  5 12  1  0  0  0  0
M  END
> <id>
EN300-177658

> <smiles>
COC=C(C#N)C#N

> <MDLNUMBER>
MFCD07437817

> <IUPAC Name>
2-(methoxymethylidene)propanedinitrile

> <CAS>
672-81-1

> <Purity>
95

> <URL>
https://www.enaminestore.com/catalog/EN300-177658

> <MP>
93-96

> <ROCS_ShapeQuery>
hit0

> <ROCS_TanimotoCombo>
0.985 

> <ROCS_ShapeTanimoto>
0.601 

> <ROCS_ColorTanimoto>
0.384 

> <ROCS_RefTversky>
1.348 

> <ROCS_RefColorTversky>
0.427 

> <ROCS_RefTverskyCombo>
1.775 

> <ROCS_FitTversky>
0.520 

> <ROCS_FitColorTversky>
0.793 

> <ROCS_FitTverskyCombo>
1.313 

> <ROCS_ColorScore>
-2.497

> <ROCS_Overlap>
160.432

> <ROCS_Rank>
420                 

$$$$
untitled-dbase-171967_9
  -OEChem-06232314393D

  8  7  0     0  0  0  0  0  0999 V2000
   -6.8181    6.2719  -35.4408 C   0  0  0  0  0  0  0  0  0  0  0  0
   -6.1813    5.0139  -35.9699 C   0  0  0  0  0  0  0  0  0  0  0  0
   -6.5037    6.8137  -34.3863 O   0  0  0  0  0  0  0  0  0  0  0  0
   -6.8800    3.8720  -35.5271 O   0  0  0  0  0  0  0  0  0  0  0  0
   -7.6132    6.6979  -36.0764 H   0  0  0  0  0  0  0  0  0  0  0  0
   -5.1427    4.9632  -35.6323 H   0  0  0  0  0  0  0  0  0  0  0  0
   -6.2054    5.0437  -37.0622 H   0  0  0  0  0  0  0  0  0  0  0  0
   -6.4278    3.0923  -35.8966 H   0  0  0  0  0  0  0  0  0  0  0  0
  1  2  1  0  0  0  0
  1  3  2  0  0  0  0
  2  4  1  0  0  0  0
  1  5  1  0  0  0  0
  2  6  1  0  0  0  0
  2  7  1  0  0  0  0
  4  8  1  0  0  0  0
M  END
> <id>
EN300-91724

> <smiles>
OCC=O

> <MDLNUMBER>
MFCD00038088

> <IUPAC Name>
2-hydroxyacetaldehyde

> <CAS>
141-46-8

> <URL>
https://www.enaminestore.com/catalog/EN300-91724

> <MP>
94-96

> <ROCS_ShapeQuery>
hit0

> <ROCS_TanimotoCombo>
0.985 

> <ROCS_ShapeTanimoto>
0.490 

> <ROCS_ColorTanimoto>
0.494 

> <ROCS_RefTversky>
0.750 

> <ROCS_RefColorTversky>
0.509 

> <ROCS_RefTverskyCombo>
1.259 

> <ROCS_FitTversky>
0.586 

> <ROCS_FitColorTversky>
0.945 

> <ROCS_FitTverskyCombo>
1.531 

> <ROCS_ColorScore>
-2.978

> <ROCS_Overlap>
82.568

> <ROCS_Rank>
421                 

$$$$
untitled-dbase-27733_3
  -OEChem-06232314393D

 22 23  0     1  0  0  0  0  0999 V2000
   -4.6937    4.4029  -36.5028 C   0  0  0  0  0  0  0  0  0  0  0  0
   -6.6663    5.9027  -36.9204 C   0  0  0  0  0  0  0  0  0  0  0  0
   -4.9563    3.7961  -37.8788 C   0  0  0  0  0  0  0  0  0  0  0  0
   -6.8164    5.2077  -38.2710 C   0  0  0  0  0  0  0  0  0  0  0  0
   -5.1987    7.1595  -34.6148 C   0  0  0  0  0  0  0  0  0  0  0  0
   -5.6779    5.7350  -34.5998 C   0  0  2  0  0  0  0  0  0  0  0  0
   -5.9777    4.9869  -35.8983 C   0  0  0  0  0  0  0  0  0  0  0  0
   -5.5503    4.7570  -38.7504 O   0  0  0  0  0  0  0  0  0  0  0  0
   -6.5643    6.8239  -34.3221 O   0  0  0  0  0  0  0  0  0  0  0  0
   -6.8517    3.8984  -35.5854 O   0  0  0  0  0  0  0  0  0  0  0  0
   -4.2704    3.6332  -35.8470 H   0  0  0  0  0  0  0  0  0  0  0  0
   -3.9454    5.1993  -36.6052 H   0  0  0  0  0  0  0  0  0  0  0  0
   -6.0653    6.8112  -37.0553 H   0  0  0  0  0  0  0  0  0  0  0  0
   -7.6562    6.2111  -36.5637 H   0  0  0  0  0  0  0  0  0  0  0  0
   -4.0105    3.4780  -38.3291 H   0  0  0  0  0  0  0  0  0  0  0  0
   -5.6021    2.9126  -37.8137 H   0  0  0  0  0  0  0  0  0  0  0  0
   -7.5100    4.3606  -38.2145 H   0  0  0  0  0  0  0  0  0  0  0  0
   -7.2189    5.9120  -39.0060 H   0  0  0  0  0  0  0  0  0  0  0  0
   -4.5824    7.4991  -33.7927 H   0  0  0  0  0  0  0  0  0  0  0  0
   -4.9926    7.6315  -35.5665 H   0  0  0  0  0  0  0  0  0  0  0  0
   -5.3863    5.0906  -33.7826 H   0  0  0  0  0  0  0  0  0  0  0  0
   -7.6503    4.2937  -35.2074 H   0  0  0  0  0  0  0  0  0  0  0  0
  1  3  1  0  0  0  0
  1  7  1  0  0  0  0
  2  4  1  0  0  0  0
  2  7  1  0  0  0  0
  3  8  1  0  0  0  0
  4  8  1  0  0  0  0
  5  6  1  0  0  0  0
  5  9  1  0  0  0  0
  6  7  1  0  0  0  0
  6  9  1  0  0  0  0
  7 10  1  0  0  0  0
  1 11  1  0  0  0  0
  1 12  1  0  0  0  0
  2 13  1  0  0  0  0
  2 14  1  0  0  0  0
  3 15  1  0  0  0  0
  3 16  1  0  0  0  0
  4 17  1  0  0  0  0
  4 18  1  0  0  0  0
  5 19  1  0  0  0  0
  5 20  1  0  0  0  0
  6 21  1  0  0  0  0
 10 22  1  0  0  0  0
M  END
> <id>
EN300-344197

> <smiles>
OC1(CCOCC1)C2CO2

> <MDLNUMBER>
MFCD30749958

> <IUPAC Name>
4-(oxiran-2-yl)oxan-4-ol

> <CAS>
2126160-61-8

> <Purity>
95

> <URL>
https://www.enaminestore.com/catalog/EN300-344197

> <ROCS_ShapeQuery>
hit0

> <ROCS_TanimotoCombo>
0.985 

> <ROCS_ShapeTanimoto>
0.423 

> <ROCS_ColorTanimoto>
0.562 

> <ROCS_RefTversky>
1.281 

> <ROCS_RefColorTversky>
0.665 

> <ROCS_RefTverskyCombo>
1.946 

> <ROCS_FitTversky>
0.387 

> <ROCS_FitColorTversky>
0.784 

> <ROCS_FitTverskyCombo>
1.170 

> <ROCS_ColorScore>
-3.958

> <ROCS_Overlap>
159.393

> <ROCS_Rank>
422                 

$$$$
untitled-dbase-101444_46
  -OEChem-06232314393D

 23 23  0     0  0  0  0  0  0999 V2000
   -7.1249    6.0116  -37.2386 C   0  0  0  0  0  0  0  0  0  0  0  0
   -5.0620    5.9099  -36.5585 C   0  0  0  0  0  0  0  0  0  0  0  0
   -6.2724    6.8196  -36.2280 C   0  0  0  0  0  0  0  0  0  0  0  0
   -5.9717    4.9923  -37.4125 C   0  0  0  0  0  0  0  0  0  0  0  0
   -6.7547    6.7074  -34.7830 C   0  0  0  0  0  0  0  0  0  0  0  0
   -6.0663    8.2770  -36.6354 C   0  0  0  0  0  0  0  0  0  0  0  0
   -6.2329    3.6238  -36.7963 C   0  0  0  0  0  0  0  0  0  0  0  0
   -5.5228    4.8184  -38.7749 O   0  0  0  0  0  0  0  0  0  0  0  0
   -6.8763    3.8036  -35.5465 O   0  0  0  0  0  0  0  0  0  0  0  0
   -8.0480    5.5810  -36.8187 H   0  0  0  0  0  0  0  0  0  0  0  0
   -7.4103    6.5530  -38.1528 H   0  0  0  0  0  0  0  0  0  0  0  0
   -4.2434    6.3975  -37.1081 H   0  0  0  0  0  0  0  0  0  0  0  0
   -4.6113    5.4105  -35.6863 H   0  0  0  0  0  0  0  0  0  0  0  0
   -6.1121    7.2977  -34.1309 H   0  0  0  0  0  0  0  0  0  0  0  0
   -6.7263    5.6667  -34.4626 H   0  0  0  0  0  0  0  0  0  0  0  0
   -7.7766    7.0761  -34.7037 H   0  0  0  0  0  0  0  0  0  0  0  0
   -5.4624    8.7863  -35.8869 H   0  0  0  0  0  0  0  0  0  0  0  0
   -7.0302    8.7758  -36.7171 H   0  0  0  0  0  0  0  0  0  0  0  0
   -5.5576    8.3218  -37.5965 H   0  0  0  0  0  0  0  0  0  0  0  0
   -5.2907    3.0957  -36.6410 H   0  0  0  0  0  0  0  0  0  0  0  0
   -6.8783    3.0343  -37.4496 H   0  0  0  0  0  0  0  0  0  0  0  0
   -6.2950    4.5077  -39.2617 H   0  0  0  0  0  0  0  0  0  0  0  0
   -7.0308    2.9181  -35.1763 H   0  0  0  0  0  0  0  0  0  0  0  0
  1  3  1  0  0  0  0
  1  4  1  0  0  0  0
  2  3  1  0  0  0  0
  2  4  1  0  0  0  0
  3  5  1  0  0  0  0
  3  6  1  0  0  0  0
  4  7  1  0  0  0  0
  4  8  1  0  0  0  0
  7  9  1  0  0  0  0
  1 10  1  0  0  0  0
  1 11  1  0  0  0  0
  2 12  1  0  0  0  0
  2 13  1  0  0  0  0
  5 14  1  0  0  0  0
  5 15  1  0  0  0  0
  5 16  1  0  0  0  0
  6 17  1  0  0  0  0
  6 18  1  0  0  0  0
  6 19  1  0  0  0  0
  7 20  1  0  0  0  0
  7 21  1  0  0  0  0
  8 22  1  0  0  0  0
  9 23  1  0  0  0  0
M  END
> <id>
EN300-2007731

> <smiles>
CC1(C)CC(O)(CO)C1

> <MDLNUMBER>
MFCD30235011

> <IUPAC Name>
1-(hydroxymethyl)-3,3-dimethylcyclobutan-1-ol

> <CAS>
1936323-56-6

> <URL>
https://www.enaminestore.com/catalog/EN300-2007731

> <ROCS_ShapeQuery>
hit0

> <ROCS_TanimotoCombo>
0.984 

> <ROCS_ShapeTanimoto>
0.485 

> <ROCS_ColorTanimoto>
0.499 

> <ROCS_RefTversky>
1.276 

> <ROCS_RefColorTversky>
0.666 

> <ROCS_RefTverskyCombo>
1.942 

> <ROCS_FitTversky>
0.439 

> <ROCS_FitColorTversky>
0.666 

> <ROCS_FitTverskyCombo>
1.105 

> <ROCS_ColorScore>
-3.998

> <ROCS_Overlap>
154.734

> <ROCS_Rank>
423                 

$$$$
untitled-dbase-80822_21
  -OEChem-06232314393D

 20 20  0     1  0  0  0  0  0999 V2000
   -5.9536    6.7055  -37.5619 C   0  0  0  0  0  0  0  0  0  0  0  0
   -5.2285    6.0854  -38.5794 C   0  0  0  0  0  0  0  0  0  0  0  0
   -5.6298    3.9346  -37.5547 C   0  0  0  0  0  0  0  0  0  0  0  0
   -6.5168    5.9402  -36.5407 C   0  0  0  0  0  0  0  0  0  0  0  0
   -6.3549    4.5547  -36.5371 C   0  0  0  0  0  0  0  0  0  0  0  0
   -5.0666    4.7000  -38.5758 C   0  0  0  0  0  0  0  0  0  0  0  0
   -7.2891    6.6207  -35.4593 C   0  0  2  0  0  0  0  0  0  0  0  0
   -7.9786    7.9029  -35.9128 C   0  0  0  0  0  0  0  0  0  0  0  0
   -6.8991    3.7926  -35.5475 O   0  0  0  0  0  0  0  0  0  0  0  0
   -6.4821    6.9378  -34.3161 O   0  0  0  0  0  0  0  0  0  0  0  0
   -8.6331    8.4907  -34.8870 F   0  0  0  0  0  0  0  0  0  0  0  0
   -8.8913    7.6467  -36.8775 F   0  0  0  0  0  0  0  0  0  0  0  0
   -7.0989    8.7970  -36.4112 F   0  0  0  0  0  0  0  0  0  0  0  0
   -4.1734    3.9360  -39.8325 Cl  0  0  0  0  0  0  0  0  0  0  0  0
   -6.0732    7.7856  -37.5730 H   0  0  0  0  0  0  0  0  0  0  0  0
   -4.7937    6.6940  -39.3681 H   0  0  0  0  0  0  0  0  0  0  0  0
   -5.5076    2.8540  -37.5453 H   0  0  0  0  0  0  0  0  0  0  0  0
   -8.0703    5.9448  -35.0798 H   0  0  0  0  0  0  0  0  0  0  0  0
   -6.6942    2.8560  -35.6950 H   0  0  0  0  0  0  0  0  0  0  0  0
   -7.0731    7.3700  -33.6842 H   0  0  0  0  0  0  0  0  0  0  0  0
  1  2  1  0  0  0  0
  1  4  2  0  0  0  0
  2  6  2  0  0  0  0
  3  5  2  0  0  0  0
  3  6  1  0  0  0  0
  4  5  1  0  0  0  0
  4  7  1  0  0  0  0
  5  9  1  0  0  0  0
  6 14  1  0  0  0  0
  7  8  1  0  0  0  0
  7 10  1  6  0  0  0
  8 11  1  0  0  0  0
  8 12  1  0  0  0  0
  8 13  1  0  0  0  0
  1 15  1  0  0  0  0
  2 16  1  0  0  0  0
  3 17  1  0  0  0  0
  7 18  1  0  0  0  0
  9 19  1  0  0  0  0
 10 20  1  0  0  0  0
M  END
> <id>
EN300-1942784

> <smiles>
O[C@H](C=1C=CC(Cl)=CC1O)C(F)(F)F

> <IUPAC Name>
5-chloro-2-[(1R)-2,2,2-trifluoro-1-hydroxyethyl]phenol

> <CAS>
2227820-52-0

> <URL>
https://www.enaminestore.com/catalog/EN300-1942784

> <ROCS_ShapeQuery>
hit0

> <ROCS_TanimotoCombo>
0.984 

> <ROCS_ShapeTanimoto>
0.413 

> <ROCS_ColorTanimoto>
0.571 

> <ROCS_RefTversky>
1.582 

> <ROCS_RefColorTversky>
0.672 

> <ROCS_RefTverskyCombo>
2.254 

> <ROCS_FitTversky>
0.359 

> <ROCS_FitColorTversky>
0.791 

> <ROCS_FitTverskyCombo>
1.150 

> <ROCS_ColorScore>
-3.996

> <ROCS_Overlap>
211.635

> <ROCS_Rank>
424                 

$$$$
untitled-dbase-162399_2
  -OEChem-06232314393D

 20 20  0     0  0  0  0  0  0999 V2000
   -6.2258    5.9710  -36.7302 C   0  0  0  0  0  0  0  0  0  0  0  0
   -5.6984    6.1281  -38.0259 C   0  0  0  0  0  0  0  0  0  0  0  0
   -6.3883    4.6146  -36.5878 C   0  0  0  0  0  0  0  0  0  0  0  0
   -6.5393    6.9664  -35.7486 C   0  0  0  0  0  0  0  0  0  0  0  0
   -5.3309    7.3826  -38.7062 C   0  0  0  0  0  0  0  0  0  0  0  0
   -7.2430    9.2429  -35.4352 C   0  0  0  0  0  0  0  0  0  0  0  0
   -5.5364    4.9644  -38.6613 N   0  0  0  0  0  0  0  0  0  0  0  0
   -5.9644    4.0632  -37.7610 N   0  0  0  0  0  0  0  0  0  0  0  0
   -6.8478    3.8328  -35.5913 N   0  0  0  0  0  0  0  0  0  0  0  0
   -6.4939    6.7984  -34.5102 O   0  0  0  0  0  0  0  0  0  0  0  0
   -6.9062    8.1655  -36.3158 O   0  0  0  0  0  0  0  0  0  0  0  0
   -4.2782    7.6491  -38.5117 H   0  0  0  0  0  0  0  0  0  0  0  0
   -5.4608    7.3160  -39.8008 H   0  0  0  0  0  0  0  0  0  0  0  0
   -5.9557    8.2322  -38.3785 H   0  0  0  0  0  0  0  0  0  0  0  0
   -7.5118   10.1242  -36.0227 H   0  0  0  0  0  0  0  0  0  0  0  0
   -6.3898    9.4680  -34.7904 H   0  0  0  0  0  0  0  0  0  0  0  0
   -8.0945    8.9451  -34.8187 H   0  0  0  0  0  0  0  0  0  0  0  0
   -5.9401    3.0832  -38.0130 H   0  0  0  0  0  0  0  0  0  0  0  0
   -7.1325    4.2167  -34.6765 H   0  0  0  0  0  0  0  0  0  0  0  0
   -6.8505    2.8026  -35.6562 H   0  0  0  0  0  0  0  0  0  0  0  0
  1  2  1  0  0  0  0
  1  3  2  0  0  0  0
  1  4  1  0  0  0  0
  2  5  1  0  0  0  0
  2  7  2  0  0  0  0
  3  8  1  0  0  0  0
  3  9  1  0  0  0  0
  4 10  2  0  0  0  0
  4 11  1  0  0  0  0
  6 11  1  0  0  0  0
  7  8  1  0  0  0  0
  5 12  1  0  0  0  0
  5 13  1  0  0  0  0
  5 14  1  0  0  0  0
  6 15  1  0  0  0  0
  6 16  1  0  0  0  0
  6 17  1  0  0  0  0
  8 18  1  0  0  0  0
  9 19  1  0  0  0  0
  9 20  1  0  0  0  0
M  END
> <id>
EN300-298758

> <smiles>
COC(=O)C=1C(C)=NNC1N

> <MDLNUMBER>
MFCD09953592

> <IUPAC Name>
methyl 5-amino-3-methyl-1H-pyrazole-4-carboxylate

> <CAS>
109012-96-6

> <Purity>
95

> <URL>
https://www.enaminestore.com/catalog/EN300-298758

> <ROCS_ShapeQuery>
hit0

> <ROCS_TanimotoCombo>
0.984 

> <ROCS_ShapeTanimoto>
0.472 

> <ROCS_ColorTanimoto>
0.512 

> <ROCS_RefTversky>
1.506 

> <ROCS_RefColorTversky>
0.678 

> <ROCS_RefTverskyCombo>
2.183 

> <ROCS_FitTversky>
0.408 

> <ROCS_FitColorTversky>
0.677 

> <ROCS_FitTverskyCombo>
1.084 

> <ROCS_ColorScore>
-4.065

> <ROCS_Overlap>
192.051

> <ROCS_Rank>
425                 

$$$$
untitled-dbase-66584_22
  -OEChem-06232314393D

 23 23  0     1  0  0  0  0  0999 V2000
   -5.2413    6.0874  -38.5831 C   0  0  0  0  0  0  0  0  0  0  0  0
   -5.9639    6.7067  -37.5634 C   0  0  0  0  0  0  0  0  0  0  0  0
   -5.6367    3.9362  -37.5569 C   0  0  0  0  0  0  0  0  0  0  0  0
   -5.0777    4.7021  -38.5799 C   0  0  0  0  0  0  0  0  0  0  0  0
   -6.5229    5.9408  -36.5404 C   0  0  0  0  0  0  0  0  0  0  0  0
   -6.3593    4.5555  -36.5371 C   0  0  0  0  0  0  0  0  0  0  0  0
   -4.3056    4.0403  -39.6710 C   0  0  0  0  0  0  0  0  0  0  0  0
   -7.2919    6.6208  -35.4564 C   0  0  2  0  0  0  0  0  0  0  0  0
   -7.9838    7.9025  -35.9075 C   0  0  0  0  0  0  0  0  0  0  0  0
   -6.8997    3.7924  -35.5462 O   0  0  0  0  0  0  0  0  0  0  0  0
   -6.4812    6.9386  -34.3159 O   0  0  0  0  0  0  0  0  0  0  0  0
   -8.6351    8.4899  -34.8795 F   0  0  0  0  0  0  0  0  0  0  0  0
   -8.8998    7.6457  -36.8690 F   0  0  0  0  0  0  0  0  0  0  0  0
   -7.1065    8.7972  -36.4091 F   0  0  0  0  0  0  0  0  0  0  0  0
   -4.8094    6.6911  -39.3770 H   0  0  0  0  0  0  0  0  0  0  0  0
   -6.0868    7.7864  -37.5755 H   0  0  0  0  0  0  0  0  0  0  0  0
   -5.5109    2.8562  -37.5528 H   0  0  0  0  0  0  0  0  0  0  0  0
   -3.2444    3.9741  -39.4018 H   0  0  0  0  0  0  0  0  0  0  0  0
   -4.6793    3.0266  -39.8652 H   0  0  0  0  0  0  0  0  0  0  0  0
   -4.3915    4.5964  -40.6136 H   0  0  0  0  0  0  0  0  0  0  0  0
   -8.0713    5.9444  -35.0741 H   0  0  0  0  0  0  0  0  0  0  0  0
   -6.6942    2.8561  -35.6945 H   0  0  0  0  0  0  0  0  0  0  0  0
   -7.0704    7.3704  -33.6822 H   0  0  0  0  0  0  0  0  0  0  0  0
  1  2  1  0  0  0  0
  1  4  2  0  0  0  0
  2  5  2  0  0  0  0
  3  4  1  0  0  0  0
  3  6  2  0  0  0  0
  4  7  1  0  0  0  0
  5  6  1  0  0  0  0
  5  8  1  0  0  0  0
  6 10  1  0  0  0  0
  8  9  1  0  0  0  0
  8 11  1  6  0  0  0
  9 12  1  0  0  0  0
  9 13  1  0  0  0  0
  9 14  1  0  0  0  0
  1 15  1  0  0  0  0
  2 16  1  0  0  0  0
  3 17  1  0  0  0  0
  7 18  1  0  0  0  0
  7 19  1  0  0  0  0
  7 20  1  0  0  0  0
  8 21  1  0  0  0  0
 10 22  1  0  0  0  0
 11 23  1  0  0  0  0
M  END
> <id>
EN300-1960218

> <smiles>
CC=1C=CC([C@@H](O)C(F)(F)F)=C(O)C1

> <IUPAC Name>
5-methyl-2-[(1R)-2,2,2-trifluoro-1-hydroxyethyl]phenol

> <CAS>
2227916-19-8

> <URL>
https://www.enaminestore.com/catalog/EN300-1960218

> <ROCS_ShapeQuery>
hit0

> <ROCS_TanimotoCombo>
0.984 

> <ROCS_ShapeTanimoto>
0.413 

> <ROCS_ColorTanimoto>
0.571 

> <ROCS_RefTversky>
1.591 

> <ROCS_RefColorTversky>
0.672 

> <ROCS_RefTverskyCombo>
2.263 

> <ROCS_FitTversky>
0.358 

> <ROCS_FitColorTversky>
0.791 

> <ROCS_FitTverskyCombo>
1.150 

> <ROCS_ColorScore>
-3.996

> <ROCS_Overlap>
213.403

> <ROCS_Rank>
426                 

$$$$
untitled-dbase-18329_14
  -OEChem-06232314393D

 19 18  0     1  0  0  0  0  0999 V2000
   -6.2850    4.9173  -35.6701 C   0  0  0  0  0  0  0  0  0  0  0  0
   -4.3226    5.9562  -34.4767 C   0  0  0  0  0  0  0  0  0  0  0  0
   -5.8115    4.7076  -38.1212 C   0  0  0  0  0  0  0  0  0  0  0  0
   -5.9296    6.9438  -37.1037 C   0  0  0  0  0  0  0  0  0  0  0  0
   -5.8154    5.6650  -34.4243 C   0  0  1  0  0  0  0  0  0  0  0  0
   -6.0198    5.4979  -36.9133 N   0  0  0  0  0  0  0  0  0  0  0  0
   -6.8777    3.8404  -35.5417 O   0  0  0  0  0  0  0  0  0  0  0  0
   -6.5168    6.9019  -34.3502 O   0  0  0  0  0  0  0  0  0  0  0  0
   -4.0376    6.5117  -35.3739 H   0  0  0  0  0  0  0  0  0  0  0  0
   -3.7505    5.0229  -34.4469 H   0  0  0  0  0  0  0  0  0  0  0  0
   -4.0103    6.5459  -33.6070 H   0  0  0  0  0  0  0  0  0  0  0  0
   -6.7758    4.5457  -38.6249 H   0  0  0  0  0  0  0  0  0  0  0  0
   -5.1302    5.2445  -38.7976 H   0  0  0  0  0  0  0  0  0  0  0  0
   -5.3709    3.7363  -37.8522 H   0  0  0  0  0  0  0  0  0  0  0  0
   -4.8901    7.2700  -36.9519 H   0  0  0  0  0  0  0  0  0  0  0  0
   -6.2487    7.1997  -38.1248 H   0  0  0  0  0  0  0  0  0  0  0  0
   -6.5825    7.4505  -36.3777 H   0  0  0  0  0  0  0  0  0  0  0  0
   -6.0846    5.1100  -33.5229 H   0  0  0  0  0  0  0  0  0  0  0  0
   -7.4604    6.6832  -34.2961 H   0  0  0  0  0  0  0  0  0  0  0  0
  1  5  1  0  0  0  0
  1  6  1  0  0  0  0
  1  7  2  0  0  0  0
  2  5  1  0  0  0  0
  3  6  1  0  0  0  0
  4  6  1  0  0  0  0
  5  8  1  0  0  0  0
  2  9  1  0  0  0  0
  2 10  1  0  0  0  0
  2 11  1  0  0  0  0
  3 12  1  0  0  0  0
  3 13  1  0  0  0  0
  3 14  1  0  0  0  0
  4 15  1  0  0  0  0
  4 16  1  0  0  0  0
  4 17  1  0  0  0  0
  5 18  1  0  0  0  0
  8 19  1  0  0  0  0
M  END
> <id>
EN300-181679

> <smiles>
CC(O)C(=O)N(C)C

> <MDLNUMBER>
MFCD01698643

> <IUPAC Name>
2-hydroxy-N,N-dimethylpropanamide

> <CAS>
35123-06-9

> <Purity>
95

> <URL>
https://www.enaminestore.com/catalog/EN300-181679

> <ROCS_ShapeQuery>
hit0

> <ROCS_TanimotoCombo>
0.984 

> <ROCS_ShapeTanimoto>
0.484 

> <ROCS_ColorTanimoto>
0.499 

> <ROCS_RefTversky>
1.164 

> <ROCS_RefColorTversky>
0.512 

> <ROCS_RefTverskyCombo>
1.676 

> <ROCS_FitTversky>
0.453 

> <ROCS_FitColorTversky>
0.951 

> <ROCS_FitTverskyCombo>
1.405 

> <ROCS_ColorScore>
-2.998

> <ROCS_Overlap>
138.288

> <ROCS_Rank>
427                 

$$$$
untitled-dbase-91568_6
  -OEChem-06232314393D

 14 14  0     1  0  0  0  0  0999 V2000
   -7.8825    4.8110  -35.7476 C   0  0  0  0  0  0  0  0  0  0  0  0
   -6.4248    5.1462  -35.9555 C   0  0  1  0  0  0  0  0  0  0  0  0
   -5.8726    5.2040  -37.3428 C   0  0  0  0  0  0  0  0  0  0  0  0
   -5.6807    5.8879  -34.8930 C   0  0  0  0  0  0  0  0  0  0  0  0
   -6.8472    3.8348  -35.5563 O   0  0  0  0  0  0  0  0  0  0  0  0
   -6.5119    6.9098  -34.3464 O   0  0  0  0  0  0  0  0  0  0  0  0
   -8.3850    5.1860  -34.8651 H   0  0  0  0  0  0  0  0  0  0  0  0
   -8.5215    4.6987  -36.6142 H   0  0  0  0  0  0  0  0  0  0  0  0
   -4.8020    5.4585  -37.3392 H   0  0  0  0  0  0  0  0  0  0  0  0
   -6.3896    5.9622  -37.9501 H   0  0  0  0  0  0  0  0  0  0  0  0
   -5.9804    4.2382  -37.8590 H   0  0  0  0  0  0  0  0  0  0  0  0
   -4.7744    6.3670  -35.2949 H   0  0  0  0  0  0  0  0  0  0  0  0
   -5.3789    5.2205  -34.0709 H   0  0  0  0  0  0  0  0  0  0  0  0
   -6.7424    7.4993  -35.0808 H   0  0  0  0  0  0  0  0  0  0  0  0
  1  2  1  0  0  0  0
  1  5  1  0  0  0  0
  2  3  1  0  0  0  0
  2  4  1  0  0  0  0
  2  5  1  0  0  0  0
  4  6  1  0  0  0  0
  1  7  1  0  0  0  0
  1  8  1  0  0  0  0
  3  9  1  0  0  0  0
  3 10  1  0  0  0  0
  3 11  1  0  0  0  0
  4 12  1  0  0  0  0
  4 13  1  0  0  0  0
  6 14  1  0  0  0  0
M  END
> <id>
EN300-214874

> <smiles>
CC1(CO)CO1

> <MDLNUMBER>
MFCD00667531

> <IUPAC Name>
(2-methyloxiran-2-yl)methanol

> <CAS>
872-30-0

> <Purity>
95

> <URL>
https://www.enaminestore.com/catalog/EN300-214874

> <ROCS_ShapeQuery>
hit0

> <ROCS_TanimotoCombo>
0.984 

> <ROCS_ShapeTanimoto>
0.485 

> <ROCS_ColorTanimoto>
0.499 

> <ROCS_RefTversky>
0.987 

> <ROCS_RefColorTversky>
0.512 

> <ROCS_RefTverskyCombo>
1.499 

> <ROCS_FitTversky>
0.488 

> <ROCS_FitColorTversky>
0.951 

> <ROCS_FitTverskyCombo>
1.439 

> <ROCS_ColorScore>
-2.997

> <ROCS_Overlap>
113.460

> <ROCS_Rank>
428                 

$$$$
untitled-dbase-82297_6
  -OEChem-06232314393D

 14 14  0     1  0  0  0  0  0999 V2000
   -7.8895    4.8149  -35.7503 C   0  0  0  0  0  0  0  0  0  0  0  0
   -6.4322    5.1490  -35.9624 C   0  0  1  0  0  0  0  0  0  0  0  0
   -5.8853    5.2109  -37.3517 C   0  0  0  0  0  0  0  0  0  0  0  0
   -5.6842    5.8879  -34.9007 C   0  0  0  0  0  0  0  0  0  0  0  0
   -6.8546    3.8370  -35.5655 O   0  0  0  0  0  0  0  0  0  0  0  0
   -6.5129    6.9094  -34.3495 O   0  0  0  0  0  0  0  0  0  0  0  0
   -8.3880    5.1888  -34.8650 H   0  0  0  0  0  0  0  0  0  0  0  0
   -8.5321    4.7050  -36.6146 H   0  0  0  0  0  0  0  0  0  0  0  0
   -4.8144    5.4639  -37.3514 H   0  0  0  0  0  0  0  0  0  0  0  0
   -6.4037    5.9717  -37.9543 H   0  0  0  0  0  0  0  0  0  0  0  0
   -5.9963    4.2469  -37.8708 H   0  0  0  0  0  0  0  0  0  0  0  0
   -4.7788    6.3670  -35.3043 H   0  0  0  0  0  0  0  0  0  0  0  0
   -5.3806    5.2185  -34.0808 H   0  0  0  0  0  0  0  0  0  0  0  0
   -6.7451    7.5005  -35.0820 H   0  0  0  0  0  0  0  0  0  0  0  0
  1  2  1  0  0  0  0
  1  5  1  0  0  0  0
  2  3  1  1  0  0  0
  2  4  1  0  0  0  0
  2  5  1  0  0  0  0
  4  6  1  0  0  0  0
  1  7  1  0  0  0  0
  1  8  1  0  0  0  0
  3  9  1  0  0  0  0
  3 10  1  0  0  0  0
  3 11  1  0  0  0  0
  4 12  1  0  0  0  0
  4 13  1  0  0  0  0
  6 14  1  0  0  0  0
M  END
> <id>
EN300-3197704

> <smiles>
C[C@@]1(CO)CO1

> <MDLNUMBER>
MFCD00075021

> <IUPAC Name>
[(2R)-2-methyloxiran-2-yl]methanol

> <CAS>
86884-89-1

> <Purity>
95

> <URL>
https://www.enaminestore.com/catalog/EN300-3197704

> <ROCS_ShapeQuery>
hit0

> <ROCS_TanimotoCombo>
0.984 

> <ROCS_ShapeTanimoto>
0.484 

> <ROCS_ColorTanimoto>
0.499 

> <ROCS_RefTversky>
0.987 

> <ROCS_RefColorTversky>
0.512 

> <ROCS_RefTverskyCombo>
1.499 

> <ROCS_FitTversky>
0.488 

> <ROCS_FitColorTversky>
0.951 

> <ROCS_FitTverskyCombo>
1.438 

> <ROCS_ColorScore>
-2.997

> <ROCS_Overlap>
113.437

> <ROCS_Rank>
429                 

$$$$
untitled-dbase-69186_38
  -OEChem-06232314393D

 20 20  0     1  0  0  0  0  0999 V2000
   -5.9557    7.7880  -35.9043 C   0  0  0  0  0  0  0  0  0  0  0  0
   -5.4105    6.8406  -36.7708 C   0  0  0  0  0  0  0  0  0  0  0  0
   -6.8233    7.3864  -34.8885 C   0  0  0  0  0  0  0  0  0  0  0  0
   -5.7328    5.4918  -36.6216 C   0  0  0  0  0  0  0  0  0  0  0  0
   -6.6004    5.0902  -35.6058 C   0  0  0  0  0  0  0  0  0  0  0  0
   -7.1456    6.0376  -34.7393 C   0  0  0  0  0  0  0  0  0  0  0  0
   -5.6307    3.0666  -37.3019 C   0  0  0  0  0  0  0  0  0  0  0  0
   -5.1401    4.4918  -37.5584 C   0  0  1  0  0  0  0  0  0  0  0  0
   -6.9243    3.7765  -35.4468 O   0  0  0  0  0  0  0  0  0  0  0  0
   -5.4894    4.8454  -38.9011 O   0  0  0  0  0  0  0  0  0  0  0  0
   -7.9792    5.6582  -33.7609 F   0  0  0  0  0  0  0  0  0  0  0  0
   -5.7053    8.8383  -36.0206 H   0  0  0  0  0  0  0  0  0  0  0  0
   -4.7360    7.1633  -37.5599 H   0  0  0  0  0  0  0  0  0  0  0  0
   -7.2481    8.1238  -34.2139 H   0  0  0  0  0  0  0  0  0  0  0  0
   -6.7234    3.0128  -37.3370 H   0  0  0  0  0  0  0  0  0  0  0  0
   -5.2976    2.6994  -36.3246 H   0  0  0  0  0  0  0  0  0  0  0  0
   -5.2232    2.3747  -38.0473 H   0  0  0  0  0  0  0  0  0  0  0  0
   -4.0384    4.4875  -37.5117 H   0  0  0  0  0  0  0  0  0  0  0  0
   -7.5339    3.6697  -34.6999 H   0  0  0  0  0  0  0  0  0  0  0  0
   -6.4564    4.8336  -38.9402 H   0  0  0  0  0  0  0  0  0  0  0  0
  1  2  1  0  0  0  0
  1  3  2  0  0  0  0
  2  4  2  0  0  0  0
  3  6  1  0  0  0  0
  4  5  1  0  0  0  0
  4  8  1  0  0  0  0
  5  6  2  0  0  0  0
  5  9  1  0  0  0  0
  6 11  1  0  0  0  0
  7  8  1  1  0  0  0
  8 10  1  0  0  0  0
  1 12  1  0  0  0  0
  2 13  1  0  0  0  0
  3 14  1  0  0  0  0
  7 15  1  0  0  0  0
  7 16  1  0  0  0  0
  7 17  1  0  0  0  0
  8 18  1  0  0  0  0
  9 19  1  0  0  0  0
 10 20  1  0  0  0  0
M  END
> <id>
EN300-1856782

> <smiles>
C[C@@H](O)C=1C=CC=C(F)C1O

> <MDLNUMBER>
MFCD22569979

> <IUPAC Name>
2-fluoro-6-[(1R)-1-hydroxyethyl]phenol

> <CAS>
1932232-22-8

> <URL>
https://www.enaminestore.com/catalog/EN300-1856782

> <ROCS_ShapeQuery>
hit0

> <ROCS_TanimotoCombo>
0.983 

> <ROCS_ShapeTanimoto>
0.422 

> <ROCS_ColorTanimoto>
0.561 

> <ROCS_RefTversky>
1.368 

> <ROCS_RefColorTversky>
0.665 

> <ROCS_RefTverskyCombo>
2.033 

> <ROCS_FitTversky>
0.379 

> <ROCS_FitColorTversky>
0.783 

> <ROCS_FitTverskyCombo>
1.162 

> <ROCS_ColorScore>
-3.955

> <ROCS_Overlap>
173.561

> <ROCS_Rank>
430                 

$$$$
untitled-dbase-172140_6
  -OEChem-06232314393D

 17 17  0     1  0  0  0  0  0999 V2000
   -5.9093    4.5891  -37.6978 C   0  0  0  0  0  0  0  0  0  0  0  0
   -6.1535    5.7521  -36.7856 C   0  0  0  0  0  0  0  0  0  0  0  0
   -6.1986    3.2844  -37.0098 C   0  0  0  0  0  0  0  0  0  0  0  0
   -6.2542    5.0299  -35.4451 C   0  0  1  0  0  0  0  0  0  0  0  0
   -7.1033    5.7892  -34.4366 C   0  0  0  0  0  0  0  0  0  0  0  0
   -6.8388    3.7128  -35.7610 N   0  0  0  0  0  0  0  0  0  0  0  0
   -5.5291    4.6880  -38.8564 O   0  0  0  0  0  0  0  0  0  0  0  0
   -6.5121    7.0566  -34.2068 O   0  0  0  0  0  0  0  0  0  0  0  0
   -5.3140    6.4508  -36.8101 H   0  0  0  0  0  0  0  0  0  0  0  0
   -7.0871    6.2423  -37.0773 H   0  0  0  0  0  0  0  0  0  0  0  0
   -6.8727    2.6662  -37.6069 H   0  0  0  0  0  0  0  0  0  0  0  0
   -5.2616    2.7591  -36.8069 H   0  0  0  0  0  0  0  0  0  0  0  0
   -5.2514    4.8763  -35.0253 H   0  0  0  0  0  0  0  0  0  0  0  0
   -7.1495    5.2401  -33.4945 H   0  0  0  0  0  0  0  0  0  0  0  0
   -8.1132    5.9310  -34.8258 H   0  0  0  0  0  0  0  0  0  0  0  0
   -7.8379    3.8330  -35.9343 H   0  0  0  0  0  0  0  0  0  0  0  0
   -7.0728    7.5189  -33.5613 H   0  0  0  0  0  0  0  0  0  0  0  0
  1  2  1  0  0  0  0
  1  3  1  0  0  0  0
  1  7  2  0  0  0  0
  2  4  1  0  0  0  0
  3  6  1  0  0  0  0
  4  5  1  6  0  0  0
  4  6  1  0  0  0  0
  5  8  1  0  0  0  0
  2  9  1  0  0  0  0
  2 10  1  0  0  0  0
  3 11  1  0  0  0  0
  3 12  1  0  0  0  0
  4 13  1  0  0  0  0
  5 14  1  0  0  0  0
  5 15  1  0  0  0  0
  6 16  1  0  0  0  0
  8 17  1  0  0  0  0
M  END
> <id>
EN300-33454660

> <smiles>
OC[C@@H]1CC(=O)CN1

> <MDLNUMBER>
MFCD33023362

> <IUPAC Name>
(5S)-5-(hydroxymethyl)pyrrolidin-3-one

> <URL>
https://www.enaminestore.com/catalog/EN300-33454660

> <ROCS_ShapeQuery>
hit0

> <ROCS_TanimotoCombo>
0.983 

> <ROCS_ShapeTanimoto>
0.511 

> <ROCS_ColorTanimoto>
0.473 

> <ROCS_RefTversky>
1.242 

> <ROCS_RefColorTversky>
0.642 

> <ROCS_RefTverskyCombo>
1.884 

> <ROCS_FitTversky>
0.464 

> <ROCS_FitColorTversky>
0.642 

> <ROCS_FitTverskyCombo>
1.106 

> <ROCS_ColorScore>
-3.852

> <ROCS_Overlap>
148.523

> <ROCS_Rank>
431                 

$$$$
untitled-dbase-47633_0
  -OEChem-06232314393D

 15 15  0     0  0  0  0  0  0999 V2000
   -5.9881    6.2508  -36.3247 C   0  0  0  0  0  0  0  0  0  0  0  0
   -6.4048    3.9616  -36.8175 C   0  0  0  0  0  0  0  0  0  0  0  0
   -6.9219    4.7584  -34.7256 C   0  0  0  0  0  0  0  0  0  0  0  0
   -5.9438    5.2000  -37.2342 C   0  0  0  0  0  0  0  0  0  0  0  0
   -6.4849    6.0341  -35.0442 C   0  0  0  0  0  0  0  0  0  0  0  0
   -5.4308    5.3943  -38.5792 C   0  0  0  0  0  0  0  0  0  0  0  0
   -6.8944    3.7128  -35.5822 N   0  0  0  0  0  0  0  0  0  0  0  0
   -6.5425    7.0759  -34.1041 N   0  0  0  0  0  0  0  0  0  0  0  0
   -5.3733    4.4892  -39.4176 O   0  0  0  0  0  0  0  0  0  0  0  0
   -5.6353    7.2382  -36.6141 H   0  0  0  0  0  0  0  0  0  0  0  0
   -6.3949    3.1031  -37.4822 H   0  0  0  0  0  0  0  0  0  0  0  0
   -7.3194    4.5281  -33.7419 H   0  0  0  0  0  0  0  0  0  0  0  0
   -5.0762    6.4133  -38.8511 H   0  0  0  0  0  0  0  0  0  0  0  0
   -6.1769    7.9784  -34.3442 H   0  0  0  0  0  0  0  0  0  0  0  0
   -6.8609    6.8834  -33.1729 H   0  0  0  0  0  0  0  0  0  0  0  0
  1  4  2  0  0  0  0
  1  5  1  0  0  0  0
  2  4  1  0  0  0  0
  2  7  2  0  0  0  0
  3  5  2  0  0  0  0
  3  7  1  0  0  0  0
  4  6  1  0  0  0  0
  5  8  1  0  0  0  0
  6  9  2  0  0  0  0
  1 10  1  0  0  0  0
  2 11  1  0  0  0  0
  3 12  1  0  0  0  0
  6 13  1  0  0  0  0
  8 14  1  0  0  0  0
  8 15  1  0  0  0  0
M  END
> <id>
EN300-125577

> <smiles>
NC=1C=NC=C(C=O)C1

> <MDLNUMBER>
MFCD13189098

> <IUPAC Name>
5-aminopyridine-3-carbaldehyde

> <URL>
https://www.enaminestore.com/catalog/EN300-125577

> <ROCS_ShapeQuery>
hit0

> <ROCS_TanimotoCombo>
0.983 

> <ROCS_ShapeTanimoto>
0.528 

> <ROCS_ColorTanimoto>
0.455 

> <ROCS_RefTversky>
1.409 

> <ROCS_RefColorTversky>
0.578 

> <ROCS_RefTverskyCombo>
1.987 

> <ROCS_FitTversky>
0.458 

> <ROCS_FitColorTversky>
0.681 

> <ROCS_FitTverskyCombo>
1.139 

> <ROCS_ColorScore>
-3.439

> <ROCS_Overlap>
172.688

> <ROCS_Rank>
432                 

$$$$
untitled-dbase-178202_3
  -OEChem-06232314393D

 17 17  0     0  0  0  0  0  0999 V2000
   -5.7692    6.3884  -37.9132 C   0  0  0  0  0  0  0  0  0  0  0  0
   -6.0233    3.7377  -37.6482 C   0  0  0  0  0  0  0  0  0  0  0  0
   -6.2629    5.9029  -36.7191 C   0  0  0  0  0  0  0  0  0  0  0  0
   -6.3941    4.5322  -36.5819 C   0  0  0  0  0  0  0  0  0  0  0  0
   -6.6287    6.8196  -35.6510 C   0  0  0  0  0  0  0  0  0  0  0  0
   -7.4394    9.0150  -35.1866 C   0  0  0  0  0  0  0  0  0  0  0  0
   -5.4140    5.5874  -38.9401 N   0  0  0  0  0  0  0  0  0  0  0  0
   -5.5434    4.2403  -38.8054 N   0  0  0  0  0  0  0  0  0  0  0  0
   -6.5663    6.5494  -34.4442 O   0  0  0  0  0  0  0  0  0  0  0  0
   -6.8714    3.9692  -35.4426 O   0  0  0  0  0  0  0  0  0  0  0  0
   -7.0513    8.0239  -36.1441 O   0  0  0  0  0  0  0  0  0  0  0  0
   -5.6386    7.4502  -38.0914 H   0  0  0  0  0  0  0  0  0  0  0  0
   -6.1000    2.6569  -37.6080 H   0  0  0  0  0  0  0  0  0  0  0  0
   -7.7535    9.9227  -35.7076 H   0  0  0  0  0  0  0  0  0  0  0  0
   -6.5968    9.2343  -34.5260 H   0  0  0  0  0  0  0  0  0  0  0  0
   -8.2733    8.6302  -34.5949 H   0  0  0  0  0  0  0  0  0  0  0  0
   -6.8946    3.0013  -35.5256 H   0  0  0  0  0  0  0  0  0  0  0  0
  1  3  2  0  0  0  0
  1  7  1  0  0  0  0
  2  4  2  0  0  0  0
  2  8  1  0  0  0  0
  3  4  1  0  0  0  0
  3  5  1  0  0  0  0
  4 10  1  0  0  0  0
  5  9  2  0  0  0  0
  5 11  1  0  0  0  0
  6 11  1  0  0  0  0
  7  8  2  0  0  0  0
  1 12  1  0  0  0  0
  2 13  1  0  0  0  0
  6 14  1  0  0  0  0
  6 15  1  0  0  0  0
  6 16  1  0  0  0  0
 10 17  1  0  0  0  0
M  END
> <id>
EN300-6830090

> <smiles>
COC(=O)C=1C=NN=CC1O

> <MDLNUMBER>
MFCD28660803

> <IUPAC Name>
methyl 5-hydroxypyridazine-4-carboxylate

> <CAS>
21579-36-2

> <Purity>
95

> <URL>
https://www.enaminestore.com/catalog/EN300-6830090

> <ROCS_ShapeQuery>
hit0

> <ROCS_TanimotoCombo>
0.983 

> <ROCS_ShapeTanimoto>
0.495 

> <ROCS_ColorTanimoto>
0.489 

> <ROCS_RefTversky>
1.553 

> <ROCS_RefColorTversky>
0.672 

> <ROCS_RefTverskyCombo>
2.225 

> <ROCS_FitTversky>
0.421 

> <ROCS_FitColorTversky>
0.642 

> <ROCS_FitTverskyCombo>
1.062 

> <ROCS_ColorScore>
-4.043

> <ROCS_Overlap>
198.107

> <ROCS_Rank>
433                 

$$$$
untitled-dbase-72500_16
  -OEChem-06232314393D

 17 17  0     0  0  0  0  0  0999 V2000
   -6.8457    3.4091  -35.6071 C   0  0  0  0  0  0  0  0  0  0  0  0
   -6.3944    3.5271  -36.9216 C   0  0  0  0  0  0  0  0  0  0  0  0
   -6.0041    5.8862  -36.5758 C   0  0  0  0  0  0  0  0  0  0  0  0
   -6.8763    4.5296  -34.7769 C   0  0  0  0  0  0  0  0  0  0  0  0
   -5.9736    4.7656  -37.4060 C   0  0  0  0  0  0  0  0  0  0  0  0
   -6.4555    5.7681  -35.2613 C   0  0  0  0  0  0  0  0  0  0  0  0
   -7.3616    4.3844  -33.3726 C   0  0  0  0  0  0  0  0  0  0  0  0
   -5.5340    4.8805  -38.6888 O   0  0  0  0  0  0  0  0  0  0  0  0
   -6.4789    6.8724  -34.4635 O   0  0  0  0  0  0  0  0  0  0  0  0
   -8.1201    5.8911  -32.8124 Cl  0  0  0  0  0  0  0  0  0  0  0  0
   -7.1711    2.4397  -35.2383 H   0  0  0  0  0  0  0  0  0  0  0  0
   -6.3724    2.6507  -37.5636 H   0  0  0  0  0  0  0  0  0  0  0  0
   -5.6768    6.8516  -36.9540 H   0  0  0  0  0  0  0  0  0  0  0  0
   -6.5392    4.1429  -32.6872 H   0  0  0  0  0  0  0  0  0  0  0  0
   -8.1019    3.5787  -33.2855 H   0  0  0  0  0  0  0  0  0  0  0  0
   -5.5727    4.0201  -39.1361 H   0  0  0  0  0  0  0  0  0  0  0  0
   -6.1558    7.6455  -34.9522 H   0  0  0  0  0  0  0  0  0  0  0  0
  1  2  1  0  0  0  0
  1  4  2  0  0  0  0
  2  5  2  0  0  0  0
  3  5  1  0  0  0  0
  3  6  2  0  0  0  0
  4  6  1  0  0  0  0
  4  7  1  0  0  0  0
  5  8  1  0  0  0  0
  6  9  1  0  0  0  0
  7 10  1  0  0  0  0
  1 11  1  0  0  0  0
  2 12  1  0  0  0  0
  3 13  1  0  0  0  0
  7 14  1  0  0  0  0
  7 15  1  0  0  0  0
  8 16  1  0  0  0  0
  9 17  1  0  0  0  0
M  END
> <id>
EN300-1967347

> <smiles>
OC=1C=CC(CCl)=C(O)C1

> <MDLNUMBER>
MFCD22492341

> <IUPAC Name>
4-(chloromethyl)benzene-1,3-diol

> <CAS>
1437796-68-3

> <URL>
https://www.enaminestore.com/catalog/EN300-1967347

> <ROCS_ShapeQuery>
hit0

> <ROCS_TanimotoCombo>
0.983 

> <ROCS_ShapeTanimoto>
0.428 

> <ROCS_ColorTanimoto>
0.555 

> <ROCS_RefTversky>
1.280 

> <ROCS_RefColorTversky>
0.660 

> <ROCS_RefTverskyCombo>
1.940 

> <ROCS_FitTversky>
0.391 

> <ROCS_FitColorTversky>
0.778 

> <ROCS_FitTverskyCombo>
1.169 

> <ROCS_ColorScore>
-3.927

> <ROCS_Overlap>
158.865

> <ROCS_Rank>
434                 

$$$$
untitled-dbase-104975_58
  -OEChem-06232314393D

 25 25  0     1  0  0  0  0  0999 V2000
   -5.2381    5.4695  -36.3034 C   0  0  0  0  0  0  0  0  0  0  0  0
   -5.8169    5.7627  -37.7076 C   0  0  2  0  0  0  0  0  0  0  0  0
   -7.2577    5.7962  -37.0912 C   0  0  0  0  0  0  0  0  0  0  0  0
   -6.6591    5.1544  -35.7750 C   0  0  2  0  0  0  0  0  0  0  0  0
   -8.3330    5.0266  -37.8660 C   0  0  0  0  0  0  0  0  0  0  0  0
   -7.7292    7.2524  -36.9095 C   0  0  0  0  0  0  0  0  0  0  0  0
   -7.0224    5.7062  -34.4100 C   0  0  0  0  0  0  0  0  0  0  0  0
   -6.8306    3.6924  -35.7983 N   0  0  0  0  0  0  0  0  0  0  0  0
   -5.5428    4.7777  -38.7251 O   0  0  0  0  0  0  0  0  0  0  0  0
   -6.4869    7.0136  -34.2877 O   0  0  0  0  0  0  0  0  0  0  0  0
   -4.5149    4.6328  -36.2985 H   0  0  0  0  0  0  0  0  0  0  0  0
   -4.7320    6.3270  -35.8275 H   0  0  0  0  0  0  0  0  0  0  0  0
   -5.4799    6.7538  -38.0783 H   0  0  0  0  0  0  0  0  0  0  0  0
   -9.2824    5.1199  -37.3491 H   0  0  0  0  0  0  0  0  0  0  0  0
   -8.0512    3.9805  -37.9262 H   0  0  0  0  0  0  0  0  0  0  0  0
   -8.4189    5.4401  -38.8655 H   0  0  0  0  0  0  0  0  0  0  0  0
   -8.7286    7.2608  -36.4818 H   0  0  0  0  0  0  0  0  0  0  0  0
   -7.7458    7.7528  -37.8745 H   0  0  0  0  0  0  0  0  0  0  0  0
   -7.0475    7.7754  -36.2436 H   0  0  0  0  0  0  0  0  0  0  0  0
   -6.6039    5.0752  -33.6226 H   0  0  0  0  0  0  0  0  0  0  0  0
   -8.1079    5.7543  -34.2972 H   0  0  0  0  0  0  0  0  0  0  0  0
   -6.7223    3.3871  -36.7347 H   0  0  0  0  0  0  0  0  0  0  0  0
   -6.1368    3.2948  -35.2132 H   0  0  0  0  0  0  0  0  0  0  0  0
   -5.9668    5.1055  -39.5287 H   0  0  0  0  0  0  0  0  0  0  0  0
   -6.7349    7.3400  -33.4066 H   0  0  0  0  0  0  0  0  0  0  0  0
  1  2  1  0  0  0  0
  1  4  1  0  0  0  0
  2  3  1  0  0  0  0
  2  9  1  0  0  0  0
  3  4  1  0  0  0  0
  3  5  1  0  0  0  0
  3  6  1  0  0  0  0
  4  7  1  0  0  0  0
  4  8  1  0  0  0  0
  7 10  1  0  0  0  0
  1 11  1  0  0  0  0
  1 12  1  0  0  0  0
  2 13  1  0  0  0  0
  5 14  1  0  0  0  0
  5 15  1  0  0  0  0
  5 16  1  0  0  0  0
  6 17  1  0  0  0  0
  6 18  1  0  0  0  0
  6 19  1  0  0  0  0
  7 20  1  0  0  0  0
  7 21  1  0  0  0  0
  8 22  1  0  0  0  0
  8 23  1  0  0  0  0
  9 24  1  0  0  0  0
 10 25  1  0  0  0  0
M  END
> <id>
EN300-7563407

> <smiles>
Cl.CC1(C)C(O)CC1(N)CO

> <MDLNUMBER>
MFCD32663444

> <IUPAC Name>
3-amino-3-(hydroxymethyl)-2,2-dimethylcyclobutan-1-ol hydrochloride

> <CAS>
2413866-56-3

> <Purity>
95

> <URL>
https://www.enaminestore.com/catalog/EN300-7563407

> <Saltdate>
Cl

> <ROCS_ShapeQuery>
hit0

> <ROCS_TanimotoCombo>
0.983 

> <ROCS_ShapeTanimoto>
0.448 

> <ROCS_ColorTanimoto>
0.535 

> <ROCS_RefTversky>
1.298 

> <ROCS_RefColorTversky>
0.800 

> <ROCS_RefTverskyCombo>
2.098 

> <ROCS_FitTversky>
0.406 

> <ROCS_FitColorTversky>
0.618 

> <ROCS_FitTverskyCombo>
1.024 

> <ROCS_ColorScore>
-4.881

> <ROCS_Overlap>
160.277

> <ROCS_Rank>
435                 

$$$$
untitled-dbase-104114_58
  -OEChem-06232314393D

 25 25  0     1  0  0  0  0  0999 V2000
   -5.2381    5.4695  -36.3034 C   0  0  0  0  0  0  0  0  0  0  0  0
   -5.8169    5.7627  -37.7076 C   0  0  2  0  0  0  0  0  0  0  0  0
   -7.2577    5.7962  -37.0912 C   0  0  0  0  0  0  0  0  0  0  0  0
   -6.6591    5.1544  -35.7750 C   0  0  2  0  0  0  0  0  0  0  0  0
   -8.3330    5.0266  -37.8660 C   0  0  0  0  0  0  0  0  0  0  0  0
   -7.7292    7.2524  -36.9095 C   0  0  0  0  0  0  0  0  0  0  0  0
   -7.0224    5.7062  -34.4100 C   0  0  0  0  0  0  0  0  0  0  0  0
   -6.8306    3.6924  -35.7983 N   0  0  0  0  0  0  0  0  0  0  0  0
   -5.5428    4.7777  -38.7251 O   0  0  0  0  0  0  0  0  0  0  0  0
   -6.4869    7.0136  -34.2877 O   0  0  0  0  0  0  0  0  0  0  0  0
   -4.5149    4.6328  -36.2985 H   0  0  0  0  0  0  0  0  0  0  0  0
   -4.7320    6.3270  -35.8275 H   0  0  0  0  0  0  0  0  0  0  0  0
   -5.4799    6.7538  -38.0783 H   0  0  0  0  0  0  0  0  0  0  0  0
   -9.2824    5.1199  -37.3491 H   0  0  0  0  0  0  0  0  0  0  0  0
   -8.0512    3.9805  -37.9262 H   0  0  0  0  0  0  0  0  0  0  0  0
   -8.4189    5.4401  -38.8655 H   0  0  0  0  0  0  0  0  0  0  0  0
   -8.7286    7.2608  -36.4818 H   0  0  0  0  0  0  0  0  0  0  0  0
   -7.7458    7.7528  -37.8745 H   0  0  0  0  0  0  0  0  0  0  0  0
   -7.0475    7.7754  -36.2436 H   0  0  0  0  0  0  0  0  0  0  0  0
   -6.6039    5.0752  -33.6226 H   0  0  0  0  0  0  0  0  0  0  0  0
   -8.1079    5.7543  -34.2972 H   0  0  0  0  0  0  0  0  0  0  0  0
   -6.7223    3.3871  -36.7347 H   0  0  0  0  0  0  0  0  0  0  0  0
   -6.1368    3.2948  -35.2132 H   0  0  0  0  0  0  0  0  0  0  0  0
   -5.9668    5.1055  -39.5287 H   0  0  0  0  0  0  0  0  0  0  0  0
   -6.7349    7.3400  -33.4066 H   0  0  0  0  0  0  0  0  0  0  0  0
  1  2  1  0  0  0  0
  1  4  1  0  0  0  0
  2  3  1  0  0  0  0
  2  9  1  0  0  0  0
  3  4  1  0  0  0  0
  3  5  1  0  0  0  0
  3  6  1  0  0  0  0
  4  7  1  0  0  0  0
  4  8  1  0  0  0  0
  7 10  1  0  0  0  0
  1 11  1  0  0  0  0
  1 12  1  0  0  0  0
  2 13  1  0  0  0  0
  5 14  1  0  0  0  0
  5 15  1  0  0  0  0
  5 16  1  0  0  0  0
  6 17  1  0  0  0  0
  6 18  1  0  0  0  0
  6 19  1  0  0  0  0
  7 20  1  0  0  0  0
  7 21  1  0  0  0  0
  8 22  1  0  0  0  0
  8 23  1  0  0  0  0
  9 24  1  0  0  0  0
 10 25  1  0  0  0  0
M  END
> <id>
EN300-7563408

> <smiles>
CC1(C)C(O)CC1(N)CO

> <MDLNUMBER>
MFCD32662689

> <IUPAC Name>
3-amino-3-(hydroxymethyl)-2,2-dimethylcyclobutan-1-ol

> <CAS>
2413866-55-2

> <URL>
https://www.enaminestore.com/catalog/EN300-7563408

> <ROCS_ShapeQuery>
hit0

> <ROCS_TanimotoCombo>
0.983 

> <ROCS_ShapeTanimoto>
0.448 

> <ROCS_ColorTanimoto>
0.535 

> <ROCS_RefTversky>
1.298 

> <ROCS_RefColorTversky>
0.800 

> <ROCS_RefTverskyCombo>
2.098 

> <ROCS_FitTversky>
0.406 

> <ROCS_FitColorTversky>
0.618 

> <ROCS_FitTverskyCombo>
1.024 

> <ROCS_ColorScore>
-4.881

> <ROCS_Overlap>
160.277

> <ROCS_Rank>
436                 

$$$$
untitled-dbase-55923_0
  -OEChem-06232314393D

 16 16  0     0  0  0  0  0  0999 V2000
   -5.7768    5.6411  -35.9021 C   0  0  0  0  0  0  0  0  0  0  0  0
   -7.5011    3.7842  -35.0141 C   0  0  0  0  0  0  0  0  0  0  0  0
   -5.8954    4.4027  -36.4994 C   0  0  0  0  0  0  0  0  0  0  0  0
   -6.6023    5.8629  -34.8188 C   0  0  0  0  0  0  0  0  0  0  0  0
   -5.0429    4.0701  -37.6777 C   0  0  0  0  0  0  0  0  0  0  0  0
   -6.7503    3.4470  -36.0799 N   0  0  0  0  0  0  0  0  0  0  0  0
   -7.4797    4.9535  -34.3462 N   0  0  0  0  0  0  0  0  0  0  0  0
   -6.5117    7.1226  -34.1773 N   0  0  0  0  0  0  0  0  0  0  0  0
   -5.5400    4.7465  -38.8257 O   0  0  0  0  0  0  0  0  0  0  0  0
   -5.0789    6.3873  -36.2630 H   0  0  0  0  0  0  0  0  0  0  0  0
   -8.1962    3.0350  -34.6555 H   0  0  0  0  0  0  0  0  0  0  0  0
   -3.9997    4.3735  -37.5155 H   0  0  0  0  0  0  0  0  0  0  0  0
   -5.0447    2.9897  -37.8758 H   0  0  0  0  0  0  0  0  0  0  0  0
   -7.1306    7.3243  -33.4222 H   0  0  0  0  0  0  0  0  0  0  0  0
   -5.8981    7.8120  -34.5545 H   0  0  0  0  0  0  0  0  0  0  0  0
   -4.9602    4.5042  -39.5655 H   0  0  0  0  0  0  0  0  0  0  0  0
  1  3  1  0  0  0  0
  1  4  2  0  0  0  0
  2  6  1  0  0  0  0
  2  7  2  0  0  0  0
  3  5  1  0  0  0  0
  3  6  2  0  0  0  0
  4  7  1  0  0  0  0
  4  8  1  0  0  0  0
  5  9  1  0  0  0  0
  1 10  1  0  0  0  0
  2 11  1  0  0  0  0
  5 12  1  0  0  0  0
  5 13  1  0  0  0  0
  8 14  1  0  0  0  0
  8 15  1  0  0  0  0
  9 16  1  0  0  0  0
M  END
> <id>
EN300-250745

> <smiles>
NC=1C=C(CO)N=CN1

> <MDLNUMBER>
MFCD17168822

> <IUPAC Name>
(6-aminopyrimidin-4-yl)methanol

> <CAS>
436851-94-4

> <Purity>
95

> <URL>
https://www.enaminestore.com/catalog/EN300-250745

> <ROCS_ShapeQuery>
hit0

> <ROCS_TanimotoCombo>
0.983 

> <ROCS_ShapeTanimoto>
0.444 

> <ROCS_ColorTanimoto>
0.539 

> <ROCS_RefTversky>
1.253 

> <ROCS_RefColorTversky>
0.753 

> <ROCS_RefTverskyCombo>
2.006 

> <ROCS_FitTversky>
0.408 

> <ROCS_FitColorTversky>
0.654 

> <ROCS_FitTverskyCombo>
1.062 

> <ROCS_ColorScore>
-4.556

> <ROCS_Overlap>
153.637

> <ROCS_Rank>
437                 

$$$$
untitled-dbase-30844_47
  -OEChem-06232314393D

 22 22  0     0  0  0  0  0  0999 V2000
   -5.7448    4.1844  -37.6191 C   0  0  0  0  0  0  0  0  0  0  0  0
   -4.9208    5.3129  -35.5844 C   0  0  0  0  0  0  0  0  0  0  0  0
   -7.0856    6.0720  -36.6445 C   0  0  0  0  0  0  0  0  0  0  0  0
   -5.2880    6.0790  -34.3111 C   0  0  0  0  0  0  0  0  0  0  0  0
   -6.8025    7.2522  -35.7149 C   0  0  0  0  0  0  0  0  0  0  0  0
   -6.1643    4.8778  -36.3554 C   0  0  0  0  0  0  0  0  0  0  0  0
   -5.5462    2.6949  -37.5398 C   0  0  0  0  0  0  0  0  0  0  0  0
   -5.5739    4.8032  -38.6683 O   0  0  0  0  0  0  0  0  0  0  0  0
   -6.5274    6.7832  -34.4006 O   0  0  0  0  0  0  0  0  0  0  0  0
   -6.8524    3.9014  -35.5809 O   0  0  0  0  0  0  0  0  0  0  0  0
   -4.2548    5.9206  -36.2082 H   0  0  0  0  0  0  0  0  0  0  0  0
   -4.3474    4.4194  -35.3049 H   0  0  0  0  0  0  0  0  0  0  0  0
   -8.1270    5.7507  -36.5036 H   0  0  0  0  0  0  0  0  0  0  0  0
   -7.0054    6.3888  -37.6920 H   0  0  0  0  0  0  0  0  0  0  0  0
   -5.3711    5.3695  -33.4668 H   0  0  0  0  0  0  0  0  0  0  0  0
   -4.4865    6.7908  -34.0288 H   0  0  0  0  0  0  0  0  0  0  0  0
   -5.9643    7.8539  -36.0759 H   0  0  0  0  0  0  0  0  0  0  0  0
   -7.6810    7.8987  -35.6647 H   0  0  0  0  0  0  0  0  0  0  0  0
   -6.4860    2.1848  -37.7689 H   0  0  0  0  0  0  0  0  0  0  0  0
   -5.2324    2.4205  -36.5297 H   0  0  0  0  0  0  0  0  0  0  0  0
   -4.7906    2.3868  -38.2665 H   0  0  0  0  0  0  0  0  0  0  0  0
   -7.6104    3.6092  -36.1116 H   0  0  0  0  0  0  0  0  0  0  0  0
  1  6  1  0  0  0  0
  1  7  1  0  0  0  0
  1  8  2  0  0  0  0
  2  4  1  0  0  0  0
  2  6  1  0  0  0  0
  3  5  1  0  0  0  0
  3  6  1  0  0  0  0
  4  9  1  0  0  0  0
  5  9  1  0  0  0  0
  6 10  1  0  0  0  0
  2 11  1  0  0  0  0
  2 12  1  0  0  0  0
  3 13  1  0  0  0  0
  3 14  1  0  0  0  0
  4 15  1  0  0  0  0
  4 16  1  0  0  0  0
  5 17  1  0  0  0  0
  5 18  1  0  0  0  0
  7 19  1  0  0  0  0
  7 20  1  0  0  0  0
  7 21  1  0  0  0  0
 10 22  1  0  0  0  0
M  END
> <id>
EN300-210420

> <smiles>
CC(=O)C1(O)CCOCC1

> <MDLNUMBER>
MFCD28957586

> <IUPAC Name>
1-(4-hydroxyoxan-4-yl)ethan-1-one

> <CAS>
185206-97-7

> <Purity>
95

> <URL>
https://www.enaminestore.com/catalog/EN300-210420

> <ROCS_ShapeQuery>
hit0

> <ROCS_TanimotoCombo>
0.983 

> <ROCS_ShapeTanimoto>
0.426 

> <ROCS_ColorTanimoto>
0.557 

> <ROCS_RefTversky>
1.279 

> <ROCS_RefColorTversky>
0.661 

> <ROCS_RefTverskyCombo>
1.940 

> <ROCS_FitTversky>
0.390 

> <ROCS_FitColorTversky>
0.779 

> <ROCS_FitTverskyCombo>
1.169 

> <ROCS_ColorScore>
-3.933

> <ROCS_Overlap>
158.760

> <ROCS_Rank>
438                 

$$$$
untitled-dbase-94218_14
  -OEChem-06232314393D

 16 16  0     1  0  0  0  0  0999 V2000
   -6.2374    3.8836  -37.8829 C   0  0  0  0  0  0  0  0  0  0  0  0
   -5.3000    6.0142  -37.9527 C   0  0  0  0  0  0  0  0  0  0  0  0
   -6.7615    4.6576  -36.6911 C   0  0  2  0  0  0  0  0  0  0  0  0
   -5.6931    5.7140  -36.5187 C   0  0  2  0  0  0  0  0  0  0  0  0
   -7.4244    7.6870  -36.3776 O   0  5  0  0  0  0  0  0  0  0  0  0
   -6.3604    6.8573  -34.2476 O   0  0  0  0  0  0  0  0  0  0  0  0
   -5.5517    4.8241  -38.7161 O   0  0  0  0  0  0  0  0  0  0  0  0
   -6.8765    3.8087  -35.5662 O   0  0  0  0  0  0  0  0  0  0  0  0
   -6.2719    7.1953  -35.6525 S   0  0  1  0  0  0  0  0  0  0  0  0
   -5.5469    3.0812  -37.6109 H   0  0  0  0  0  0  0  0  0  0  0  0
   -7.0580    3.4675  -38.4749 H   0  0  0  0  0  0  0  0  0  0  0  0
   -5.8424    6.8513  -38.3991 H   0  0  0  0  0  0  0  0  0  0  0  0
   -4.2271    6.2185  -38.0247 H   0  0  0  0  0  0  0  0  0  0  0  0
   -7.7724    5.0713  -36.9067 H   0  0  0  0  0  0  0  0  0  0  0  0
   -4.8085    5.3594  -35.9403 H   0  0  0  0  0  0  0  0  0  0  0  0
   -7.2140    4.3562  -34.8404 H   0  0  0  0  0  0  0  0  0  0  0  0
  1  3  1  0  0  0  0
  1  7  1  0  0  0  0
  2  4  1  0  0  0  0
  2  7  1  0  0  0  0
  3  4  1  0  0  0  0
  3  8  1  6  0  0  0
  4  9  1  1  0  0  0
  5  9  1  0  0  0  0
  6  9  2  0  0  0  0
  1 10  1  0  0  0  0
  1 11  1  0  0  0  0
  2 12  1  0  0  0  0
  2 13  1  0  0  0  0
  3 14  1  0  0  0  0
  4 15  1  0  0  0  0
  8 16  1  0  0  0  0
M  CHG  1   5  -1
M  END
> <id>
EN300-724711

> <smiles>
[Na+].O[C@@H]1COC[C@H]1S(=O)[O-] |&1:2,6,r|

> <IUPAC Name>
rac-sodium (3R,4R)-4-hydroxyoxolane-3-sulfinate

> <CAS>
2137439-90-6

> <URL>
https://www.enaminestore.com/catalog/EN300-724711

> <Saltdate>
[Na+]

> <ROCS_ShapeQuery>
hit0

> <ROCS_TanimotoCombo>
0.983 

> <ROCS_ShapeTanimoto>
0.556 

> <ROCS_ColorTanimoto>
0.426 

> <ROCS_RefTversky>
1.388 

> <ROCS_RefColorTversky>
0.507 

> <ROCS_RefTverskyCombo>
1.895 

> <ROCS_FitTversky>
0.481 

> <ROCS_FitColorTversky>
0.729 

> <ROCS_FitTverskyCombo>
1.211 

> <ROCS_ColorScore>
-2.990

> <ROCS_Overlap>
168.120

> <ROCS_Rank>
439                 

$$$$
untitled-dbase-94151_2
  -OEChem-06232314393D

 22 22  0     0  0  0  0  0  0999 V2000
   -5.3649    4.6376  -36.6272 C   0  0  0  0  0  0  0  0  0  0  0  0
   -5.6422    5.2229  -35.3918 C   0  0  0  0  0  0  0  0  0  0  0  0
   -6.4066    6.5079  -37.7470 C   0  0  0  0  0  0  0  0  0  0  0  0
   -6.6838    7.0932  -36.5116 C   0  0  0  0  0  0  0  0  0  0  0  0
   -5.7471    5.2801  -37.8048 C   0  0  0  0  0  0  0  0  0  0  0  0
   -6.3016    6.4506  -35.3340 C   0  0  0  0  0  0  0  0  0  0  0  0
   -7.7489    8.9983  -37.6934 C   0  0  0  0  0  0  0  0  0  0  0  0
   -7.6637    8.9554  -35.1955 C   0  0  0  0  0  0  0  0  0  0  0  0
   -7.3531    8.3358  -36.4675 N   0  0  0  0  0  0  0  0  0  0  0  0
   -5.4743    4.7095  -39.0101 O   0  0  0  0  0  0  0  0  0  0  0  0
   -6.5632    7.0062  -34.1170 O   0  0  0  0  0  0  0  0  0  0  0  0
   -4.8498    3.6816  -36.6658 H   0  0  0  0  0  0  0  0  0  0  0  0
   -5.3419    4.7166  -34.4783 H   0  0  0  0  0  0  0  0  0  0  0  0
   -6.7019    7.0051  -38.6681 H   0  0  0  0  0  0  0  0  0  0  0  0
   -8.2528    9.9459  -37.4524 H   0  0  0  0  0  0  0  0  0  0  0  0
   -6.8571    9.2023  -38.3042 H   0  0  0  0  0  0  0  0  0  0  0  0
   -8.4373    8.3495  -38.2548 H   0  0  0  0  0  0  0  0  0  0  0  0
   -8.1817    9.9102  -35.3689 H   0  0  0  0  0  0  0  0  0  0  0  0
   -8.3130    8.2870  -34.6111 H   0  0  0  0  0  0  0  0  0  0  0  0
   -6.7322    9.1394  -34.6402 H   0  0  0  0  0  0  0  0  0  0  0  0
   -5.0138    3.8644  -38.8856 H   0  0  0  0  0  0  0  0  0  0  0  0
   -6.2320    6.4319  -33.4092 H   0  0  0  0  0  0  0  0  0  0  0  0
  1  2  1  0  0  0  0
  1  5  2  0  0  0  0
  2  6  2  0  0  0  0
  3  4  2  0  0  0  0
  3  5  1  0  0  0  0
  4  6  1  0  0  0  0
  4  9  1  0  0  0  0
  5 10  1  0  0  0  0
  6 11  1  0  0  0  0
  7  9  1  0  0  0  0
  8  9  1  0  0  0  0
  1 12  1  0  0  0  0
  2 13  1  0  0  0  0
  3 14  1  0  0  0  0
  7 15  1  0  0  0  0
  7 16  1  0  0  0  0
  7 17  1  0  0  0  0
  8 18  1  0  0  0  0
  8 19  1  0  0  0  0
  8 20  1  0  0  0  0
 10 21  1  0  0  0  0
 11 22  1  0  0  0  0
M  END
> <id>
EN300-7442044

> <smiles>
CN(C)C=1C=C(O)C=CC1O

> <MDLNUMBER>
MFCD24717802

> <IUPAC Name>
2-(dimethylamino)benzene-1,4-diol

> <CAS>
50564-14-2

> <Purity>
95

> <URL>
https://www.enaminestore.com/catalog/EN300-7442044

> <MP>
93-95

> <ROCS_ShapeQuery>
hit0

> <ROCS_TanimotoCombo>
0.982 

> <ROCS_ShapeTanimoto>
0.459 

> <ROCS_ColorTanimoto>
0.523 

> <ROCS_RefTversky>
1.450 

> <ROCS_RefColorTversky>
0.635 

> <ROCS_RefTverskyCombo>
2.085 

> <ROCS_FitTversky>
0.402 

> <ROCS_FitColorTversky>
0.748 

> <ROCS_FitTverskyCombo>
1.150 

> <ROCS_ColorScore>
-3.777

> <ROCS_Overlap>
183.886

> <ROCS_Rank>
440                 

$$$$
untitled-dbase-136852_8
  -OEChem-06232314393D

 18 18  0     0  0  0  0  0  0999 V2000
   -5.5167    4.5832  -36.6047 C   0  0  0  0  0  0  0  0  0  0  0  0
   -5.7925    5.1675  -35.3685 C   0  0  0  0  0  0  0  0  0  0  0  0
   -6.2662    6.5906  -37.7208 C   0  0  0  0  0  0  0  0  0  0  0  0
   -6.5420    7.1749  -36.4847 C   0  0  0  0  0  0  0  0  0  0  0  0
   -5.7535    5.2948  -37.7809 C   0  0  0  0  0  0  0  0  0  0  0  0
   -6.3052    6.4634  -35.3085 C   0  0  0  0  0  0  0  0  0  0  0  0
   -7.0894    8.5634  -36.4387 C   0  0  0  0  0  0  0  0  0  0  0  0
   -5.4747    4.7034  -39.0306 N   0  0  0  0  0  0  0  0  0  0  0  0
   -6.5684    7.0191  -34.0925 O   0  0  0  0  0  0  0  0  0  0  0  0
   -6.7172    9.1904  -35.2927 F   0  0  0  0  0  0  0  0  0  0  0  0
   -8.4476    8.5457  -36.4460 F   0  0  0  0  0  0  0  0  0  0  0  0
   -5.1178    3.5725  -36.6397 H   0  0  0  0  0  0  0  0  0  0  0  0
   -5.6047    4.6082  -34.4561 H   0  0  0  0  0  0  0  0  0  0  0  0
   -6.4513    7.1459  -38.6376 H   0  0  0  0  0  0  0  0  0  0  0  0
   -6.7553    9.1720  -37.2803 H   0  0  0  0  0  0  0  0  0  0  0  0
   -5.0637    3.7923  -39.0584 H   0  0  0  0  0  0  0  0  0  0  0  0
   -5.6042    5.2407  -39.8640 H   0  0  0  0  0  0  0  0  0  0  0  0
   -6.9181    7.9170  -34.2034 H   0  0  0  0  0  0  0  0  0  0  0  0
  1  2  1  0  0  0  0
  1  5  2  0  0  0  0
  2  6  2  0  0  0  0
  3  4  2  0  0  0  0
  3  5  1  0  0  0  0
  4  6  1  0  0  0  0
  4  7  1  0  0  0  0
  5  8  1  0  0  0  0
  6  9  1  0  0  0  0
  7 10  1  0  0  0  0
  7 11  1  0  0  0  0
  1 12  1  0  0  0  0
  2 13  1  0  0  0  0
  3 14  1  0  0  0  0
  7 15  1  0  0  0  0
  8 16  1  0  0  0  0
  8 17  1  0  0  0  0
  9 18  1  0  0  0  0
M  END
> <id>
EN300-345958

> <smiles>
NC=1C=CC(O)=C(C1)C(F)F

> <MDLNUMBER>
MFCD18873458

> <IUPAC Name>
4-amino-2-(difluoromethyl)phenol

> <CAS>
1341463-95-3

> <Purity>
95

> <URL>
https://www.enaminestore.com/catalog/EN300-345958

> <ROCS_ShapeQuery>
hit0

> <ROCS_TanimotoCombo>
0.982 

> <ROCS_ShapeTanimoto>
0.469 

> <ROCS_ColorTanimoto>
0.513 

> <ROCS_RefTversky>
1.481 

> <ROCS_RefColorTversky>
0.627 

> <ROCS_RefTverskyCombo>
2.108 

> <ROCS_FitTversky>
0.407 

> <ROCS_FitColorTversky>
0.739 

> <ROCS_FitTverskyCombo>
1.146 

> <ROCS_ColorScore>
-3.731

> <ROCS_Overlap>
188.192

> <ROCS_Rank>
441                 

$$$$
untitled-dbase-160602_2
  -OEChem-06232314393D

 16 16  0     0  0  0  0  0  0999 V2000
   -7.0789    7.3916  -34.9512 C   0  0  0  0  0  0  0  0  0  0  0  0
   -7.3250    6.0279  -34.8373 C   0  0  0  0  0  0  0  0  0  0  0  0
   -6.1543    7.8072  -35.8958 C   0  0  0  0  0  0  0  0  0  0  0  0
   -6.6485    5.1340  -35.6599 C   0  0  0  0  0  0  0  0  0  0  0  0
   -5.7433    5.6506  -36.5729 C   0  0  0  0  0  0  0  0  0  0  0  0
   -4.9889    4.7338  -37.4787 C   0  0  0  0  0  0  0  0  0  0  0  0
   -5.4778    6.9688  -36.7125 N   0  0  0  0  0  0  0  0  0  0  0  0
   -6.8791    3.8004  -35.5555 O   0  0  0  0  0  0  0  0  0  0  0  0
   -5.5365    4.8108  -38.7884 O   0  0  0  0  0  0  0  0  0  0  0  0
   -7.5948    8.1064  -34.3202 H   0  0  0  0  0  0  0  0  0  0  0  0
   -8.0424    5.6691  -34.1048 H   0  0  0  0  0  0  0  0  0  0  0  0
   -5.9258    8.8602  -36.0236 H   0  0  0  0  0  0  0  0  0  0  0  0
   -3.9258    5.0045  -37.5249 H   0  0  0  0  0  0  0  0  0  0  0  0
   -5.0505    3.6948  -37.1293 H   0  0  0  0  0  0  0  0  0  0  0  0
   -7.5396    3.6225  -34.8653 H   0  0  0  0  0  0  0  0  0  0  0  0
   -5.4453    5.7335  -39.0759 H   0  0  0  0  0  0  0  0  0  0  0  0
  1  2  1  0  0  0  0
  1  3  2  0  0  0  0
  2  4  2  0  0  0  0
  3  7  1  0  0  0  0
  4  5  1  0  0  0  0
  4  8  1  0  0  0  0
  5  6  1  0  0  0  0
  5  7  2  0  0  0  0
  6  9  1  0  0  0  0
  1 10  1  0  0  0  0
  2 11  1  0  0  0  0
  3 12  1  0  0  0  0
  6 13  1  0  0  0  0
  6 14  1  0  0  0  0
  8 15  1  0  0  0  0
  9 16  1  0  0  0  0
M  END
> <id>
EN300-214025

> <smiles>
Cl.OCC=1N=CC=CC1O

> <MDLNUMBER>
MFCD00006349

> <IUPAC Name>
2-(hydroxymethyl)pyridin-3-ol hydrochloride

> <CAS>
14173-30-9

> <Purity>
95

> <URL>
https://www.enaminestore.com/catalog/EN300-214025

> <Saltdate>
Cl

> <MP>
209-211

> <ROCS_ShapeQuery>
hit0

> <ROCS_TanimotoCombo>
0.982 

> <ROCS_ShapeTanimoto>
0.482 

> <ROCS_ColorTanimoto>
0.500 

> <ROCS_RefTversky>
1.325 

> <ROCS_RefColorTversky>
0.667 

> <ROCS_RefTverskyCombo>
1.991 

> <ROCS_FitTversky>
0.431 

> <ROCS_FitColorTversky>
0.666 

> <ROCS_FitTverskyCombo>
1.098 

> <ROCS_ColorScore>
-4.000

> <ROCS_Overlap>
162.361

> <ROCS_Rank>
442                 

$$$$
untitled-dbase-55328_2
  -OEChem-06232314393D

 16 16  0     0  0  0  0  0  0999 V2000
   -7.0789    7.3916  -34.9512 C   0  0  0  0  0  0  0  0  0  0  0  0
   -7.3250    6.0279  -34.8373 C   0  0  0  0  0  0  0  0  0  0  0  0
   -6.1543    7.8072  -35.8958 C   0  0  0  0  0  0  0  0  0  0  0  0
   -6.6485    5.1340  -35.6599 C   0  0  0  0  0  0  0  0  0  0  0  0
   -5.7433    5.6506  -36.5729 C   0  0  0  0  0  0  0  0  0  0  0  0
   -4.9889    4.7338  -37.4787 C   0  0  0  0  0  0  0  0  0  0  0  0
   -5.4778    6.9688  -36.7125 N   0  0  0  0  0  0  0  0  0  0  0  0
   -6.8791    3.8004  -35.5555 O   0  0  0  0  0  0  0  0  0  0  0  0
   -5.5365    4.8108  -38.7884 O   0  0  0  0  0  0  0  0  0  0  0  0
   -7.5948    8.1064  -34.3202 H   0  0  0  0  0  0  0  0  0  0  0  0
   -8.0424    5.6691  -34.1048 H   0  0  0  0  0  0  0  0  0  0  0  0
   -5.9258    8.8602  -36.0236 H   0  0  0  0  0  0  0  0  0  0  0  0
   -3.9258    5.0045  -37.5249 H   0  0  0  0  0  0  0  0  0  0  0  0
   -5.0505    3.6948  -37.1293 H   0  0  0  0  0  0  0  0  0  0  0  0
   -7.5396    3.6225  -34.8653 H   0  0  0  0  0  0  0  0  0  0  0  0
   -5.4453    5.7335  -39.0759 H   0  0  0  0  0  0  0  0  0  0  0  0
  1  2  1  0  0  0  0
  1  3  2  0  0  0  0
  2  4  2  0  0  0  0
  3  7  1  0  0  0  0
  4  5  1  0  0  0  0
  4  8  1  0  0  0  0
  5  6  1  0  0  0  0
  5  7  2  0  0  0  0
  6  9  1  0  0  0  0
  1 10  1  0  0  0  0
  2 11  1  0  0  0  0
  3 12  1  0  0  0  0
  6 13  1  0  0  0  0
  6 14  1  0  0  0  0
  8 15  1  0  0  0  0
  9 16  1  0  0  0  0
M  END
> <id>
EN300-207842

> <smiles>
OCC=1N=CC=CC1O

> <MDLNUMBER>
MFCD00128114

> <IUPAC Name>
2-(hydroxymethyl)pyridin-3-ol

> <CAS>
14047-53-1

> <URL>
https://www.enaminestore.com/catalog/EN300-207842

> <ROCS_ShapeQuery>
hit0

> <ROCS_TanimotoCombo>
0.982 

> <ROCS_ShapeTanimoto>
0.482 

> <ROCS_ColorTanimoto>
0.500 

> <ROCS_RefTversky>
1.325 

> <ROCS_RefColorTversky>
0.667 

> <ROCS_RefTverskyCombo>
1.991 

> <ROCS_FitTversky>
0.431 

> <ROCS_FitColorTversky>
0.666 

> <ROCS_FitTverskyCombo>
1.098 

> <ROCS_ColorScore>
-4.000

> <ROCS_Overlap>
162.361

> <ROCS_Rank>
443                 

$$$$
untitled-dbase-147095_8
  -OEChem-06232314393D

 19 19  0     1  0  0  0  0  0999 V2000
   -6.3212    6.8357  -35.1513 C   0  0  0  0  0  0  0  0  0  0  0  0
   -7.2374    5.3697  -36.9399 C   0  0  0  0  0  0  0  0  0  0  0  0
   -6.0975    6.2763  -36.4899 C   0  0  2  0  0  0  0  0  0  0  0  0
   -6.7115    3.9754  -36.6757 C   0  0  1  0  0  0  0  0  0  0  0  0
   -5.2093    4.1284  -36.8543 C   0  0  1  0  0  0  0  0  0  0  0  0
   -4.7594    3.9222  -38.2952 C   0  0  0  0  0  0  0  0  0  0  0  0
   -6.4980    7.2778  -34.0932 N   0  0  0  0  0  0  0  0  0  0  0  0
   -4.8987    5.4833  -36.4804 O   0  0  0  0  0  0  0  0  0  0  0  0
   -7.0091    3.5914  -35.3358 O   0  0  0  0  0  0  0  0  0  0  0  0
   -5.4087    4.8768  -39.1190 O   0  0  0  0  0  0  0  0  0  0  0  0
   -8.1601    5.5452  -36.3584 H   0  0  0  0  0  0  0  0  0  0  0  0
   -7.5128    5.5287  -37.9945 H   0  0  0  0  0  0  0  0  0  0  0  0
   -5.9425    7.0852  -37.2109 H   0  0  0  0  0  0  0  0  0  0  0  0
   -7.1484    3.2562  -37.3595 H   0  0  0  0  0  0  0  0  0  0  0  0
   -4.6550    3.4562  -36.2079 H   0  0  0  0  0  0  0  0  0  0  0  0
   -5.0259    2.9189  -38.6360 H   0  0  0  0  0  0  0  0  0  0  0  0
   -3.6784    4.0575  -38.3785 H   0  0  0  0  0  0  0  0  0  0  0  0
   -6.6559    2.6933  -35.2069 H   0  0  0  0  0  0  0  0  0  0  0  0
   -5.1030    4.7209  -40.0281 H   0  0  0  0  0  0  0  0  0  0  0  0
  1  3  1  6  0  0  0
  1  7  3  0  0  0  0
  2  3  1  0  0  0  0
  2  4  1  0  0  0  0
  3  8  1  0  0  0  0
  4  5  1  0  0  0  0
  4  9  1  6  0  0  0
  5  6  1  1  0  0  0
  5  8  1  0  0  0  0
  6 10  1  0  0  0  0
  2 11  1  0  0  0  0
  2 12  1  0  0  0  0
  3 13  1  0  0  0  0
  4 14  1  0  0  0  0
  5 15  1  0  0  0  0
  6 16  1  0  0  0  0
  6 17  1  0  0  0  0
  9 18  1  0  0  0  0
 10 19  1  0  0  0  0
M  END
> <id>
EN300-24737035

> <smiles>
OC[C@H]1O[C@@H](C[C@@H]1O)C#N

> <MDLNUMBER>
MFCD34168225

> <IUPAC Name>
(2S,4S,5R)-4-hydroxy-5-(hydroxymethyl)oxolane-2-carbonitrile

> <CAS>
50908-43-5

> <Purity>
95

> <URL>
https://www.enaminestore.com/catalog/EN300-24737035

> <ROCS_ShapeQuery>
hit0

> <ROCS_TanimotoCombo>
0.982 

> <ROCS_ShapeTanimoto>
0.468 

> <ROCS_ColorTanimoto>
0.514 

> <ROCS_RefTversky>
1.359 

> <ROCS_RefColorTversky>
0.730 

> <ROCS_RefTverskyCombo>
2.088 

> <ROCS_FitTversky>
0.416 

> <ROCS_FitColorTversky>
0.635 

> <ROCS_FitTverskyCombo>
1.052 

> <ROCS_ColorScore>
-4.414

> <ROCS_Overlap>
168.551

> <ROCS_Rank>
444                 

$$$$
untitled-dbase-81840_3
  -OEChem-06232314393D

 13 12  0     0  0  0  0  0  0999 V2000
   -6.7573    6.9719  -35.4872 C   0  0  0  0  0  0  0  0  0  0  0  0
   -7.4272    8.1444  -36.1508 C   0  0  0  0  0  0  0  0  0  0  0  0
   -5.8909    4.7031  -35.9584 C   0  0  0  0  0  0  0  0  0  0  0  0
   -6.5137    5.9364  -36.3728 N   0  0  0  0  0  0  0  0  0  0  0  0
   -6.4844    6.9678  -34.2897 O   0  0  0  0  0  0  0  0  0  0  0  0
   -6.8923    3.7867  -35.5611 O   0  0  0  0  0  0  0  0  0  0  0  0
   -8.5143    8.0356  -36.0994 H   0  0  0  0  0  0  0  0  0  0  0  0
   -7.1283    8.1938  -37.2015 H   0  0  0  0  0  0  0  0  0  0  0  0
   -7.1288    9.0690  -35.6492 H   0  0  0  0  0  0  0  0  0  0  0  0
   -5.3289    4.2884  -36.7999 H   0  0  0  0  0  0  0  0  0  0  0  0
   -5.2079    4.8951  -35.1253 H   0  0  0  0  0  0  0  0  0  0  0  0
   -6.7822    6.0486  -37.3459 H   0  0  0  0  0  0  0  0  0  0  0  0
   -7.3732    4.1973  -34.8228 H   0  0  0  0  0  0  0  0  0  0  0  0
  1  2  1  0  0  0  0
  1  4  1  0  0  0  0
  1  5  2  0  0  0  0
  3  4  1  0  0  0  0
  3  6  1  0  0  0  0
  2  7  1  0  0  0  0
  2  8  1  0  0  0  0
  2  9  1  0  0  0  0
  3 10  1  0  0  0  0
  3 11  1  0  0  0  0
  4 12  1  0  0  0  0
  6 13  1  0  0  0  0
M  END
> <id>
EN300-97672

> <smiles>
CC(=O)NCO

> <MDLNUMBER>
MFCD00014417

> <IUPAC Name>
N-(hydroxymethyl)acetamide

> <CAS>
625-51-4

> <Purity>
95

> <URL>
https://www.enaminestore.com/catalog/EN300-97672

> <MP>
55-56

> <ROCS_ShapeQuery>
hit0

> <ROCS_TanimotoCombo>
0.982 

> <ROCS_ShapeTanimoto>
0.553 

> <ROCS_ColorTanimoto>
0.429 

> <ROCS_RefTversky>
1.049 

> <ROCS_RefColorTversky>
0.509 

> <ROCS_RefTverskyCombo>
1.558 

> <ROCS_FitTversky>
0.539 

> <ROCS_FitColorTversky>
0.731 

> <ROCS_FitTverskyCombo>
1.270 

> <ROCS_ColorScore>
-3.004

> <ROCS_Overlap>
120.034

> <ROCS_Rank>
445                 

$$$$
untitled-dbase-55800_2
  -OEChem-06232314393D

 18 18  0     0  0  0  0  0  0999 V2000
   -5.0117    6.4808  -36.4651 C   0  0  0  0  0  0  0  0  0  0  0  0
   -4.8569    6.1909  -37.8206 C   0  0  0  0  0  0  0  0  0  0  0  0
   -6.1379    4.1627  -37.5331 C   0  0  0  0  0  0  0  0  0  0  0  0
   -5.7295    5.6117  -35.6435 C   0  0  0  0  0  0  0  0  0  0  0  0
   -5.4200    5.0319  -38.3547 C   0  0  0  0  0  0  0  0  0  0  0  0
   -6.2927    4.4527  -36.1775 C   0  0  0  0  0  0  0  0  0  0  0  0
   -5.8858    5.9386  -34.1952 C   0  0  0  0  0  0  0  0  0  0  0  0
   -5.2681    4.7489  -39.6771 O   0  0  0  0  0  0  0  0  0  0  0  0
   -6.9968    3.5933  -35.3888 O   0  0  0  0  0  0  0  0  0  0  0  0
   -6.5532    7.1871  -34.0636 O   0  0  0  0  0  0  0  0  0  0  0  0
   -4.5698    7.3867  -36.0580 H   0  0  0  0  0  0  0  0  0  0  0  0
   -4.2970    6.8718  -38.4559 H   0  0  0  0  0  0  0  0  0  0  0  0
   -6.5759    3.2590  -37.9496 H   0  0  0  0  0  0  0  0  0  0  0  0
   -6.4710    5.1700  -33.6732 H   0  0  0  0  0  0  0  0  0  0  0  0
   -4.9093    6.0049  -33.6974 H   0  0  0  0  0  0  0  0  0  0  0  0
   -4.7476    5.4431  -40.1122 H   0  0  0  0  0  0  0  0  0  0  0  0
   -7.3177    2.8434  -35.9138 H   0  0  0  0  0  0  0  0  0  0  0  0
   -6.6343    7.3618  -33.1122 H   0  0  0  0  0  0  0  0  0  0  0  0
  1  2  1  0  0  0  0
  1  4  2  0  0  0  0
  2  5  2  0  0  0  0
  3  5  1  0  0  0  0
  3  6  2  0  0  0  0
  4  6  1  0  0  0  0
  4  7  1  0  0  0  0
  5  8  1  0  0  0  0
  6  9  1  0  0  0  0
  7 10  1  0  0  0  0
  1 11  1  0  0  0  0
  2 12  1  0  0  0  0
  3 13  1  0  0  0  0
  7 14  1  0  0  0  0
  7 15  1  0  0  0  0
  8 16  1  0  0  0  0
  9 17  1  0  0  0  0
 10 18  1  0  0  0  0
M  END
> <id>
EN300-1263449

> <smiles>
OCC=1C=CC(O)=CC1O

> <MDLNUMBER>
MFCD06202630

> <IUPAC Name>
4-(hydroxymethyl)benzene-1,3-diol

> <CAS>
33617-59-3

> <Purity>
95

> <URL>
https://www.enaminestore.com/catalog/EN300-1263449

> <MP>
128-130

> <ROCS_ShapeQuery>
hit0

> <ROCS_TanimotoCombo>
0.982 

> <ROCS_ShapeTanimoto>
0.464 

> <ROCS_ColorTanimoto>
0.518 

> <ROCS_RefTversky>
1.379 

> <ROCS_RefColorTversky>
0.733 

> <ROCS_RefTverskyCombo>
2.112 

> <ROCS_FitTversky>
0.411 

> <ROCS_FitColorTversky>
0.638 

> <ROCS_FitTverskyCombo>
1.049 

> <ROCS_ColorScore>
-4.438

> <ROCS_Overlap>
172.021

> <ROCS_Rank>
446                 

$$$$
untitled-dbase-88637_0
  -OEChem-06232314393D

 13 13  0     0  0  0  0  0  0999 V2000
   -5.8638    6.2069  -36.7673 C   0  0  0  0  0  0  0  0  0  0  0  0
   -6.3890    5.7891  -35.5323 C   0  0  0  0  0  0  0  0  0  0  0  0
   -5.8843    5.0703  -37.5313 C   0  0  0  0  0  0  0  0  0  0  0  0
   -6.2408    7.9003  -34.4477 C   0  0  0  0  0  0  0  0  0  0  0  0
   -6.7107    4.4924  -35.5306 N   0  0  0  0  0  0  0  0  0  0  0  0
   -6.3877    4.0402  -36.8043 O   0  0  0  0  0  0  0  0  0  0  0  0
   -5.5338    4.7755  -38.7701 O   0  0  0  0  0  0  0  0  0  0  0  0
   -6.5927    6.5075  -34.4205 O   0  0  0  0  0  0  0  0  0  0  0  0
   -5.5214    7.1883  -37.0596 H   0  0  0  0  0  0  0  0  0  0  0  0
   -6.4617    8.3517  -33.4773 H   0  0  0  0  0  0  0  0  0  0  0  0
   -6.8079    8.4050  -35.2339 H   0  0  0  0  0  0  0  0  0  0  0  0
   -5.1721    7.9929  -34.6552 H   0  0  0  0  0  0  0  0  0  0  0  0
   -5.6928    3.8287  -38.9914 H   0  0  0  0  0  0  0  0  0  0  0  0
  1  2  1  0  0  0  0
  1  3  2  0  0  0  0
  2  5  2  0  0  0  0
  2  8  1  0  0  0  0
  3  6  1  0  0  0  0
  3  7  1  0  0  0  0
  4  8  1  0  0  0  0
  5  6  1  0  0  0  0
  1  9  1  0  0  0  0
  4 10  1  0  0  0  0
  4 11  1  0  0  0  0
  4 12  1  0  0  0  0
  7 13  1  0  0  0  0
M  END
> <id>
EN300-1730042

> <smiles>
COC=1C=C(O)ON1

> <MDLNUMBER>
MFCD32761737

> <IUPAC Name>
3-methoxy-1,2-oxazol-5-ol

> <CAS>
2229230-07-1

> <URL>
https://www.enaminestore.com/catalog/EN300-1730042

> <ROCS_ShapeQuery>
hit0

> <ROCS_TanimotoCombo>
0.981 

> <ROCS_ShapeTanimoto>
0.528 

> <ROCS_ColorTanimoto>
0.453 

> <ROCS_RefTversky>
1.322 

> <ROCS_RefColorTversky>
0.577 

> <ROCS_RefTverskyCombo>
1.899 

> <ROCS_FitTversky>
0.468 

> <ROCS_FitColorTversky>
0.679 

> <ROCS_FitTverskyCombo>
1.147 

> <ROCS_ColorScore>
-3.435

> <ROCS_Overlap>
159.566

> <ROCS_Rank>
447                 

$$$$
untitled-dbase-57092_0
  -OEChem-06232314393D

 14 14  0     0  0  0  0  0  0999 V2000
   -6.7768    3.7333  -35.7580 C   0  0  0  0  0  0  0  0  0  0  0  0
   -6.1450    4.9076  -35.4318 C   0  0  0  0  0  0  0  0  0  0  0  0
   -5.9533    4.5188  -37.5266 C   0  0  0  0  0  0  0  0  0  0  0  0
   -5.9468    5.6654  -34.1924 C   0  0  0  0  0  0  0  0  0  0  0  0
   -6.6508    3.4896  -37.1017 N   0  0  0  0  0  0  0  0  0  0  0  0
   -5.5331    4.8002  -38.7815 N   0  0  0  0  0  0  0  0  0  0  0  0
   -5.6076    5.4250  -36.5715 O   0  0  0  0  0  0  0  0  0  0  0  0
   -6.5157    6.9729  -34.3122 O   0  0  0  0  0  0  0  0  0  0  0  0
   -7.3107    3.0565  -35.1078 H   0  0  0  0  0  0  0  0  0  0  0  0
   -6.4158    5.1774  -33.3150 H   0  0  0  0  0  0  0  0  0  0  0  0
   -4.8752    5.7881  -33.9395 H   0  0  0  0  0  0  0  0  0  0  0  0
   -5.0280    5.6685  -39.0055 H   0  0  0  0  0  0  0  0  0  0  0  0
   -5.7803    4.2065  -39.5850 H   0  0  0  0  0  0  0  0  0  0  0  0
   -6.0584    7.4002  -35.0508 H   0  0  0  0  0  0  0  0  0  0  0  0
  1  2  2  0  0  0  0
  1  5  1  0  0  0  0
  2  4  1  0  0  0  0
  2  7  1  0  0  0  0
  3  5  2  0  0  0  0
  3  6  1  0  0  0  0
  3  7  1  0  0  0  0
  4  8  1  0  0  0  0
  1  9  1  0  0  0  0
  4 10  1  0  0  0  0
  4 11  1  0  0  0  0
  6 12  1  0  0  0  0
  6 13  1  0  0  0  0
  8 14  1  0  0  0  0
M  END
> <id>
EN300-1722027

> <smiles>
NC1=NC=C(CO)O1.OC(=O)C(F)(F)F

> <MDLNUMBER>
MFCD31666212

> <IUPAC Name>
(2-amino-1,3-oxazol-5-yl)methanol; trifluoroacetic acid

> <CAS>
2229212-33-1

> <Purity>
95

> <URL>
https://www.enaminestore.com/catalog/EN300-1722027

> <Saltdate>
OC(=O)C(F)(F)F

> <ROCS_ShapeQuery>
hit0

> <ROCS_TanimotoCombo>
0.981 

> <ROCS_ShapeTanimoto>
0.469 

> <ROCS_ColorTanimoto>
0.512 

> <ROCS_RefTversky>
1.218 

> <ROCS_RefColorTversky>
0.678 

> <ROCS_RefTverskyCombo>
1.896 

> <ROCS_FitTversky>
0.432 

> <ROCS_FitColorTversky>
0.677 

> <ROCS_FitTverskyCombo>
1.110 

> <ROCS_ColorScore>
-4.068

> <ROCS_Overlap>
146.885

> <ROCS_Rank>
448                 

$$$$
untitled-dbase-65145_0
  -OEChem-06232314393D

 14 14  0     0  0  0  0  0  0999 V2000
   -6.7768    3.7333  -35.7580 C   0  0  0  0  0  0  0  0  0  0  0  0
   -6.1450    4.9076  -35.4318 C   0  0  0  0  0  0  0  0  0  0  0  0
   -5.9533    4.5188  -37.5266 C   0  0  0  0  0  0  0  0  0  0  0  0
   -5.9468    5.6654  -34.1924 C   0  0  0  0  0  0  0  0  0  0  0  0
   -6.6508    3.4896  -37.1017 N   0  0  0  0  0  0  0  0  0  0  0  0
   -5.5331    4.8002  -38.7815 N   0  0  0  0  0  0  0  0  0  0  0  0
   -5.6076    5.4250  -36.5715 O   0  0  0  0  0  0  0  0  0  0  0  0
   -6.5157    6.9729  -34.3122 O   0  0  0  0  0  0  0  0  0  0  0  0
   -7.3107    3.0565  -35.1078 H   0  0  0  0  0  0  0  0  0  0  0  0
   -6.4158    5.1774  -33.3150 H   0  0  0  0  0  0  0  0  0  0  0  0
   -4.8752    5.7881  -33.9395 H   0  0  0  0  0  0  0  0  0  0  0  0
   -5.0280    5.6685  -39.0055 H   0  0  0  0  0  0  0  0  0  0  0  0
   -5.7803    4.2065  -39.5850 H   0  0  0  0  0  0  0  0  0  0  0  0
   -6.0584    7.4002  -35.0508 H   0  0  0  0  0  0  0  0  0  0  0  0
  1  2  2  0  0  0  0
  1  5  1  0  0  0  0
  2  4  1  0  0  0  0
  2  7  1  0  0  0  0
  3  5  2  0  0  0  0
  3  6  1  0  0  0  0
  3  7  1  0  0  0  0
  4  8  1  0  0  0  0
  1  9  1  0  0  0  0
  4 10  1  0  0  0  0
  4 11  1  0  0  0  0
  6 12  1  0  0  0  0
  6 13  1  0  0  0  0
  8 14  1  0  0  0  0
M  END
> <id>
EN300-1722028

> <smiles>
NC1=NC=C(CO)O1

> <MDLNUMBER>
MFCD19215928

> <IUPAC Name>
(2-amino-1,3-oxazol-5-yl)methanol

> <CAS>
1257146-28-3

> <URL>
https://www.enaminestore.com/catalog/EN300-1722028

> <ROCS_ShapeQuery>
hit0

> <ROCS_TanimotoCombo>
0.981 

> <ROCS_ShapeTanimoto>
0.469 

> <ROCS_ColorTanimoto>
0.512 

> <ROCS_RefTversky>
1.218 

> <ROCS_RefColorTversky>
0.678 

> <ROCS_RefTverskyCombo>
1.896 

> <ROCS_FitTversky>
0.432 

> <ROCS_FitColorTversky>
0.677 

> <ROCS_FitTverskyCombo>
1.110 

> <ROCS_ColorScore>
-4.068

> <ROCS_Overlap>
146.885

> <ROCS_Rank>
449                 

$$$$
untitled-dbase-121446_4
  -OEChem-06232314393D

 22 22  0     0  0  0  0  0  0999 V2000
   -5.8957    3.2663  -37.4721 C   0  0  0  0  0  0  0  0  0  0  0  0
   -5.3813    3.7606  -38.6599 C   0  0  0  0  0  0  0  0  0  0  0  0
   -5.9195    5.9221  -38.0975 C   0  0  0  0  0  0  0  0  0  0  0  0
   -6.4432    4.1740  -36.5723 C   0  0  0  0  0  0  0  0  0  0  0  0
   -6.4593    5.5291  -36.8834 C   0  0  0  0  0  0  0  0  0  0  0  0
   -8.8736    6.3628  -35.5109 C   0  0  0  0  0  0  0  0  0  0  0  0
   -7.2019    8.3215  -36.6401 C   0  0  0  0  0  0  0  0  0  0  0  0
   -5.3790    5.0697  -38.9970 N   0  0  0  0  0  0  0  0  0  0  0  0
   -6.9744    3.7098  -35.3512 N   0  0  0  0  0  0  0  0  0  0  0  0
   -6.4374    6.9041  -34.4664 O   0  0  0  0  0  0  0  0  0  0  0  0
   -7.1373    6.7374  -35.7912 P   0  0  0  0  0  0  0  0  0  0  0  0
   -5.8667    2.2026  -37.2607 H   0  0  0  0  0  0  0  0  0  0  0  0
   -4.9420    3.0946  -39.3952 H   0  0  0  0  0  0  0  0  0  0  0  0
   -5.9060    6.9664  -38.3922 H   0  0  0  0  0  0  0  0  0  0  0  0
   -9.3126    7.1013  -34.8355 H   0  0  0  0  0  0  0  0  0  0  0  0
   -9.4190    6.3819  -36.4578 H   0  0  0  0  0  0  0  0  0  0  0  0
   -8.9759    5.3707  -35.0643 H   0  0  0  0  0  0  0  0  0  0  0  0
   -7.6198    9.0848  -35.9790 H   0  0  0  0  0  0  0  0  0  0  0  0
   -6.1968    8.6269  -36.9413 H   0  0  0  0  0  0  0  0  0  0  0  0
   -7.8296    8.2440  -37.5314 H   0  0  0  0  0  0  0  0  0  0  0  0
   -7.3238    4.3716  -34.6879 H   0  0  0  0  0  0  0  0  0  0  0  0
   -6.9071    2.7372  -35.1284 H   0  0  0  0  0  0  0  0  0  0  0  0
  1  2  1  0  0  0  0
  1  4  2  0  0  0  0
  2  8  2  0  0  0  0
  3  5  2  0  0  0  0
  3  8  1  0  0  0  0
  4  5  1  0  0  0  0
  4  9  1  0  0  0  0
  5 11  1  0  0  0  0
  6 11  1  0  0  0  0
  7 11  1  0  0  0  0
 10 11  2  0  0  0  0
  1 12  1  0  0  0  0
  2 13  1  0  0  0  0
  3 14  1  0  0  0  0
  6 15  1  0  0  0  0
  6 16  1  0  0  0  0
  6 17  1  0  0  0  0
  7 18  1  0  0  0  0
  7 19  1  0  0  0  0
  7 20  1  0  0  0  0
  9 21  1  0  0  0  0
  9 22  1  0  0  0  0
M  END
> <id>
EN300-6489459

> <smiles>
CP(=O)(C)C=1C=NC=CC1N

> <MDLNUMBER>
MFCD31736908

> <IUPAC Name>
3-(dimethylphosphoryl)pyridin-4-amine

> <CAS>
2260937-83-3

> <Purity>
95

> <URL>
https://www.enaminestore.com/catalog/EN300-6489459

> <ROCS_ShapeQuery>
hit0

> <ROCS_TanimotoCombo>
0.981 

> <ROCS_ShapeTanimoto>
0.462 

> <ROCS_ColorTanimoto>
0.519 

> <ROCS_RefTversky>
1.397 

> <ROCS_RefColorTversky>
0.632 

> <ROCS_RefTverskyCombo>
2.029 

> <ROCS_FitTversky>
0.408 

> <ROCS_FitColorTversky>
0.744 

> <ROCS_FitTverskyCombo>
1.153 

> <ROCS_ColorScore>
-3.760

> <ROCS_Overlap>
175.045

> <ROCS_Rank>
450                 

$$$$
untitled-dbase-158453_18
  -OEChem-06232314393D

 20 20  0     1  0  0  0  0  0999 V2000
   -6.8035    6.3996  -35.5492 C   0  0  0  0  0  0  0  0  0  0  0  0
   -4.8183    5.1550  -36.3769 C   0  0  0  0  0  0  0  0  0  0  0  0
   -4.5801    4.3483  -37.6340 C   0  0  0  0  0  0  0  0  0  0  0  0
   -6.7455    5.2005  -37.7698 C   0  0  0  0  0  0  0  0  0  0  0  0
   -6.3288    5.1977  -36.3069 C   0  0  2  0  0  0  0  0  0  0  0  0
   -8.1095    8.3578  -35.7582 C   0  0  0  0  0  0  0  0  0  0  0  0
   -6.5185    6.6303  -34.3819 O   0  0  0  0  0  0  0  0  0  0  0  0
   -5.6374    4.6916  -38.5340 O   0  0  0  0  0  0  0  0  0  0  0  0
   -6.8066    4.0379  -35.6502 O   0  0  0  0  0  0  0  0  0  0  0  0
   -7.5849    7.1695  -36.3590 O   0  0  0  0  0  0  0  0  0  0  0  0
   -4.4108    4.6286  -35.5065 H   0  0  0  0  0  0  0  0  0  0  0  0
   -4.3409    6.1376  -36.4192 H   0  0  0  0  0  0  0  0  0  0  0  0
   -3.6327    4.6191  -38.1076 H   0  0  0  0  0  0  0  0  0  0  0  0
   -4.5860    3.2727  -37.4496 H   0  0  0  0  0  0  0  0  0  0  0  0
   -7.6060    4.5476  -37.9528 H   0  0  0  0  0  0  0  0  0  0  0  0
   -6.9989    6.1975  -38.1448 H   0  0  0  0  0  0  0  0  0  0  0  0
   -8.7174    8.8981  -36.4880 H   0  0  0  0  0  0  0  0  0  0  0  0
   -7.2853    8.9887  -35.4161 H   0  0  0  0  0  0  0  0  0  0  0  0
   -8.7315    8.0795  -34.9041 H   0  0  0  0  0  0  0  0  0  0  0  0
   -6.4447    4.0465  -34.7462 H   0  0  0  0  0  0  0  0  0  0  0  0
  1  5  1  0  0  0  0
  1  7  2  0  0  0  0
  1 10  1  0  0  0  0
  2  3  1  0  0  0  0
  2  5  1  0  0  0  0
  3  8  1  0  0  0  0
  4  5  1  0  0  0  0
  4  8  1  0  0  0  0
  5  9  1  0  0  0  0
  6 10  1  0  0  0  0
  2 11  1  0  0  0  0
  2 12  1  0  0  0  0
  3 13  1  0  0  0  0
  3 14  1  0  0  0  0
  4 15  1  0  0  0  0
  4 16  1  0  0  0  0
  6 17  1  0  0  0  0
  6 18  1  0  0  0  0
  6 19  1  0  0  0  0
  9 20  1  0  0  0  0
M  END
> <id>
EN300-106765

> <smiles>
COC(=O)C1(O)CCOC1

> <MDLNUMBER>
MFCD18333902

> <IUPAC Name>
methyl 3-hydroxyoxolane-3-carboxylate

> <CAS>
1342035-97-5

> <Purity>
95

> <URL>
https://www.enaminestore.com/catalog/EN300-106765

> <ROCS_ShapeQuery>
hit0

> <ROCS_TanimotoCombo>
0.981 

> <ROCS_ShapeTanimoto>
0.477 

> <ROCS_ColorTanimoto>
0.504 

> <ROCS_RefTversky>
1.403 

> <ROCS_RefColorTversky>
0.619 

> <ROCS_RefTverskyCombo>
2.022 

> <ROCS_FitTversky>
0.420 

> <ROCS_FitColorTversky>
0.730 

> <ROCS_FitTverskyCombo>
1.149 

> <ROCS_ColorScore>
-3.685

> <ROCS_Overlap>
174.925

> <ROCS_Rank>
451                 

$$$$
untitled-dbase-178272_0
  -OEChem-06232314393D

 17 17  0     0  0  0  0  0  0999 V2000
   -5.9690    5.9727  -36.5993 C   0  0  0  0  0  0  0  0  0  0  0  0
   -5.9927    4.8293  -37.3901 C   0  0  0  0  0  0  0  0  0  0  0  0
   -6.4328    5.9152  -35.2897 C   0  0  0  0  0  0  0  0  0  0  0  0
   -6.4860    3.6626  -36.8287 C   0  0  0  0  0  0  0  0  0  0  0  0
   -6.9066    4.6999  -34.8224 C   0  0  0  0  0  0  0  0  0  0  0  0
   -7.5682    7.8668  -34.5427 C   0  0  0  0  0  0  0  0  0  0  0  0
   -6.9452    3.5681  -35.5607 N   0  0  0  0  0  0  0  0  0  0  0  0
   -5.5241    4.8850  -38.7155 N   0  0  0  0  0  0  0  0  0  0  0  0
   -6.4111    7.0300  -34.5147 O   0  0  0  0  0  0  0  0  0  0  0  0
   -6.5703    2.1812  -37.7010 Cl  0  0  0  0  0  0  0  0  0  0  0  0
   -7.5045    4.5103  -33.2216 Cl  0  0  0  0  0  0  0  0  0  0  0  0
   -5.5906    6.9104  -36.9988 H   0  0  0  0  0  0  0  0  0  0  0  0
   -7.4169    8.7213  -33.8786 H   0  0  0  0  0  0  0  0  0  0  0  0
   -8.4417    7.2932  -34.2227 H   0  0  0  0  0  0  0  0  0  0  0  0
   -7.7235    8.2245  -35.5634 H   0  0  0  0  0  0  0  0  0  0  0  0
   -5.5002    4.0472  -39.2639 H   0  0  0  0  0  0  0  0  0  0  0  0
   -5.1330    5.7394  -39.0626 H   0  0  0  0  0  0  0  0  0  0  0  0
  1  2  1  0  0  0  0
  1  3  2  0  0  0  0
  2  4  2  0  0  0  0
  2  8  1  0  0  0  0
  3  5  1  0  0  0  0
  3  9  1  0  0  0  0
  4  7  1  0  0  0  0
  4 10  1  0  0  0  0
  5  7  2  0  0  0  0
  5 11  1  0  0  0  0
  6  9  1  0  0  0  0
  1 12  1  0  0  0  0
  6 13  1  0  0  0  0
  6 14  1  0  0  0  0
  6 15  1  0  0  0  0
  8 16  1  0  0  0  0
  8 17  1  0  0  0  0
M  END
> <id>
EN300-7696052

> <smiles>
COC=1C=C(N)C(Cl)=NC1Cl

> <MDLNUMBER>
MFCD09909850

> <IUPAC Name>
2,6-dichloro-5-methoxypyridin-3-amine

> <CAS>
720666-44-4

> <Purity>
95

> <URL>
https://www.enaminestore.com/catalog/EN300-7696052

> <ROCS_ShapeQuery>
hit0

> <ROCS_TanimotoCombo>
0.981 

> <ROCS_ShapeTanimoto>
0.440 

> <ROCS_ColorTanimoto>
0.541 

> <ROCS_RefTversky>
1.385 

> <ROCS_RefColorTversky>
0.649 

> <ROCS_RefTverskyCombo>
2.034 

> <ROCS_FitTversky>
0.392 

> <ROCS_FitColorTversky>
0.765 

> <ROCS_FitTverskyCombo>
1.157 

> <ROCS_ColorScore>
-3.863

> <ROCS_Overlap>
174.765

> <ROCS_Rank>
452                 

$$$$
untitled-dbase-170710_20
  -OEChem-06232314393D

 21 21  0     1  0  0  0  0  0999 V2000
   -6.1885    5.9391  -34.9126 C   0  0  0  0  0  0  0  0  0  0  0  0
   -6.4519    4.5641  -34.3360 C   0  0  0  0  0  0  0  0  0  0  0  0
   -6.1571    3.5416  -36.4733 C   0  0  0  0  0  0  0  0  0  0  0  0
   -5.0304    4.5781  -36.6020 C   0  0  1  0  0  0  0  0  0  0  0  0
   -5.0935    7.1121  -36.7990 C   0  0  0  0  0  0  0  0  0  0  0  0
   -4.4523    4.5520  -38.0167 C   0  0  0  0  0  0  0  0  0  0  0  0
   -5.5021    5.8857  -36.1293 N   0  0  0  0  0  0  0  0  0  0  0  0
   -6.5358    6.9598  -34.3236 O   0  0  0  0  0  0  0  0  0  0  0  0
   -6.9975    3.7231  -35.3329 O   0  0  0  0  0  0  0  0  0  0  0  0
   -5.4926    4.8483  -38.9273 O   0  0  0  0  0  0  0  0  0  0  0  0
   -5.5295    4.1562  -33.9888 H   0  0  0  0  0  0  0  0  0  0  0  0
   -7.1692    4.6545  -33.5520 H   0  0  0  0  0  0  0  0  0  0  0  0
   -6.8122    3.5715  -37.3773 H   0  0  0  0  0  0  0  0  0  0  0  0
   -5.7437    2.5005  -36.4647 H   0  0  0  0  0  0  0  0  0  0  0  0
   -4.2279    4.2404  -35.8914 H   0  0  0  0  0  0  0  0  0  0  0  0
   -4.0879    7.3993  -36.4578 H   0  0  0  0  0  0  0  0  0  0  0  0
   -5.0786    6.9484  -37.8866 H   0  0  0  0  0  0  0  0  0  0  0  0
   -5.8054    7.9156  -36.5589 H   0  0  0  0  0  0  0  0  0  0  0  0
   -4.0520    3.5632  -38.2298 H   0  0  0  0  0  0  0  0  0  0  0  0
   -3.6668    5.2993  -38.1048 H   0  0  0  0  0  0  0  0  0  0  0  0
   -5.1073    4.8273  -39.8206 H   0  0  0  0  0  0  0  0  0  0  0  0
  1  2  1  0  0  0  0
  1  7  1  0  0  0  0
  1  8  2  0  0  0  0
  2  9  1  0  0  0  0
  3  4  1  0  0  0  0
  3  9  1  0  0  0  0
  4  6  1  6  0  0  0
  4  7  1  0  0  0  0
  5  7  1  0  0  0  0
  6 10  1  0  0  0  0
  2 11  1  0  0  0  0
  2 12  1  0  0  0  0
  3 13  1  0  0  0  0
  3 14  1  0  0  0  0
  4 15  1  0  0  0  0
  5 16  1  0  0  0  0
  5 17  1  0  0  0  0
  5 18  1  0  0  0  0
  6 19  1  0  0  0  0
  6 20  1  0  0  0  0
 10 21  1  0  0  0  0
M  END
> <id>
EN300-7332578

> <smiles>
CN1[C@H](CO)COCC1=O

> <MDLNUMBER>
MFCD29111724

> <IUPAC Name>
(5R)-5-(hydroxymethyl)-4-methylmorpholin-3-one

> <CAS>
960402-19-1

> <Purity>
95

> <URL>
https://www.enaminestore.com/catalog/EN300-7332578

> <ROCS_ShapeQuery>
hit0

> <ROCS_TanimotoCombo>
0.981 

> <ROCS_ShapeTanimoto>
0.431 

> <ROCS_ColorTanimoto>
0.550 

> <ROCS_RefTversky>
1.291 

> <ROCS_RefColorTversky>
0.656 

> <ROCS_RefTverskyCombo>
1.947 

> <ROCS_FitTversky>
0.393 

> <ROCS_FitColorTversky>
0.773 

> <ROCS_FitTverskyCombo>
1.166 

> <ROCS_ColorScore>
-3.902

> <ROCS_Overlap>
160.373

> <ROCS_Rank>
453                 

$$$$
untitled-dbase-108981_0
  -OEChem-06232314393D

 21 21  0     0  0  0  0  0  0999 V2000
   -7.4228    3.5165  -35.0664 C   0  0  0  0  0  0  0  0  0  0  0  0
   -6.6186    3.3077  -36.1867 C   0  0  0  0  0  0  0  0  0  0  0  0
   -7.3946    4.7453  -34.4068 C   0  0  0  0  0  0  0  0  0  0  0  0
   -5.7859    4.3276  -36.6474 C   0  0  0  0  0  0  0  0  0  0  0  0
   -5.7575    5.5563  -35.9877 C   0  0  0  0  0  0  0  0  0  0  0  0
   -6.5619    5.7651  -34.8674 C   0  0  0  0  0  0  0  0  0  0  0  0
   -4.8625    6.6477  -36.4852 C   0  0  0  0  0  0  0  0  0  0  0  0
   -4.9348    4.0774  -37.8492 C   0  0  0  0  0  0  0  0  0  0  0  0
   -6.5482    7.0020  -34.1859 N   0  0  0  0  0  0  0  0  0  0  0  0
   -5.4935    4.7512  -38.9693 O   0  0  0  0  0  0  0  0  0  0  0  0
   -8.0716    2.7226  -34.7080 H   0  0  0  0  0  0  0  0  0  0  0  0
   -6.6480    2.3467  -36.6936 H   0  0  0  0  0  0  0  0  0  0  0  0
   -8.0262    4.8963  -33.5350 H   0  0  0  0  0  0  0  0  0  0  0  0
   -5.3930    7.2657  -37.2172 H   0  0  0  0  0  0  0  0  0  0  0  0
   -4.5272    7.2877  -35.6612 H   0  0  0  0  0  0  0  0  0  0  0  0
   -3.9641    6.2347  -36.9580 H   0  0  0  0  0  0  0  0  0  0  0  0
   -3.9103    4.4403  -37.6946 H   0  0  0  0  0  0  0  0  0  0  0  0
   -4.8754    3.0046  -38.0741 H   0  0  0  0  0  0  0  0  0  0  0  0
   -7.1694    7.1394  -33.4157 H   0  0  0  0  0  0  0  0  0  0  0  0
   -5.9874    7.7475  -34.5436 H   0  0  0  0  0  0  0  0  0  0  0  0
   -4.9143    4.5646  -39.7257 H   0  0  0  0  0  0  0  0  0  0  0  0
  1  2  1  0  0  0  0
  1  3  2  0  0  0  0
  2  4  2  0  0  0  0
  3  6  1  0  0  0  0
  4  5  1  0  0  0  0
  4  8  1  0  0  0  0
  5  6  2  0  0  0  0
  5  7  1  0  0  0  0
  6  9  1  0  0  0  0
  8 10  1  0  0  0  0
  1 11  1  0  0  0  0
  2 12  1  0  0  0  0
  3 13  1  0  0  0  0
  7 14  1  0  0  0  0
  7 15  1  0  0  0  0
  7 16  1  0  0  0  0
  8 17  1  0  0  0  0
  8 18  1  0  0  0  0
  9 19  1  0  0  0  0
  9 20  1  0  0  0  0
 10 21  1  0  0  0  0
M  END
> <id>
EN300-7705535

> <smiles>
Cl.CC=1C(N)=CC=CC1CO

> <MDLNUMBER>
MFCD32703479

> <IUPAC Name>
(3-amino-2-methylphenyl)methanol hydrochloride

> <CAS>
76350-88-4

> <Purity>
95

> <URL>
https://www.enaminestore.com/catalog/EN300-7705535

> <Saltdate>
Cl

> <MP>
193-195

> <ROCS_ShapeQuery>
hit0

> <ROCS_TanimotoCombo>
0.981 

> <ROCS_ShapeTanimoto>
0.437 

> <ROCS_ColorTanimoto>
0.544 

> <ROCS_RefTversky>
1.308 

> <ROCS_RefColorTversky>
0.651 

> <ROCS_RefTverskyCombo>
1.959 

> <ROCS_FitTversky>
0.396 

> <ROCS_FitColorTversky>
0.767 

> <ROCS_FitTverskyCombo>
1.163 

> <ROCS_ColorScore>
-3.874

> <ROCS_Overlap>
162.572

> <ROCS_Rank>
454                 

$$$$
untitled-dbase-28216_0
  -OEChem-06232314393D

 21 21  0     0  0  0  0  0  0999 V2000
   -7.4228    3.5165  -35.0664 C   0  0  0  0  0  0  0  0  0  0  0  0
   -6.6186    3.3077  -36.1867 C   0  0  0  0  0  0  0  0  0  0  0  0
   -7.3946    4.7453  -34.4068 C   0  0  0  0  0  0  0  0  0  0  0  0
   -5.7859    4.3276  -36.6474 C   0  0  0  0  0  0  0  0  0  0  0  0
   -5.7575    5.5563  -35.9877 C   0  0  0  0  0  0  0  0  0  0  0  0
   -6.5619    5.7651  -34.8674 C   0  0  0  0  0  0  0  0  0  0  0  0
   -4.8625    6.6477  -36.4852 C   0  0  0  0  0  0  0  0  0  0  0  0
   -4.9348    4.0774  -37.8492 C   0  0  0  0  0  0  0  0  0  0  0  0
   -6.5482    7.0020  -34.1859 N   0  0  0  0  0  0  0  0  0  0  0  0
   -5.4935    4.7512  -38.9693 O   0  0  0  0  0  0  0  0  0  0  0  0
   -8.0716    2.7226  -34.7080 H   0  0  0  0  0  0  0  0  0  0  0  0
   -6.6480    2.3467  -36.6936 H   0  0  0  0  0  0  0  0  0  0  0  0
   -8.0262    4.8963  -33.5350 H   0  0  0  0  0  0  0  0  0  0  0  0
   -5.3930    7.2657  -37.2172 H   0  0  0  0  0  0  0  0  0  0  0  0
   -4.5272    7.2877  -35.6612 H   0  0  0  0  0  0  0  0  0  0  0  0
   -3.9641    6.2347  -36.9580 H   0  0  0  0  0  0  0  0  0  0  0  0
   -3.9103    4.4403  -37.6946 H   0  0  0  0  0  0  0  0  0  0  0  0
   -4.8754    3.0046  -38.0741 H   0  0  0  0  0  0  0  0  0  0  0  0
   -7.1694    7.1394  -33.4157 H   0  0  0  0  0  0  0  0  0  0  0  0
   -5.9874    7.7475  -34.5436 H   0  0  0  0  0  0  0  0  0  0  0  0
   -4.9143    4.5646  -39.7257 H   0  0  0  0  0  0  0  0  0  0  0  0
  1  2  1  0  0  0  0
  1  3  2  0  0  0  0
  2  4  2  0  0  0  0
  3  6  1  0  0  0  0
  4  5  1  0  0  0  0
  4  8  1  0  0  0  0
  5  6  2  0  0  0  0
  5  7  1  0  0  0  0
  6  9  1  0  0  0  0
  8 10  1  0  0  0  0
  1 11  1  0  0  0  0
  2 12  1  0  0  0  0
  3 13  1  0  0  0  0
  7 14  1  0  0  0  0
  7 15  1  0  0  0  0
  7 16  1  0  0  0  0
  8 17  1  0  0  0  0
  8 18  1  0  0  0  0
  9 19  1  0  0  0  0
  9 20  1  0  0  0  0
 10 21  1  0  0  0  0
M  END
> <id>
EN300-101243

> <smiles>
CC=1C(N)=CC=CC1CO

> <MDLNUMBER>
MFCD00075028

> <IUPAC Name>
(3-amino-2-methylphenyl)methanol

> <CAS>
83647-42-1

> <Purity>
95

> <URL>
https://www.enaminestore.com/catalog/EN300-101243

> <MP>
106-108

> <ROCS_ShapeQuery>
hit0

> <ROCS_TanimotoCombo>
0.981 

> <ROCS_ShapeTanimoto>
0.437 

> <ROCS_ColorTanimoto>
0.544 

> <ROCS_RefTversky>
1.308 

> <ROCS_RefColorTversky>
0.651 

> <ROCS_RefTverskyCombo>
1.959 

> <ROCS_FitTversky>
0.396 

> <ROCS_FitColorTversky>
0.767 

> <ROCS_FitTverskyCombo>
1.163 

> <ROCS_ColorScore>
-3.874

> <ROCS_Overlap>
162.572

> <ROCS_Rank>
455                 

$$$$
untitled-dbase-168502_5
  -OEChem-06232314393D

 13 12  0     1  0  0  0  0  0999 V2000
   -6.0192    4.9837  -37.6304 C   0  0  0  0  0  0  0  0  0  0  0  0
   -5.7849    6.2017  -35.4734 C   0  0  0  0  0  0  0  0  0  0  0  0
   -6.6139    5.2232  -36.3072 C   0  0  2  0  0  0  0  0  0  0  0  0
   -5.5518    4.7971  -38.6761 N   0  0  0  0  0  0  0  0  0  0  0  0
   -6.5248    6.8113  -34.3985 N   0  0  0  0  0  0  0  0  0  0  0  0
   -6.8155    3.9725  -35.6187 N   0  0  0  0  0  0  0  0  0  0  0  0
   -5.4066    7.0176  -36.0984 H   0  0  0  0  0  0  0  0  0  0  0  0
   -4.9268    5.6925  -35.0210 H   0  0  0  0  0  0  0  0  0  0  0  0
   -7.6131    5.6533  -36.4430 H   0  0  0  0  0  0  0  0  0  0  0  0
   -5.9178    7.4085  -33.8762 H   0  0  0  0  0  0  0  0  0  0  0  0
   -7.2776    7.3471  -34.7782 H   0  0  0  0  0  0  0  0  0  0  0  0
   -6.4637    3.2265  -36.1815 H   0  0  0  0  0  0  0  0  0  0  0  0
   -6.3289    3.9951  -34.7471 H   0  0  0  0  0  0  0  0  0  0  0  0
  1  3  1  0  0  0  0
  1  4  3  0  0  0  0
  2  3  1  0  0  0  0
  2  5  1  0  0  0  0
  3  6  1  0  0  0  0
  2  7  1  0  0  0  0
  2  8  1  0  0  0  0
  3  9  1  0  0  0  0
  5 10  1  0  0  0  0
  5 11  1  0  0  0  0
  6 12  1  0  0  0  0
  6 13  1  0  0  0  0
M  END
> <id>
EN300-125166

> <smiles>
Cl.Cl.NCC(N)C#N

> <MDLNUMBER>
MFCD23144311

> <IUPAC Name>
2,3-diaminopropanenitrile dihydrochloride

> <CAS>
1427379-73-4

> <Purity>
95

> <URL>
https://www.enaminestore.com/catalog/EN300-125166

> <Saltdate>
Cl

> <ROCS_ShapeQuery>
hit0

> <ROCS_TanimotoCombo>
0.980 

> <ROCS_ShapeTanimoto>
0.618 

> <ROCS_ColorTanimoto>
0.363 

> <ROCS_RefTversky>
1.111 

> <ROCS_RefColorTversky>
0.492 

> <ROCS_RefTverskyCombo>
1.604 

> <ROCS_FitTversky>
0.582 

> <ROCS_FitColorTversky>
0.580 

> <ROCS_FitTverskyCombo>
1.162 

> <ROCS_ColorScore>
-2.930

> <ROCS_Overlap>
126.946

> <ROCS_Rank>
456                 

$$$$
untitled-dbase-57524_5
  -OEChem-06232314393D

 13 12  0     1  0  0  0  0  0999 V2000
   -6.0192    4.9837  -37.6304 C   0  0  0  0  0  0  0  0  0  0  0  0
   -5.7849    6.2017  -35.4734 C   0  0  0  0  0  0  0  0  0  0  0  0
   -6.6139    5.2232  -36.3072 C   0  0  2  0  0  0  0  0  0  0  0  0
   -5.5518    4.7971  -38.6761 N   0  0  0  0  0  0  0  0  0  0  0  0
   -6.5248    6.8113  -34.3985 N   0  0  0  0  0  0  0  0  0  0  0  0
   -6.8155    3.9725  -35.6187 N   0  0  0  0  0  0  0  0  0  0  0  0
   -5.4066    7.0176  -36.0984 H   0  0  0  0  0  0  0  0  0  0  0  0
   -4.9268    5.6925  -35.0210 H   0  0  0  0  0  0  0  0  0  0  0  0
   -7.6131    5.6533  -36.4430 H   0  0  0  0  0  0  0  0  0  0  0  0
   -5.9178    7.4085  -33.8762 H   0  0  0  0  0  0  0  0  0  0  0  0
   -7.2776    7.3471  -34.7782 H   0  0  0  0  0  0  0  0  0  0  0  0
   -6.4637    3.2265  -36.1815 H   0  0  0  0  0  0  0  0  0  0  0  0
   -6.3289    3.9951  -34.7471 H   0  0  0  0  0  0  0  0  0  0  0  0
  1  3  1  0  0  0  0
  1  4  3  0  0  0  0
  2  3  1  0  0  0  0
  2  5  1  0  0  0  0
  3  6  1  0  0  0  0
  2  7  1  0  0  0  0
  2  8  1  0  0  0  0
  3  9  1  0  0  0  0
  5 10  1  0  0  0  0
  5 11  1  0  0  0  0
  6 12  1  0  0  0  0
  6 13  1  0  0  0  0
M  END
> <id>
EN300-150563

> <smiles>
NCC(N)C#N

> <MDLNUMBER>
MFCD19206128

> <IUPAC Name>
2,3-diaminopropanenitrile

> <CAS>
145277-91-4

> <URL>
https://www.enaminestore.com/catalog/EN300-150563

> <ROCS_ShapeQuery>
hit0

> <ROCS_TanimotoCombo>
0.980 

> <ROCS_ShapeTanimoto>
0.618 

> <ROCS_ColorTanimoto>
0.363 

> <ROCS_RefTversky>
1.111 

> <ROCS_RefColorTversky>
0.492 

> <ROCS_RefTverskyCombo>
1.604 

> <ROCS_FitTversky>
0.582 

> <ROCS_FitColorTversky>
0.580 

> <ROCS_FitTverskyCombo>
1.162 

> <ROCS_ColorScore>
-2.930

> <ROCS_Overlap>
126.946

> <ROCS_Rank>
457                 

$$$$
untitled-dbase-19813_12
  -OEChem-06232314393D

 19 19  0     1  0  0  0  0  0999 V2000
   -5.3498    4.9302  -37.7038 C   0  0  0  0  0  0  0  0  0  0  0  0
   -7.4090    6.1296  -36.1448 C   0  0  0  0  0  0  0  0  0  0  0  0
   -7.0990    7.4323  -35.4321 C   0  0  0  0  0  0  0  0  0  0  0  0
   -6.2709    5.6199  -34.1352 C   0  0  0  0  0  0  0  0  0  0  0  0
   -6.3687    5.1685  -35.5879 C   0  0  2  0  0  0  0  0  0  0  0  0
   -5.0304    5.2643  -36.3209 C   0  0  0  0  0  0  0  0  0  0  0  0
   -5.5765    4.6673  -38.8112 N   0  0  0  0  0  0  0  0  0  0  0  0
   -6.5556    7.0601  -34.1204 N   0  0  0  0  0  0  0  0  0  0  0  0
   -6.8423    3.8317  -35.6554 O   0  0  0  0  0  0  0  0  0  0  0  0
   -8.4258    5.7973  -35.9281 H   0  0  0  0  0  0  0  0  0  0  0  0
   -7.3029    6.2709  -37.2221 H   0  0  0  0  0  0  0  0  0  0  0  0
   -6.3513    8.0075  -35.9949 H   0  0  0  0  0  0  0  0  0  0  0  0
   -7.9889    8.0626  -35.3189 H   0  0  0  0  0  0  0  0  0  0  0  0
   -6.9891    5.0899  -33.4739 H   0  0  0  0  0  0  0  0  0  0  0  0
   -5.2549    5.4397  -33.7188 H   0  0  0  0  0  0  0  0  0  0  0  0
   -4.3340    4.5587  -35.8799 H   0  0  0  0  0  0  0  0  0  0  0  0
   -4.6443    6.2736  -36.2224 H   0  0  0  0  0  0  0  0  0  0  0  0
   -5.7034    7.5966  -33.9176 H   0  0  0  0  0  0  0  0  0  0  0  0
   -7.6515    3.8031  -35.1241 H   0  0  0  0  0  0  0  0  0  0  0  0
  1  6  1  0  0  0  0
  1  7  3  0  0  0  0
  2  3  1  0  0  0  0
  2  5  1  0  0  0  0
  3  8  1  0  0  0  0
  4  5  1  0  0  0  0
  4  8  1  0  0  0  0
  5  6  1  0  0  0  0
  5  9  1  0  0  0  0
  2 10  1  0  0  0  0
  2 11  1  0  0  0  0
  3 12  1  0  0  0  0
  3 13  1  0  0  0  0
  4 14  1  0  0  0  0
  4 15  1  0  0  0  0
  6 16  1  0  0  0  0
  6 17  1  0  0  0  0
  8 18  1  0  0  0  0
  9 19  1  0  0  0  0
M  END
> <id>
EN300-257405

> <smiles>
Cl.OC1(CC#N)CCNC1

> <MDLNUMBER>
MFCD29762955

> <IUPAC Name>
2-(3-hydroxypyrrolidin-3-yl)acetonitrile hydrochloride

> <CAS>
1909313-98-9

> <Purity>
95

> <URL>
https://www.enaminestore.com/catalog/EN300-257405

> <Saltdate>
Cl

> <ROCS_ShapeQuery>
hit0

> <ROCS_TanimotoCombo>
0.980 

> <ROCS_ShapeTanimoto>
0.503 

> <ROCS_ColorTanimoto>
0.477 

> <ROCS_RefTversky>
1.334 

> <ROCS_RefColorTversky>
0.646 

> <ROCS_RefTverskyCombo>
1.980 

> <ROCS_FitTversky>
0.447 

> <ROCS_FitColorTversky>
0.646 

> <ROCS_FitTverskyCombo>
1.093 

> <ROCS_ColorScore>
-3.877

> <ROCS_Overlap>
162.641

> <ROCS_Rank>
458                 

$$$$
untitled-dbase-19851_12
  -OEChem-06232314393D

 19 19  0     1  0  0  0  0  0999 V2000
   -5.3498    4.9302  -37.7038 C   0  0  0  0  0  0  0  0  0  0  0  0
   -7.4090    6.1296  -36.1448 C   0  0  0  0  0  0  0  0  0  0  0  0
   -7.0990    7.4323  -35.4321 C   0  0  0  0  0  0  0  0  0  0  0  0
   -6.2709    5.6199  -34.1352 C   0  0  0  0  0  0  0  0  0  0  0  0
   -6.3687    5.1685  -35.5879 C   0  0  2  0  0  0  0  0  0  0  0  0
   -5.0304    5.2643  -36.3209 C   0  0  0  0  0  0  0  0  0  0  0  0
   -5.5765    4.6673  -38.8112 N   0  0  0  0  0  0  0  0  0  0  0  0
   -6.5556    7.0601  -34.1204 N   0  0  0  0  0  0  0  0  0  0  0  0
   -6.8423    3.8317  -35.6554 O   0  0  0  0  0  0  0  0  0  0  0  0
   -8.4258    5.7973  -35.9281 H   0  0  0  0  0  0  0  0  0  0  0  0
   -7.3029    6.2709  -37.2221 H   0  0  0  0  0  0  0  0  0  0  0  0
   -6.3513    8.0075  -35.9949 H   0  0  0  0  0  0  0  0  0  0  0  0
   -7.9889    8.0626  -35.3189 H   0  0  0  0  0  0  0  0  0  0  0  0
   -6.9891    5.0899  -33.4739 H   0  0  0  0  0  0  0  0  0  0  0  0
   -5.2549    5.4397  -33.7188 H   0  0  0  0  0  0  0  0  0  0  0  0
   -4.3340    4.5587  -35.8799 H   0  0  0  0  0  0  0  0  0  0  0  0
   -4.6443    6.2736  -36.2224 H   0  0  0  0  0  0  0  0  0  0  0  0
   -5.7034    7.5966  -33.9176 H   0  0  0  0  0  0  0  0  0  0  0  0
   -7.6515    3.8031  -35.1241 H   0  0  0  0  0  0  0  0  0  0  0  0
  1  6  1  0  0  0  0
  1  7  3  0  0  0  0
  2  3  1  0  0  0  0
  2  5  1  0  0  0  0
  3  8  1  0  0  0  0
  4  5  1  0  0  0  0
  4  8  1  0  0  0  0
  5  6  1  0  0  0  0
  5  9  1  0  0  0  0
  2 10  1  0  0  0  0
  2 11  1  0  0  0  0
  3 12  1  0  0  0  0
  3 13  1  0  0  0  0
  4 14  1  0  0  0  0
  4 15  1  0  0  0  0
  6 16  1  0  0  0  0
  6 17  1  0  0  0  0
  8 18  1  0  0  0  0
  9 19  1  0  0  0  0
M  END
> <id>
EN300-112716

> <smiles>
OC1(CC#N)CCNC1

> <MDLNUMBER>
MFCD21801164

> <IUPAC Name>
2-(3-hydroxypyrrolidin-3-yl)acetonitrile

> <CAS>
1528010-57-2

> <URL>
https://www.enaminestore.com/catalog/EN300-112716

> <ROCS_ShapeQuery>
hit0

> <ROCS_TanimotoCombo>
0.980 

> <ROCS_ShapeTanimoto>
0.503 

> <ROCS_ColorTanimoto>
0.477 

> <ROCS_RefTversky>
1.334 

> <ROCS_RefColorTversky>
0.646 

> <ROCS_RefTverskyCombo>
1.980 

> <ROCS_FitTversky>
0.447 

> <ROCS_FitColorTversky>
0.646 

> <ROCS_FitTverskyCombo>
1.093 

> <ROCS_ColorScore>
-3.877

> <ROCS_Overlap>
162.641

> <ROCS_Rank>
459                 

$$$$
untitled-dbase-172267_3
  -OEChem-06232314393D

 24 24  0     1  0  0  0  0  0999 V2000
   -6.3846    4.5066  -36.6285 C   0  0  0  0  0  0  0  0  0  0  0  0
   -5.9622    3.9178  -37.8354 C   0  0  0  0  0  0  0  0  0  0  0  0
   -6.1866    5.8528  -36.8155 C   0  0  0  0  0  0  0  0  0  0  0  0
   -5.9537    2.4874  -38.1916 C   0  0  0  0  0  0  0  0  0  0  0  0
   -5.2989    7.2095  -38.7375 C   0  0  0  0  0  0  0  0  0  0  0  0
   -8.1348    7.7598  -36.1129 C   0  0  0  0  0  0  0  0  0  0  0  0
   -5.5287    4.8164  -38.7235 N   0  0  0  0  0  0  0  0  0  0  0  0
   -5.5322    8.3571  -36.2827 N   0  0  0  0  0  0  0  0  0  0  0  0
   -5.6778    5.9835  -38.0741 N   0  0  0  0  0  0  0  0  0  0  0  0
   -6.8732    3.8960  -35.5310 N   0  0  0  0  0  0  0  0  0  0  0  0
   -6.5090    6.7417  -34.4012 O   0  0  0  0  0  0  0  0  0  0  0  0
   -6.4717    7.2461  -35.7645 S   0  0  2  0  0  0  0  0  0  0  0  0
   -6.9042    2.1881  -38.6645 H   0  0  0  0  0  0  0  0  0  0  0  0
   -5.1390    2.2387  -38.8940 H   0  0  0  0  0  0  0  0  0  0  0  0
   -5.8016    1.8404  -37.3098 H   0  0  0  0  0  0  0  0  0  0  0  0
   -4.2469    7.4036  -38.5125 H   0  0  0  0  0  0  0  0  0  0  0  0
   -5.4454    7.1004  -39.8157 H   0  0  0  0  0  0  0  0  0  0  0  0
   -5.9264    8.0271  -38.3718 H   0  0  0  0  0  0  0  0  0  0  0  0
   -8.3667    8.6234  -35.4875 H   0  0  0  0  0  0  0  0  0  0  0  0
   -8.1993    8.0245  -37.1694 H   0  0  0  0  0  0  0  0  0  0  0  0
   -8.8063    6.9308  -35.8844 H   0  0  0  0  0  0  0  0  0  0  0  0
   -5.5943    9.2343  -35.7575 H   0  0  0  0  0  0  0  0  0  0  0  0
   -7.1131    4.4159  -34.6724 H   0  0  0  0  0  0  0  0  0  0  0  0
   -6.9441    2.8690  -35.4582 H   0  0  0  0  0  0  0  0  0  0  0  0
  1  2  1  0  0  0  0
  1  3  2  0  0  0  0
  1 10  1  0  0  0  0
  2  4  1  0  0  0  0
  2  7  2  0  0  0  0
  3  9  1  0  0  0  0
  3 12  1  0  0  0  0
  5  9  1  0  0  0  0
  6 12  1  0  0  0  0
  7  9  1  0  0  0  0
  8 12  2  0  0  0  0
 11 12  2  0  0  0  0
  4 13  1  0  0  0  0
  4 14  1  0  0  0  0
  4 15  1  0  0  0  0
  5 16  1  0  0  0  0
  5 17  1  0  0  0  0
  5 18  1  0  0  0  0
  6 19  1  0  0  0  0
  6 20  1  0  0  0  0
  6 21  1  0  0  0  0
  8 22  1  0  0  0  0
 10 23  1  0  0  0  0
 10 24  1  0  0  0  0
M  END
> <id>
EN300-43346708

> <smiles>
CC1=NN(C)C(=C1N)S(=N)(=O)C

> <IUPAC Name>
(4-amino-1,3-dimethyl-1H-pyrazol-5-yl)(imino)methyl-lambda6-sulfanone

> <URL>
https://www.enaminestore.com/catalog/EN300-43346708

> <ROCS_ShapeQuery>
hit0

> <ROCS_TanimotoCombo>
0.980 

> <ROCS_ShapeTanimoto>
0.421 

> <ROCS_ColorTanimoto>
0.559 

> <ROCS_RefTversky>
1.418 

> <ROCS_RefColorTversky>
0.663 

> <ROCS_RefTverskyCombo>
2.081 

> <ROCS_FitTversky>
0.375 

> <ROCS_FitColorTversky>
0.781 

> <ROCS_FitTverskyCombo>
1.156 

> <ROCS_ColorScore>
-3.943

> <ROCS_Overlap>
181.901

> <ROCS_Rank>
460                 

$$$$
untitled-dbase-166684_4
  -OEChem-06232314393D

 20 20  0     1  0  0  0  0  0999 V2000
   -6.3594    7.0252  -37.0751 C   0  0  0  0  0  0  0  0  0  0  0  0
   -6.2436    7.8435  -35.9514 C   0  0  0  0  0  0  0  0  0  0  0  0
   -6.5756    5.9254  -34.5204 C   0  0  0  0  0  0  0  0  0  0  0  0
   -6.5833    5.6570  -36.9214 C   0  0  0  0  0  0  0  0  0  0  0  0
   -6.6914    5.1071  -35.6441 C   0  0  0  0  0  0  0  0  0  0  0  0
   -6.3517    7.2936  -34.6741 C   0  0  0  0  0  0  0  0  0  0  0  0
   -7.8248    5.2431  -39.0761 C   0  0  0  0  0  0  0  0  0  0  0  0
   -6.7055    4.7963  -38.1352 C   0  0  1  0  0  0  0  0  0  0  0  0
   -6.9094    3.7727  -35.4766 O   0  0  0  0  0  0  0  0  0  0  0  0
   -5.4729    4.8370  -38.8625 O   0  0  0  0  0  0  0  0  0  0  0  0
   -6.2069    8.3038  -33.2887 Cl  0  0  0  0  0  0  0  0  0  0  0  0
   -6.2748    7.4633  -38.0660 H   0  0  0  0  0  0  0  0  0  0  0  0
   -6.0707    8.9081  -36.0857 H   0  0  0  0  0  0  0  0  0  0  0  0
   -6.6611    5.4897  -33.5276 H   0  0  0  0  0  0  0  0  0  0  0  0
   -7.6998    6.2904  -39.3691 H   0  0  0  0  0  0  0  0  0  0  0  0
   -8.8090    5.1302  -38.6077 H   0  0  0  0  0  0  0  0  0  0  0  0
   -7.8409    4.6270  -39.9818 H   0  0  0  0  0  0  0  0  0  0  0  0
   -6.8806    3.7395  -37.8736 H   0  0  0  0  0  0  0  0  0  0  0  0
   -6.9580    3.5572  -34.5320 H   0  0  0  0  0  0  0  0  0  0  0  0
   -4.7934    4.5012  -38.2605 H   0  0  0  0  0  0  0  0  0  0  0  0
  1  2  1  0  0  0  0
  1  4  2  0  0  0  0
  2  6  2  0  0  0  0
  3  5  2  0  0  0  0
  3  6  1  0  0  0  0
  4  5  1  0  0  0  0
  4  8  1  0  0  0  0
  5  9  1  0  0  0  0
  6 11  1  0  0  0  0
  7  8  1  1  0  0  0
  8 10  1  0  0  0  0
  1 12  1  0  0  0  0
  2 13  1  0  0  0  0
  3 14  1  0  0  0  0
  7 15  1  0  0  0  0
  7 16  1  0  0  0  0
  7 17  1  0  0  0  0
  8 18  1  0  0  0  0
  9 19  1  0  0  0  0
 10 20  1  0  0  0  0
M  END
> <id>
EN300-1979992

> <smiles>
C[C@@H](O)C=1C=CC(Cl)=CC1O

> <MDLNUMBER>
MFCD33001650

> <IUPAC Name>
5-chloro-2-[(1R)-1-hydroxyethyl]phenol

> <CAS>
2227733-66-4

> <URL>
https://www.enaminestore.com/catalog/EN300-1979992

> <ROCS_ShapeQuery>
hit0

> <ROCS_TanimotoCombo>
0.980 

> <ROCS_ShapeTanimoto>
0.414 

> <ROCS_ColorTanimoto>
0.565 

> <ROCS_RefTversky>
1.333 

> <ROCS_RefColorTversky>
0.668 

> <ROCS_RefTverskyCombo>
2.001 

> <ROCS_FitTversky>
0.376 

> <ROCS_FitColorTversky>
0.786 

> <ROCS_FitTverskyCombo>
1.162 

> <ROCS_ColorScore>
-3.976

> <ROCS_Overlap>
168.394

> <ROCS_Rank>
461                 

$$$$
untitled-dbase-176654_2
  -OEChem-06232314393D

 16 16  0     0  0  0  0  0  0999 V2000
   -7.5163    4.9701  -34.3464 C   0  0  0  0  0  0  0  0  0  0  0  0
   -7.5762    3.7551  -34.9980 C   0  0  0  0  0  0  0  0  0  0  0  0
   -6.5973    5.8705  -34.8454 C   0  0  0  0  0  0  0  0  0  0  0  0
   -5.9471    4.3955  -36.4482 C   0  0  0  0  0  0  0  0  0  0  0  0
   -5.0764    4.0766  -37.6158 C   0  0  0  0  0  0  0  0  0  0  0  0
   -6.8035    3.4331  -36.0560 N   0  0  0  0  0  0  0  0  0  0  0  0
   -5.7934    5.6153  -35.8985 N   0  0  0  0  0  0  0  0  0  0  0  0
   -6.5056    7.1305  -34.2048 N   0  0  0  0  0  0  0  0  0  0  0  0
   -5.5570    4.7628  -38.7653 O   0  0  0  0  0  0  0  0  0  0  0  0
   -8.1555    5.1890  -33.5005 H   0  0  0  0  0  0  0  0  0  0  0  0
   -8.2686    2.9842  -34.6777 H   0  0  0  0  0  0  0  0  0  0  0  0
   -4.0361    4.3805  -37.4354 H   0  0  0  0  0  0  0  0  0  0  0  0
   -5.0720    2.9980  -37.8251 H   0  0  0  0  0  0  0  0  0  0  0  0
   -7.1321    7.3377  -33.4574 H   0  0  0  0  0  0  0  0  0  0  0  0
   -5.8829    7.8151  -34.5758 H   0  0  0  0  0  0  0  0  0  0  0  0
   -5.5244    5.7105  -38.5584 H   0  0  0  0  0  0  0  0  0  0  0  0
  1  2  1  0  0  0  0
  1  3  2  0  0  0  0
  2  6  2  0  0  0  0
  3  7  1  0  0  0  0
  3  8  1  0  0  0  0
  4  5  1  0  0  0  0
  4  6  1  0  0  0  0
  4  7  2  0  0  0  0
  5  9  1  0  0  0  0
  1 10  1  0  0  0  0
  2 11  1  0  0  0  0
  5 12  1  0  0  0  0
  5 13  1  0  0  0  0
  8 14  1  0  0  0  0
  8 15  1  0  0  0  0
  9 16  1  0  0  0  0
M  END
> <id>
EN300-6944463

> <smiles>
NC=1C=CN=C(CO)N1

> <MDLNUMBER>
MFCD28724104

> <IUPAC Name>
(4-aminopyrimidin-2-yl)methanol

> <CAS>
1780700-09-5

> <Purity>
95

> <URL>
https://www.enaminestore.com/catalog/EN300-6944463

> <ROCS_ShapeQuery>
hit0

> <ROCS_TanimotoCombo>
0.980 

> <ROCS_ShapeTanimoto>
0.443 

> <ROCS_ColorTanimoto>
0.537 

> <ROCS_RefTversky>
1.252 

> <ROCS_RefColorTversky>
0.752 

> <ROCS_RefTverskyCombo>
2.004 

> <ROCS_FitTversky>
0.406 

> <ROCS_FitColorTversky>
0.653 

> <ROCS_FitTverskyCombo>
1.060 

> <ROCS_ColorScore>
-4.548

> <ROCS_Overlap>
153.512

> <ROCS_Rank>
462                 

$$$$
untitled-dbase-122272_240
  -OEChem-06232314393D

 23 23  0     1  0  0  0  0  0999 V2000
   -6.5072    7.0350  -36.9061 C   0  0  0  0  0  0  0  0  0  0  0  0
   -7.0165    7.7072  -35.6216 C   0  0  0  0  0  0  0  0  0  0  0  0
   -6.8007    5.7161  -34.2603 C   0  0  0  0  0  0  0  0  0  0  0  0
   -7.1450    4.9957  -35.5750 C   0  0  1  0  0  0  0  0  0  0  0  0
   -6.2906    5.5145  -36.7448 C   0  0  1  0  0  0  0  0  0  0  0  0
   -6.5757    4.7802  -38.0561 C   0  0  0  0  0  0  0  0  0  0  0  0
   -6.4227    7.1250  -34.4209 N   0  0  0  0  0  0  0  0  0  0  0  0
   -6.9852    3.5910  -35.3986 O   0  0  0  0  0  0  0  0  0  0  0  0
   -4.9045    5.3157  -36.4335 O   0  0  0  0  0  0  0  0  0  0  0  0
   -5.4495    4.9207  -38.9005 O   0  0  0  0  0  0  0  0  0  0  0  0
   -7.2238    7.2255  -37.7221 H   0  0  0  0  0  0  0  0  0  0  0  0
   -5.5611    7.5206  -37.1944 H   0  0  0  0  0  0  0  0  0  0  0  0
   -6.8215    8.7879  -35.6536 H   0  0  0  0  0  0  0  0  0  0  0  0
   -8.1063    7.5889  -35.5703 H   0  0  0  0  0  0  0  0  0  0  0  0
   -7.6755    5.6577  -33.5820 H   0  0  0  0  0  0  0  0  0  0  0  0
   -6.0041    5.1664  -33.7157 H   0  0  0  0  0  0  0  0  0  0  0  0
   -8.2166    5.1755  -35.7970 H   0  0  0  0  0  0  0  0  0  0  0  0
   -7.4484    5.2160  -38.5394 H   0  0  0  0  0  0  0  0  0  0  0  0
   -6.7504    3.7245  -37.8563 H   0  0  0  0  0  0  0  0  0  0  0  0
   -5.4078    7.1953  -34.4751 H   0  0  0  0  0  0  0  0  0  0  0  0
   -6.0573    3.4467  -35.1563 H   0  0  0  0  0  0  0  0  0  0  0  0
   -4.4058    5.6780  -37.1798 H   0  0  0  0  0  0  0  0  0  0  0  0
   -5.6499    4.4482  -39.7269 H   0  0  0  0  0  0  0  0  0  0  0  0
  1  2  1  0  0  0  0
  1  5  1  0  0  0  0
  2  7  1  0  0  0  0
  3  4  1  0  0  0  0
  3  7  1  0  0  0  0
  4  5  1  0  0  0  0
  4  8  1  6  0  0  0
  5  6  1  0  0  0  0
  5  9  1  6  0  0  0
  6 10  1  0  0  0  0
  1 11  1  0  0  0  0
  1 12  1  0  0  0  0
  2 13  1  0  0  0  0
  2 14  1  0  0  0  0
  3 15  1  0  0  0  0
  3 16  1  0  0  0  0
  4 17  1  0  0  0  0
  6 18  1  0  0  0  0
  6 19  1  0  0  0  0
  7 20  1  0  0  0  0
  8 21  1  0  0  0  0
  9 22  1  0  0  0  0
 10 23  1  0  0  0  0
M  END
> <id>
EN300-26983392

> <smiles>
Cl.OC[C@@]1(O)CCNC[C@@H]1O |&1:3,9,r|

> <MDLNUMBER>
MFCD32703064

> <IUPAC Name>
rac-(3R,4R)-4-(hydroxymethyl)piperidine-3,4-diol hydrochloride

> <CAS>
2460740-23-0

> <Purity>
95

> <URL>
https://www.enaminestore.com/catalog/EN300-26983392

> <Saltdate>
Cl

> <ROCS_ShapeQuery>
hit0

> <ROCS_TanimotoCombo>
0.979 

> <ROCS_ShapeTanimoto>
0.516 

> <ROCS_ColorTanimoto>
0.463 

> <ROCS_RefTversky>
1.444 

> <ROCS_RefColorTversky>
0.773 

> <ROCS_RefTverskyCombo>
2.217 

> <ROCS_FitTversky>
0.445 

> <ROCS_FitColorTversky>
0.537 

> <ROCS_FitTverskyCombo>
0.982 

> <ROCS_ColorScore>
-4.752

> <ROCS_Overlap>
178.917

> <ROCS_Rank>
463                 

$$$$
untitled-dbase-87087_240
  -OEChem-06232314393D

 23 23  0     1  0  0  0  0  0999 V2000
   -6.5072    7.0350  -36.9061 C   0  0  0  0  0  0  0  0  0  0  0  0
   -7.0165    7.7072  -35.6216 C   0  0  0  0  0  0  0  0  0  0  0  0
   -6.8007    5.7161  -34.2603 C   0  0  0  0  0  0  0  0  0  0  0  0
   -7.1450    4.9957  -35.5750 C   0  0  1  0  0  0  0  0  0  0  0  0
   -6.2906    5.5145  -36.7448 C   0  0  1  0  0  0  0  0  0  0  0  0
   -6.5757    4.7802  -38.0561 C   0  0  0  0  0  0  0  0  0  0  0  0
   -6.4227    7.1250  -34.4209 N   0  0  0  0  0  0  0  0  0  0  0  0
   -6.9852    3.5910  -35.3986 O   0  0  0  0  0  0  0  0  0  0  0  0
   -4.9045    5.3157  -36.4335 O   0  0  0  0  0  0  0  0  0  0  0  0
   -5.4495    4.9207  -38.9005 O   0  0  0  0  0  0  0  0  0  0  0  0
   -7.2238    7.2255  -37.7221 H   0  0  0  0  0  0  0  0  0  0  0  0
   -5.5611    7.5206  -37.1944 H   0  0  0  0  0  0  0  0  0  0  0  0
   -6.8215    8.7879  -35.6536 H   0  0  0  0  0  0  0  0  0  0  0  0
   -8.1063    7.5889  -35.5703 H   0  0  0  0  0  0  0  0  0  0  0  0
   -7.6755    5.6577  -33.5820 H   0  0  0  0  0  0  0  0  0  0  0  0
   -6.0041    5.1664  -33.7157 H   0  0  0  0  0  0  0  0  0  0  0  0
   -8.2166    5.1755  -35.7970 H   0  0  0  0  0  0  0  0  0  0  0  0
   -7.4484    5.2160  -38.5394 H   0  0  0  0  0  0  0  0  0  0  0  0
   -6.7504    3.7245  -37.8563 H   0  0  0  0  0  0  0  0  0  0  0  0
   -5.4078    7.1953  -34.4751 H   0  0  0  0  0  0  0  0  0  0  0  0
   -6.0573    3.4467  -35.1563 H   0  0  0  0  0  0  0  0  0  0  0  0
   -4.4058    5.6780  -37.1798 H   0  0  0  0  0  0  0  0  0  0  0  0
   -5.6499    4.4482  -39.7269 H   0  0  0  0  0  0  0  0  0  0  0  0
  1  2  1  0  0  0  0
  1  5  1  0  0  0  0
  2  7  1  0  0  0  0
  3  4  1  0  0  0  0
  3  7  1  0  0  0  0
  4  5  1  0  0  0  0
  4  8  1  6  0  0  0
  5  6  1  0  0  0  0
  5  9  1  6  0  0  0
  6 10  1  0  0  0  0
  1 11  1  0  0  0  0
  1 12  1  0  0  0  0
  2 13  1  0  0  0  0
  2 14  1  0  0  0  0
  3 15  1  0  0  0  0
  3 16  1  0  0  0  0
  4 17  1  0  0  0  0
  6 18  1  0  0  0  0
  6 19  1  0  0  0  0
  7 20  1  0  0  0  0
  8 21  1  0  0  0  0
  9 22  1  0  0  0  0
 10 23  1  0  0  0  0
M  END
> <id>
EN300-26983393

> <smiles>
OC[C@@]1(O)CCNC[C@@H]1O |&1:2,8,r|

> <MDLNUMBER>
MFCD32703065

> <IUPAC Name>
rac-(3R,4R)-4-(hydroxymethyl)piperidine-3,4-diol

> <CAS>
2460740-22-9

> <URL>
https://www.enaminestore.com/catalog/EN300-26983393

> <ROCS_ShapeQuery>
hit0

> <ROCS_TanimotoCombo>
0.979 

> <ROCS_ShapeTanimoto>
0.516 

> <ROCS_ColorTanimoto>
0.463 

> <ROCS_RefTversky>
1.444 

> <ROCS_RefColorTversky>
0.773 

> <ROCS_RefTverskyCombo>
2.217 

> <ROCS_FitTversky>
0.445 

> <ROCS_FitColorTversky>
0.537 

> <ROCS_FitTverskyCombo>
0.982 

> <ROCS_ColorScore>
-4.752

> <ROCS_Overlap>
178.917

> <ROCS_Rank>
464                 

$$$$
untitled-dbase-12751_11
  -OEChem-06232314393D

 14 13  0     1  0  0  0  0  0999 V2000
   -5.9215    4.9281  -37.5444 C   0  0  0  0  0  0  0  0  0  0  0  0
   -5.7214    6.1923  -35.3770 C   0  0  0  0  0  0  0  0  0  0  0  0
   -6.5938    5.2653  -36.2199 C   0  0  2  0  0  0  0  0  0  0  0  0
   -6.8393    4.0349  -35.4941 N   0  0  0  0  0  0  0  0  0  0  0  0
   -6.5236    6.8197  -34.3830 O   0  0  0  0  0  0  0  0  0  0  0  0
   -4.9521    4.4470  -37.3789 H   0  0  0  0  0  0  0  0  0  0  0  0
   -5.7577    5.8270  -38.1495 H   0  0  0  0  0  0  0  0  0  0  0  0
   -6.5425    4.2436  -38.1329 H   0  0  0  0  0  0  0  0  0  0  0  0
   -4.9377    5.6246  -34.8645 H   0  0  0  0  0  0  0  0  0  0  0  0
   -5.2511    6.9714  -35.9868 H   0  0  0  0  0  0  0  0  0  0  0  0
   -7.5605    5.7449  -36.4109 H   0  0  0  0  0  0  0  0  0  0  0  0
   -6.4913    3.2707  -36.0297 H   0  0  0  0  0  0  0  0  0  0  0  0
   -6.3698    4.0805  -34.6169 H   0  0  0  0  0  0  0  0  0  0  0  0
   -6.8998    6.1092  -33.8396 H   0  0  0  0  0  0  0  0  0  0  0  0
  1  3  1  1  0  0  0
  2  3  1  0  0  0  0
  2  5  1  0  0  0  0
  3  4  1  0  0  0  0
  1  6  1  0  0  0  0
  1  7  1  0  0  0  0
  1  8  1  0  0  0  0
  2  9  1  0  0  0  0
  2 10  1  0  0  0  0
  3 11  1  0  0  0  0
  4 12  1  0  0  0  0
  4 13  1  0  0  0  0
  5 14  1  0  0  0  0
M  END
> <id>
EN300-33361

> <smiles>
C[C@@H](N)CO

> <MDLNUMBER>
MFCD02179700

> <IUPAC Name>
(2R)-2-aminopropan-1-ol

> <CAS>
35320-23-1

> <Purity>
95

> <URL>
https://www.enaminestore.com/catalog/EN300-33361

> <ROCS_ShapeQuery>
hit0

> <ROCS_TanimotoCombo>
0.979 

> <ROCS_ShapeTanimoto>
0.567 

> <ROCS_ColorTanimoto>
0.413 

> <ROCS_RefTversky>
0.930 

> <ROCS_RefColorTversky>
0.495 

> <ROCS_RefTverskyCombo>
1.425 

> <ROCS_FitTversky>
0.592 

> <ROCS_FitColorTversky>
0.712 

> <ROCS_FitTverskyCombo>
1.304 

> <ROCS_ColorScore>
-2.922

> <ROCS_Overlap>
104.196

> <ROCS_Rank>
465                 

$$$$
untitled-dbase-31806_13
  -OEChem-06232314393D

 21 21  0     1  0  0  0  0  0999 V2000
   -7.1805    7.3327  -35.1091 C   0  0  0  0  0  0  0  0  0  0  0  0
   -5.8428    5.9944  -38.3338 C   0  0  0  0  0  0  0  0  0  0  0  0
   -5.9631    3.7193  -37.8421 C   0  0  0  0  0  0  0  0  0  0  0  0
   -6.2392    5.8409  -36.8762 C   0  0  2  0  0  0  0  0  0  0  0  0
   -6.8694    4.4625  -36.8799 C   0  0  2  0  0  0  0  0  0  0  0  0
   -8.1725    8.4214  -34.8661 C   0  0  0  0  0  0  0  0  0  0  0  0
   -7.1342    6.8917  -36.4197 N   0  0  0  0  0  0  0  0  0  0  0  0
   -6.4996    6.9170  -34.1789 O   0  0  0  0  0  0  0  0  0  0  0  0
   -5.5032    4.6794  -38.8034 O   0  0  0  0  0  0  0  0  0  0  0  0
   -6.8582    3.8753  -35.5947 O   0  0  0  0  0  0  0  0  0  0  0  0
   -6.6265    6.4193  -38.9627 H   0  0  0  0  0  0  0  0  0  0  0  0
   -4.9494    6.6159  -38.4309 H   0  0  0  0  0  0  0  0  0  0  0  0
   -5.0943    3.2639  -37.3555 H   0  0  0  0  0  0  0  0  0  0  0  0
   -6.5119    2.9460  -38.3913 H   0  0  0  0  0  0  0  0  0  0  0  0
   -5.3372    5.8980  -36.2237 H   0  0  0  0  0  0  0  0  0  0  0  0
   -7.9255    4.4655  -37.2376 H   0  0  0  0  0  0  0  0  0  0  0  0
   -9.1650    8.0317  -34.5885 H   0  0  0  0  0  0  0  0  0  0  0  0
   -7.8765    9.0822  -34.0356 H   0  0  0  0  0  0  0  0  0  0  0  0
   -8.3535    9.0933  -35.7203 H   0  0  0  0  0  0  0  0  0  0  0  0
   -7.7572    7.3242  -37.0975 H   0  0  0  0  0  0  0  0  0  0  0  0
   -5.9413    3.9143  -35.2819 H   0  0  0  0  0  0  0  0  0  0  0  0
  1  6  1  0  0  0  0
  1  7  1  0  0  0  0
  1  8  2  0  0  0  0
  2  4  1  0  0  0  0
  2  9  1  0  0  0  0
  3  5  1  0  0  0  0
  3  9  1  0  0  0  0
  4  5  1  0  0  0  0
  4  7  1  0  0  0  0
  5 10  1  0  0  0  0
  2 11  1  0  0  0  0
  2 12  1  0  0  0  0
  3 13  1  0  0  0  0
  3 14  1  0  0  0  0
  4 15  1  0  0  0  0
  5 16  1  0  0  0  0
  6 17  1  0  0  0  0
  6 18  1  0  0  0  0
  6 19  1  0  0  0  0
  7 20  1  0  0  0  0
 10 21  1  0  0  0  0
M  END
> <id>
EN300-718570

> <smiles>
CC(=O)NC1COCC1O

> <MDLNUMBER>
MFCD24498992

> <IUPAC Name>
N-(4-hydroxyoxolan-3-yl)acetamide

> <CAS>
1851452-40-8

> <URL>
https://www.enaminestore.com/catalog/EN300-718570

> <ROCS_ShapeQuery>
hit0

> <ROCS_TanimotoCombo>
0.979 

> <ROCS_ShapeTanimoto>
0.488 

> <ROCS_ColorTanimoto>
0.491 

> <ROCS_RefTversky>
1.403 

> <ROCS_RefColorTversky>
0.658 

> <ROCS_RefTverskyCombo>
2.061 

> <ROCS_FitTversky>
0.428 

> <ROCS_FitColorTversky>
0.658 

> <ROCS_FitTverskyCombo>
1.087 

> <ROCS_ColorScore>
-3.950

> <ROCS_Overlap>
174.144

> <ROCS_Rank>
466                 

$$$$
untitled-dbase-52072_20
  -OEChem-06232314393D

 21 22  0     1  0  0  0  0  0999 V2000
   -7.7479    8.7505  -35.0186 C   0  0  0  0  0  0  0  0  0  0  0  0
   -7.4637    7.9884  -36.1768 C   0  0  0  0  0  0  0  0  0  0  0  0
   -7.1015    8.1221  -33.9797 C   0  0  0  0  0  0  0  0  0  0  0  0
   -6.6636    6.9488  -35.7632 C   0  0  0  0  0  0  0  0  0  0  0  0
   -5.6119    6.1238  -37.9244 C   0  0  0  0  0  0  0  0  0  0  0  0
   -6.0763    3.8476  -37.8343 C   0  0  0  0  0  0  0  0  0  0  0  0
   -6.0166    5.7886  -36.4887 C   0  0  2  0  0  0  0  0  0  0  0  0
   -6.8434    4.5302  -36.7203 C   0  0  2  0  0  0  0  0  0  0  0  0
   -6.4381    7.0231  -34.4253 O   0  0  0  0  0  0  0  0  0  0  0  0
   -5.5274    4.8873  -38.6481 O   0  0  0  0  0  0  0  0  0  0  0  0
   -6.8978    3.7143  -35.5664 O   0  0  0  0  0  0  0  0  0  0  0  0
   -8.3491    9.6455  -34.9494 H   0  0  0  0  0  0  0  0  0  0  0  0
   -7.8018    8.1761  -37.1860 H   0  0  0  0  0  0  0  0  0  0  0  0
   -7.0194    8.3207  -32.9212 H   0  0  0  0  0  0  0  0  0  0  0  0
   -6.3060    6.7971  -38.4363 H   0  0  0  0  0  0  0  0  0  0  0  0
   -4.6148    6.5770  -37.9463 H   0  0  0  0  0  0  0  0  0  0  0  0
   -5.2642    3.2116  -37.4744 H   0  0  0  0  0  0  0  0  0  0  0  0
   -6.7418    3.2576  -38.4707 H   0  0  0  0  0  0  0  0  0  0  0  0
   -5.0588    5.5501  -35.9149 H   0  0  0  0  0  0  0  0  0  0  0  0
   -7.8926    4.7398  -37.0332 H   0  0  0  0  0  0  0  0  0  0  0  0
   -7.3990    4.2109  -34.9014 H   0  0  0  0  0  0  0  0  0  0  0  0
  1  2  1  0  0  0  0
  1  3  2  0  0  0  0
  2  4  2  0  0  0  0
  3  9  1  0  0  0  0
  4  7  1  1  0  0  0
  4  9  1  0  0  0  0
  5  7  1  0  0  0  0
  5 10  1  0  0  0  0
  6  8  1  0  0  0  0
  6 10  1  0  0  0  0
  7  8  1  0  0  0  0
  8 11  1  6  0  0  0
  1 12  1  0  0  0  0
  2 13  1  0  0  0  0
  3 14  1  0  0  0  0
  5 15  1  0  0  0  0
  5 16  1  0  0  0  0
  6 17  1  0  0  0  0
  6 18  1  0  0  0  0
  7 19  1  0  0  0  0
  8 20  1  0  0  0  0
 11 21  1  0  0  0  0
M  END
> <id>
EN300-1625952

> <smiles>
O[C@@H]1COC[C@H]1C2=CC=CO2 |&1:1,5,r|

> <IUPAC Name>
rac-(3R,4S)-4-(furan-2-yl)oxolan-3-ol

> <CAS>
2227874-27-1

> <URL>
https://www.enaminestore.com/catalog/EN300-1625952

> <ROCS_ShapeQuery>
hit0

> <ROCS_TanimotoCombo>
0.979 

> <ROCS_ShapeTanimoto>
0.492 

> <ROCS_ColorTanimoto>
0.487 

> <ROCS_RefTversky>
1.550 

> <ROCS_RefColorTversky>
0.655 

> <ROCS_RefTverskyCombo>
2.205 

> <ROCS_FitTversky>
0.419 

> <ROCS_FitColorTversky>
0.655 

> <ROCS_FitTverskyCombo>
1.074 

> <ROCS_ColorScore>
-3.929

> <ROCS_Overlap>
197.726

> <ROCS_Rank>
467                 

$$$$
untitled-dbase-155571_22
  -OEChem-06232314393D

 19 19  0     0  0  0  0  0  0999 V2000
   -4.9773    5.5093  -36.0057 C   0  0  0  0  0  0  0  0  0  0  0  0
   -6.9860    6.0626  -36.8153 C   0  0  0  0  0  0  0  0  0  0  0  0
   -6.2233    4.7337  -36.5307 C   0  0  0  0  0  0  0  0  0  0  0  0
   -5.9542    3.9118  -37.7843 C   0  0  0  0  0  0  0  0  0  0  0  0
   -5.3695    8.0555  -36.4002 N   0  0  0  0  0  0  0  0  0  0  0  0
   -5.5249    4.7652  -38.8424 N   0  0  0  0  0  0  0  0  0  0  0  0
   -6.5569    6.8314  -34.2856 O   0  0  0  0  0  0  0  0  0  0  0  0
   -6.8628    3.8850  -35.5481 O   0  0  0  0  0  0  0  0  0  0  0  0
   -5.9949    6.8970  -35.6158 S   0  0  0  0  0  0  0  0  0  0  0  0
   -4.4968    5.0693  -35.1266 H   0  0  0  0  0  0  0  0  0  0  0  0
   -4.2075    5.7199  -36.7565 H   0  0  0  0  0  0  0  0  0  0  0  0
   -6.8758    6.4552  -37.8323 H   0  0  0  0  0  0  0  0  0  0  0  0
   -8.0493    6.0502  -36.5579 H   0  0  0  0  0  0  0  0  0  0  0  0
   -5.1771    3.1877  -37.5398 H   0  0  0  0  0  0  0  0  0  0  0  0
   -6.8842    3.4107  -38.0525 H   0  0  0  0  0  0  0  0  0  0  0  0
   -5.8516    8.9509  -36.2799 H   0  0  0  0  0  0  0  0  0  0  0  0
   -4.6963    5.2626  -38.5706 H   0  0  0  0  0  0  0  0  0  0  0  0
   -5.3226    4.2226  -39.6626 H   0  0  0  0  0  0  0  0  0  0  0  0
   -6.1865    3.2534  -35.2793 H   0  0  0  0  0  0  0  0  0  0  0  0
  1  3  1  0  0  0  0
  1  9  1  0  0  0  0
  2  3  1  0  0  0  0
  2  9  1  0  0  0  0
  3  4  1  0  0  0  0
  3  8  1  0  0  0  0
  4  6  1  0  0  0  0
  5  9  2  0  0  0  0
  7  9  2  0  0  0  0
  1 10  1  0  0  0  0
  1 11  1  0  0  0  0
  2 12  1  0  0  0  0
  2 13  1  0  0  0  0
  4 14  1  0  0  0  0
  4 15  1  0  0  0  0
  5 16  1  0  0  0  0
  6 17  1  0  0  0  0
  6 18  1  0  0  0  0
  8 19  1  0  0  0  0
M  END
> <id>
EN300-27115267

> <smiles>
NCC1(O)CS(=N)(=O)C1

> <IUPAC Name>
3-(aminomethyl)-3-hydroxy-1-imino-1lambda6-thietan-1-one

> <CAS>
2680735-28-6

> <URL>
https://www.enaminestore.com/catalog/EN300-27115267

> <ROCS_ShapeQuery>
hit0

> <ROCS_TanimotoCombo>
0.979 

> <ROCS_ShapeTanimoto>
0.484 

> <ROCS_ColorTanimoto>
0.494 

> <ROCS_RefTversky>
1.249 

> <ROCS_RefColorTversky>
0.662 

> <ROCS_RefTverskyCombo>
1.911 

> <ROCS_FitTversky>
0.442 

> <ROCS_FitColorTversky>
0.662 

> <ROCS_FitTverskyCombo>
1.103 

> <ROCS_ColorScore>
-3.970

> <ROCS_Overlap>
150.791

> <ROCS_Rank>
468                 

$$$$
untitled-dbase-169036_82
  -OEChem-06232314393D

 22 22  0     1  0  0  0  0  0999 V2000
   -6.5583    6.2418  -36.6293 C   0  0  0  0  0  0  0  0  0  0  0  0
   -7.3098    4.5859  -34.3496 C   0  0  0  0  0  0  0  0  0  0  0  0
   -5.9687    7.1031  -35.5127 C   0  0  0  0  0  0  0  0  0  0  0  0
   -6.3381    5.5717  -33.7181 C   0  0  0  0  0  0  0  0  0  0  0  0
   -6.1233    4.7680  -36.5429 C   0  0  2  0  0  0  0  0  0  0  0  0
   -6.2982    4.0892  -37.9051 C   0  0  0  0  0  0  0  0  0  0  0  0
   -6.8386    3.9428  -35.5680 N   0  0  0  0  0  0  0  0  0  0  0  0
   -6.5561    6.8778  -34.2395 O   0  0  0  0  0  0  0  0  0  0  0  0
   -5.5029    4.7777  -38.8498 O   0  0  0  0  0  0  0  0  0  0  0  0
   -7.6441    6.2963  -36.5824 H   0  0  0  0  0  0  0  0  0  0  0  0
   -6.2459    6.6473  -37.5907 H   0  0  0  0  0  0  0  0  0  0  0  0
   -7.6674    3.8259  -33.6086 H   0  0  0  0  0  0  0  0  0  0  0  0
   -8.2306    5.1551  -34.6208 H   0  0  0  0  0  0  0  0  0  0  0  0
   -4.8979    6.8393  -35.4028 H   0  0  0  0  0  0  0  0  0  0  0  0
   -5.9757    8.1870  -35.7610 H   0  0  0  0  0  0  0  0  0  0  0  0
   -6.3977    5.5820  -32.6366 H   0  0  0  0  0  0  0  0  0  0  0  0
   -5.3292    5.2934  -34.0008 H   0  0  0  0  0  0  0  0  0  0  0  0
   -5.0660    4.7555  -36.2998 H   0  0  0  0  0  0  0  0  0  0  0  0
   -7.3428    4.1354  -38.2051 H   0  0  0  0  0  0  0  0  0  0  0  0
   -5.9738    3.0528  -37.8417 H   0  0  0  0  0  0  0  0  0  0  0  0
   -6.2413    3.1379  -35.3226 H   0  0  0  0  0  0  0  0  0  0  0  0
   -5.6260    4.3341  -39.7071 H   0  0  0  0  0  0  0  0  0  0  0  0
  1  3  1  0  0  0  0
  1  5  1  0  0  0  0
  2  4  1  0  0  0  0
  2  7  1  0  0  0  0
  3  8  1  0  0  0  0
  4  8  1  0  0  0  0
  5  6  1  0  0  0  0
  5  7  1  0  0  0  0
  6  9  1  0  0  0  0
  1 10  1  0  0  0  0
  1 11  1  0  0  0  0
  2 12  1  0  0  0  0
  2 13  1  0  0  0  0
  3 14  1  0  0  0  0
  3 15  1  0  0  0  0
  4 16  1  0  0  0  0
  4 17  1  0  0  0  0
  5 18  1  0  0  0  0
  6 19  1  0  0  0  0
  6 20  1  0  0  0  0
  7 21  1  0  0  0  0
  9 22  1  0  0  0  0
M  END
> <id>
EN300-6732376

> <smiles>
Cl.OCC1CCOCCN1

> <MDLNUMBER>
MFCD31737365

> <IUPAC Name>
(1,4-oxazepan-5-yl)methanol hydrochloride

> <CAS>
2260937-50-4

> <Purity>
95

> <URL>
https://www.enaminestore.com/catalog/EN300-6732376

> <Saltdate>
Cl

> <ROCS_ShapeQuery>
hit0

> <ROCS_TanimotoCombo>
0.979 

> <ROCS_ShapeTanimoto>
0.487 

> <ROCS_ColorTanimoto>
0.492 

> <ROCS_RefTversky>
1.278 

> <ROCS_RefColorTversky>
0.660 

> <ROCS_RefTverskyCombo>
1.938 

> <ROCS_FitTversky>
0.440 

> <ROCS_FitColorTversky>
0.660 

> <ROCS_FitTverskyCombo>
1.100 

> <ROCS_ColorScore>
-3.958

> <ROCS_Overlap>
154.997

> <ROCS_Rank>
469                 

$$$$
untitled-dbase-89339_82
  -OEChem-06232314393D

 22 22  0     1  0  0  0  0  0999 V2000
   -6.5583    6.2418  -36.6293 C   0  0  0  0  0  0  0  0  0  0  0  0
   -7.3098    4.5859  -34.3496 C   0  0  0  0  0  0  0  0  0  0  0  0
   -5.9687    7.1031  -35.5127 C   0  0  0  0  0  0  0  0  0  0  0  0
   -6.3381    5.5717  -33.7181 C   0  0  0  0  0  0  0  0  0  0  0  0
   -6.1233    4.7680  -36.5429 C   0  0  2  0  0  0  0  0  0  0  0  0
   -6.2982    4.0892  -37.9051 C   0  0  0  0  0  0  0  0  0  0  0  0
   -6.8386    3.9428  -35.5680 N   0  0  0  0  0  0  0  0  0  0  0  0
   -6.5561    6.8778  -34.2395 O   0  0  0  0  0  0  0  0  0  0  0  0
   -5.5029    4.7777  -38.8498 O   0  0  0  0  0  0  0  0  0  0  0  0
   -7.6441    6.2963  -36.5824 H   0  0  0  0  0  0  0  0  0  0  0  0
   -6.2459    6.6473  -37.5907 H   0  0  0  0  0  0  0  0  0  0  0  0
   -7.6674    3.8259  -33.6086 H   0  0  0  0  0  0  0  0  0  0  0  0
   -8.2306    5.1551  -34.6208 H   0  0  0  0  0  0  0  0  0  0  0  0
   -4.8979    6.8393  -35.4028 H   0  0  0  0  0  0  0  0  0  0  0  0
   -5.9757    8.1870  -35.7610 H   0  0  0  0  0  0  0  0  0  0  0  0
   -6.3977    5.5820  -32.6366 H   0  0  0  0  0  0  0  0  0  0  0  0
   -5.3292    5.2934  -34.0008 H   0  0  0  0  0  0  0  0  0  0  0  0
   -5.0660    4.7555  -36.2998 H   0  0  0  0  0  0  0  0  0  0  0  0
   -7.3428    4.1354  -38.2051 H   0  0  0  0  0  0  0  0  0  0  0  0
   -5.9738    3.0528  -37.8417 H   0  0  0  0  0  0  0  0  0  0  0  0
   -6.2413    3.1379  -35.3226 H   0  0  0  0  0  0  0  0  0  0  0  0
   -5.6260    4.3341  -39.7071 H   0  0  0  0  0  0  0  0  0  0  0  0
  1  3  1  0  0  0  0
  1  5  1  0  0  0  0
  2  4  1  0  0  0  0
  2  7  1  0  0  0  0
  3  8  1  0  0  0  0
  4  8  1  0  0  0  0
  5  6  1  0  0  0  0
  5  7  1  0  0  0  0
  6  9  1  0  0  0  0
  1 10  1  0  0  0  0
  1 11  1  0  0  0  0
  2 12  1  0  0  0  0
  2 13  1  0  0  0  0
  3 14  1  0  0  0  0
  3 15  1  0  0  0  0
  4 16  1  0  0  0  0
  4 17  1  0  0  0  0
  5 18  1  0  0  0  0
  6 19  1  0  0  0  0
  6 20  1  0  0  0  0
  7 21  1  0  0  0  0
  9 22  1  0  0  0  0
M  END
> <id>
EN300-6732377

> <smiles>
OCC1CCOCCN1

> <MDLNUMBER>
MFCD28133193

> <IUPAC Name>
(1,4-oxazepan-5-yl)methanol

> <CAS>
1781580-15-1

> <URL>
https://www.enaminestore.com/catalog/EN300-6732377

> <ROCS_ShapeQuery>
hit0

> <ROCS_TanimotoCombo>
0.979 

> <ROCS_ShapeTanimoto>
0.487 

> <ROCS_ColorTanimoto>
0.492 

> <ROCS_RefTversky>
1.278 

> <ROCS_RefColorTversky>
0.660 

> <ROCS_RefTverskyCombo>
1.938 

> <ROCS_FitTversky>
0.440 

> <ROCS_FitColorTversky>
0.660 

> <ROCS_FitTverskyCombo>
1.100 

> <ROCS_ColorScore>
-3.958

> <ROCS_Overlap>
154.997

> <ROCS_Rank>
470                 

$$$$
untitled-dbase-92768_0
  -OEChem-06232314393D

 11 11  0     1  0  0  0  0  0999 V2000
   -6.3864    4.0573  -36.8642 C   0  0  0  0  0  0  0  0  0  0  0  0
   -6.0111    5.0253  -35.7772 C   0  0  1  0  0  0  0  0  0  0  0  0
   -6.6640    6.3561  -35.6732 C   0  0  0  0  0  0  0  0  0  0  0  0
   -6.8785    3.9156  -35.5220 O   0  0  0  0  0  0  0  0  0  0  0  0
   -6.5087    6.8765  -34.3514 O   0  0  0  0  0  0  0  0  0  0  0  0
   -7.0893    4.3714  -37.6244 H   0  0  0  0  0  0  0  0  0  0  0  0
   -5.6385    3.3496  -37.1975 H   0  0  0  0  0  0  0  0  0  0  0  0
   -5.0102    4.9975  -35.3704 H   0  0  0  0  0  0  0  0  0  0  0  0
   -7.7463    6.3012  -35.8846 H   0  0  0  0  0  0  0  0  0  0  0  0
   -6.2226    7.0872  -36.3731 H   0  0  0  0  0  0  0  0  0  0  0  0
   -6.9314    6.2395  -33.7565 H   0  0  0  0  0  0  0  0  0  0  0  0
  1  2  1  0  0  0  0
  1  4  1  0  0  0  0
  2  3  1  6  0  0  0
  2  4  1  0  0  0  0
  3  5  1  0  0  0  0
  1  6  1  0  0  0  0
  1  7  1  0  0  0  0
  2  8  1  0  0  0  0
  3  9  1  0  0  0  0
  3 10  1  0  0  0  0
  5 11  1  0  0  0  0
M  END
> <id>
EN300-80398

> <smiles>
OC[C@@H]1CO1

> <MDLNUMBER>
MFCD00074873

> <IUPAC Name>
[(2R)-oxiran-2-yl]methanol

> <CAS>
57044-25-4

> <Purity>
95

> <URL>
https://www.enaminestore.com/catalog/EN300-80398

> <ROCS_ShapeQuery>
hit0

> <ROCS_TanimotoCombo>
0.979 

> <ROCS_ShapeTanimoto>
0.482 

> <ROCS_ColorTanimoto>
0.496 

> <ROCS_RefTversky>
0.868 

> <ROCS_RefColorTversky>
0.510 

> <ROCS_RefTverskyCombo>
1.378 

> <ROCS_FitTversky>
0.521 

> <ROCS_FitColorTversky>
0.947 

> <ROCS_FitTverskyCombo>
1.468 

> <ROCS_ColorScore>
-2.984

> <ROCS_Overlap>
97.720

> <ROCS_Rank>
471                 

$$$$
untitled-dbase-78827_11
  -OEChem-06232314393D

 21 21  0     1  0  0  0  0  0999 V2000
   -6.8364    3.0601  -36.0129 C   0  0  0  0  0  0  0  0  0  0  0  0
   -7.2721    4.1614  -35.2761 C   0  0  0  0  0  0  0  0  0  0  0  0
   -6.2319    3.2475  -37.2559 C   0  0  0  0  0  0  0  0  0  0  0  0
   -6.4990    5.6376  -37.0254 C   0  0  0  0  0  0  0  0  0  0  0  0
   -7.1035    5.4502  -35.7824 C   0  0  0  0  0  0  0  0  0  0  0  0
   -6.0632    4.5363  -37.7622 C   0  0  0  0  0  0  0  0  0  0  0  0
   -7.9481    7.8224  -35.8713 C   0  0  0  0  0  0  0  0  0  0  0  0
   -7.5701    6.6273  -34.9947 C   0  0  2  0  0  0  0  0  0  0  0  0
   -5.4515    4.7257  -39.0189 N   0  0  0  0  0  0  0  0  0  0  0  0
   -6.5261    7.0384  -34.1045 O   0  0  0  0  0  0  0  0  0  0  0  0
   -6.9677    2.0565  -35.6185 H   0  0  0  0  0  0  0  0  0  0  0  0
   -7.7422    4.0060  -34.3083 H   0  0  0  0  0  0  0  0  0  0  0  0
   -5.8957    2.3823  -37.8216 H   0  0  0  0  0  0  0  0  0  0  0  0
   -6.3680    6.6432  -37.4186 H   0  0  0  0  0  0  0  0  0  0  0  0
   -7.1176    8.1115  -36.5232 H   0  0  0  0  0  0  0  0  0  0  0  0
   -8.2288    8.6899  -35.2635 H   0  0  0  0  0  0  0  0  0  0  0  0
   -8.8171    7.5885  -36.4962 H   0  0  0  0  0  0  0  0  0  0  0  0
   -8.4405    6.3819  -34.3625 H   0  0  0  0  0  0  0  0  0  0  0  0
   -5.1009    3.9318  -39.5154 H   0  0  0  0  0  0  0  0  0  0  0  0
   -5.2940    5.6563  -39.3491 H   0  0  0  0  0  0  0  0  0  0  0  0
   -6.8720    7.7998  -33.6175 H   0  0  0  0  0  0  0  0  0  0  0  0
  1  2  1  0  0  0  0
  1  3  2  0  0  0  0
  2  5  2  0  0  0  0
  3  6  1  0  0  0  0
  4  5  1  0  0  0  0
  4  6  2  0  0  0  0
  5  8  1  0  0  0  0
  6  9  1  0  0  0  0
  7  8  1  6  0  0  0
  8 10  1  0  0  0  0
  1 11  1  0  0  0  0
  2 12  1  0  0  0  0
  3 13  1  0  0  0  0
  4 14  1  0  0  0  0
  7 15  1  0  0  0  0
  7 16  1  0  0  0  0
  7 17  1  0  0  0  0
  8 18  1  0  0  0  0
  9 19  1  0  0  0  0
  9 20  1  0  0  0  0
 10 21  1  0  0  0  0
M  END
> <id>
EN300-6474378

> <smiles>
C[C@H](O)C=1C=CC=C(N)C1

> <MDLNUMBER>
MFCD19204104

> <IUPAC Name>
(1S)-1-(3-aminophenyl)ethan-1-ol

> <CAS>
201939-72-2

> <Purity>
95

> <URL>
https://www.enaminestore.com/catalog/EN300-6474378

> <ROCS_ShapeQuery>
hit0

> <ROCS_TanimotoCombo>
0.978 

> <ROCS_ShapeTanimoto>
0.461 

> <ROCS_ColorTanimoto>
0.518 

> <ROCS_RefTversky>
1.352 

> <ROCS_RefColorTversky>
0.631 

> <ROCS_RefTverskyCombo>
1.983 

> <ROCS_FitTversky>
0.411 

> <ROCS_FitColorTversky>
0.743 

> <ROCS_FitTverskyCombo>
1.154 

> <ROCS_ColorScore>
-3.753

> <ROCS_Overlap>
167.945

> <ROCS_Rank>
472                 

$$$$
untitled-dbase-25449_11
  -OEChem-06232314393D

 21 21  0     1  0  0  0  0  0999 V2000
   -6.8364    3.0601  -36.0129 C   0  0  0  0  0  0  0  0  0  0  0  0
   -7.2721    4.1614  -35.2761 C   0  0  0  0  0  0  0  0  0  0  0  0
   -6.2319    3.2475  -37.2559 C   0  0  0  0  0  0  0  0  0  0  0  0
   -6.4990    5.6376  -37.0254 C   0  0  0  0  0  0  0  0  0  0  0  0
   -7.1035    5.4502  -35.7824 C   0  0  0  0  0  0  0  0  0  0  0  0
   -6.0632    4.5363  -37.7622 C   0  0  0  0  0  0  0  0  0  0  0  0
   -7.9481    7.8224  -35.8713 C   0  0  0  0  0  0  0  0  0  0  0  0
   -7.5701    6.6273  -34.9947 C   0  0  2  0  0  0  0  0  0  0  0  0
   -5.4515    4.7257  -39.0189 N   0  0  0  0  0  0  0  0  0  0  0  0
   -6.5261    7.0384  -34.1045 O   0  0  0  0  0  0  0  0  0  0  0  0
   -6.9677    2.0565  -35.6185 H   0  0  0  0  0  0  0  0  0  0  0  0
   -7.7422    4.0060  -34.3083 H   0  0  0  0  0  0  0  0  0  0  0  0
   -5.8957    2.3823  -37.8216 H   0  0  0  0  0  0  0  0  0  0  0  0
   -6.3680    6.6432  -37.4186 H   0  0  0  0  0  0  0  0  0  0  0  0
   -7.1176    8.1115  -36.5232 H   0  0  0  0  0  0  0  0  0  0  0  0
   -8.2288    8.6899  -35.2635 H   0  0  0  0  0  0  0  0  0  0  0  0
   -8.8171    7.5885  -36.4962 H   0  0  0  0  0  0  0  0  0  0  0  0
   -8.4405    6.3819  -34.3625 H   0  0  0  0  0  0  0  0  0  0  0  0
   -5.1009    3.9318  -39.5154 H   0  0  0  0  0  0  0  0  0  0  0  0
   -5.2940    5.6563  -39.3491 H   0  0  0  0  0  0  0  0  0  0  0  0
   -6.8720    7.7998  -33.6175 H   0  0  0  0  0  0  0  0  0  0  0  0
  1  2  1  0  0  0  0
  1  3  2  0  0  0  0
  2  5  2  0  0  0  0
  3  6  1  0  0  0  0
  4  5  1  0  0  0  0
  4  6  2  0  0  0  0
  5  8  1  0  0  0  0
  6  9  1  0  0  0  0
  7  8  1  0  0  0  0
  8 10  1  0  0  0  0
  1 11  1  0  0  0  0
  2 12  1  0  0  0  0
  3 13  1  0  0  0  0
  4 14  1  0  0  0  0
  7 15  1  0  0  0  0
  7 16  1  0  0  0  0
  7 17  1  0  0  0  0
  8 18  1  0  0  0  0
  9 19  1  0  0  0  0
  9 20  1  0  0  0  0
 10 21  1  0  0  0  0
M  END
> <id>
EN300-203214

> <smiles>
CC(O)C=1C=CC=C(N)C1

> <MDLNUMBER>
MFCD00007798

> <IUPAC Name>
1-(3-aminophenyl)ethan-1-ol

> <CAS>
2454-37-7

> <Purity>
95

> <URL>
https://www.enaminestore.com/catalog/EN300-203214

> <MP>
66-70

> <ROCS_ShapeQuery>
hit0

> <ROCS_TanimotoCombo>
0.978 

> <ROCS_ShapeTanimoto>
0.461 

> <ROCS_ColorTanimoto>
0.518 

> <ROCS_RefTversky>
1.352 

> <ROCS_RefColorTversky>
0.631 

> <ROCS_RefTverskyCombo>
1.983 

> <ROCS_FitTversky>
0.411 

> <ROCS_FitColorTversky>
0.743 

> <ROCS_FitTverskyCombo>
1.154 

> <ROCS_ColorScore>
-3.753

> <ROCS_Overlap>
167.945

> <ROCS_Rank>
473                 

$$$$
untitled-dbase-33481_17
  -OEChem-06232314393D

 20 20  0     1  0  0  0  0  0999 V2000
   -5.7748    5.0999  -38.7263 C   0  0  0  0  0  0  0  0  0  0  0  0
   -6.4151    4.0025  -37.8962 C   0  0  0  0  0  0  0  0  0  0  0  0
   -4.9172    5.8483  -37.7124 C   0  0  0  0  0  0  0  0  0  0  0  0
   -6.7998    4.7250  -36.6117 C   0  0  2  0  0  0  0  0  0  0  0  0
   -5.6772    5.7466  -36.3845 C   0  0  2  0  0  0  0  0  0  0  0  0
   -6.5122    6.9296  -34.2975 N   0  0  0  0  0  0  0  0  0  0  0  0
   -7.6479    7.5635  -36.6100 O   0  0  0  0  0  0  0  0  0  0  0  0
   -6.8831    3.8025  -35.5383 O   0  0  0  0  0  0  0  0  0  0  0  0
   -6.3472    7.3730  -35.8917 S   0  0  2  0  0  0  0  0  0  0  0  0
   -5.1402    4.6661  -39.5071 H   0  0  0  0  0  0  0  0  0  0  0  0
   -6.5126    5.7496  -39.2042 H   0  0  0  0  0  0  0  0  0  0  0  0
   -7.3156    3.6562  -38.4027 H   0  0  0  0  0  0  0  0  0  0  0  0
   -5.7437    3.1625  -37.7450 H   0  0  0  0  0  0  0  0  0  0  0  0
   -3.9017    5.4216  -37.6378 H   0  0  0  0  0  0  0  0  0  0  0  0
   -4.7940    6.9010  -38.0295 H   0  0  0  0  0  0  0  0  0  0  0  0
   -7.7925    5.1871  -36.7336 H   0  0  0  0  0  0  0  0  0  0  0  0
   -5.0041    5.4285  -35.5810 H   0  0  0  0  0  0  0  0  0  0  0  0
   -7.4587    6.8883  -33.9234 H   0  0  0  0  0  0  0  0  0  0  0  0
   -5.9470    7.4242  -33.6092 H   0  0  0  0  0  0  0  0  0  0  0  0
   -7.1295    4.3129  -34.7505 H   0  0  0  0  0  0  0  0  0  0  0  0
  1  2  1  0  0  0  0
  1  3  1  0  0  0  0
  2  4  1  0  0  0  0
  3  5  1  0  0  0  0
  4  5  1  0  0  0  0
  4  8  1  1  0  0  0
  5  9  1  6  0  0  0
  6  9  1  0  0  0  0
  7  9  2  0  0  0  0
  1 10  1  0  0  0  0
  1 11  1  0  0  0  0
  2 12  1  0  0  0  0
  2 13  1  0  0  0  0
  3 14  1  0  0  0  0
  3 15  1  0  0  0  0
  4 16  1  0  0  0  0
  5 17  1  0  0  0  0
  6 18  1  0  0  0  0
  6 19  1  0  0  0  0
  8 20  1  0  0  0  0
M  END
> <id>
EN300-732824

> <smiles>
NS(=O)[C@@H]1CCC[C@H]1O |&1:3,7,r|

> <IUPAC Name>
rac-(1R,2R)-2-hydroxycyclopentane-1-sulfinamide

> <CAS>
2137433-07-7

> <URL>
https://www.enaminestore.com/catalog/EN300-732824

> <ROCS_ShapeQuery>
hit0

> <ROCS_TanimotoCombo>
0.978 

> <ROCS_ShapeTanimoto>
0.550 

> <ROCS_ColorTanimoto>
0.428 

> <ROCS_RefTversky>
1.348 

> <ROCS_RefColorTversky>
0.508 

> <ROCS_RefTverskyCombo>
1.856 

> <ROCS_FitTversky>
0.482 

> <ROCS_FitColorTversky>
0.731 

> <ROCS_FitTverskyCombo>
1.213 

> <ROCS_ColorScore>
-2.998

> <ROCS_Overlap>
162.373

> <ROCS_Rank>
474                 

$$$$
untitled-dbase-78104_3
  -OEChem-06232314393D

 18 18  0     0  0  0  0  0  0999 V2000
   -5.9446    6.5173  -37.8190 C   0  0  0  0  0  0  0  0  0  0  0  0
   -5.9445    3.8448  -37.6825 C   0  0  0  0  0  0  0  0  0  0  0  0
   -6.4323    5.9291  -36.6693 C   0  0  0  0  0  0  0  0  0  0  0  0
   -6.4321    4.5471  -36.5987 C   0  0  0  0  0  0  0  0  0  0  0  0
   -6.9245    6.7629  -35.5831 C   0  0  0  0  0  0  0  0  0  0  0  0
   -8.5398    8.4197  -35.0042 C   0  0  0  0  0  0  0  0  0  0  0  0
   -5.4734    5.8051  -38.8644 N   0  0  0  0  0  0  0  0  0  0  0  0
   -5.4736    4.4469  -38.7951 N   0  0  0  0  0  0  0  0  0  0  0  0
   -6.9097    3.8617  -35.4673 N   0  0  0  0  0  0  0  0  0  0  0  0
   -6.4595    6.7638  -34.4361 O   0  0  0  0  0  0  0  0  0  0  0  0
   -7.9678    7.5501  -35.9871 O   0  0  0  0  0  0  0  0  0  0  0  0
   -5.9136    7.5939  -37.9461 H   0  0  0  0  0  0  0  0  0  0  0  0
   -5.9134    2.7608  -37.6996 H   0  0  0  0  0  0  0  0  0  0  0  0
   -9.3577    8.9892  -35.4522 H   0  0  0  0  0  0  0  0  0  0  0  0
   -7.7719    9.0998  -34.6270 H   0  0  0  0  0  0  0  0  0  0  0  0
   -8.9273    7.8174  -34.1791 H   0  0  0  0  0  0  0  0  0  0  0  0
   -7.2168    4.3838  -34.6693 H   0  0  0  0  0  0  0  0  0  0  0  0
   -6.8491    2.8621  -35.4362 H   0  0  0  0  0  0  0  0  0  0  0  0
  1  3  2  0  0  0  0
  1  7  1  0  0  0  0
  2  4  2  0  0  0  0
  2  8  1  0  0  0  0
  3  4  1  0  0  0  0
  3  5  1  0  0  0  0
  4  9  1  0  0  0  0
  5 10  2  0  0  0  0
  5 11  1  0  0  0  0
  6 11  1  0  0  0  0
  7  8  2  0  0  0  0
  1 12  1  0  0  0  0
  2 13  1  0  0  0  0
  6 14  1  0  0  0  0
  6 15  1  0  0  0  0
  6 16  1  0  0  0  0
  9 17  1  0  0  0  0
  9 18  1  0  0  0  0
M  END
> <id>
EN300-5271296

> <smiles>
COC(=O)C=1C=NN=CC1N

> <MDLNUMBER>
MFCD28676275

> <IUPAC Name>
methyl 5-aminopyridazine-4-carboxylate

> <CAS>
1147110-07-3

> <Purity>
95

> <URL>
https://www.enaminestore.com/catalog/EN300-5271296

> <ROCS_ShapeQuery>
hit0

> <ROCS_TanimotoCombo>
0.978 

> <ROCS_ShapeTanimoto>
0.462 

> <ROCS_ColorTanimoto>
0.516 

> <ROCS_RefTversky>
1.479 

> <ROCS_RefColorTversky>
0.697 

> <ROCS_RefTverskyCombo>
2.176 

> <ROCS_FitTversky>
0.402 

> <ROCS_FitColorTversky>
0.665 

> <ROCS_FitTverskyCombo>
1.067 

> <ROCS_ColorScore>
-4.192

> <ROCS_Overlap>
188.508

> <ROCS_Rank>
475                 

$$$$
untitled-dbase-177094_6
  -OEChem-06232314393D

 20 20  0     1  0  0  0  0  0999 V2000
   -5.5878    6.2048  -37.9969 C   0  0  0  0  0  0  0  0  0  0  0  0
   -6.2398    3.9320  -37.8454 C   0  0  0  0  0  0  0  0  0  0  0  0
   -6.2003    5.9446  -36.6185 C   0  0  1  0  0  0  0  0  0  0  0  0
   -5.9981    4.4428  -36.4346 C   0  0  1  0  0  0  0  0  0  0  0  0
   -5.5918    6.7960  -35.5150 C   0  0  0  0  0  0  0  0  0  0  0  0
   -5.5265    4.9042  -38.6769 N   0  0  0  0  0  0  0  0  0  0  0  0
   -6.9027    3.8525  -35.4622 N   0  0  0  0  0  0  0  0  0  0  0  0
   -6.4977    6.8453  -34.4259 O   0  0  0  0  0  0  0  0  0  0  0  0
   -6.2022    6.9137  -38.5629 H   0  0  0  0  0  0  0  0  0  0  0  0
   -4.5756    6.6165  -37.9280 H   0  0  0  0  0  0  0  0  0  0  0  0
   -5.8509    2.9203  -37.9954 H   0  0  0  0  0  0  0  0  0  0  0  0
   -7.3068    3.9364  -38.1016 H   0  0  0  0  0  0  0  0  0  0  0  0
   -7.2763    6.1658  -36.6748 H   0  0  0  0  0  0  0  0  0  0  0  0
   -4.9681    4.2305  -36.1328 H   0  0  0  0  0  0  0  0  0  0  0  0
   -5.4129    7.8103  -35.8769 H   0  0  0  0  0  0  0  0  0  0  0  0
   -4.6505    6.3587  -35.1771 H   0  0  0  0  0  0  0  0  0  0  0  0
   -5.9408    4.9576  -39.6057 H   0  0  0  0  0  0  0  0  0  0  0  0
   -6.7459    2.8708  -35.4390 H   0  0  0  0  0  0  0  0  0  0  0  0
   -6.7157    4.2542  -34.5720 H   0  0  0  0  0  0  0  0  0  0  0  0
   -6.6322    5.9303  -34.1267 H   0  0  0  0  0  0  0  0  0  0  0  0
  1  3  1  0  0  0  0
  1  6  1  0  0  0  0
  2  4  1  0  0  0  0
  2  6  1  0  0  0  0
  3  4  1  0  0  0  0
  3  5  1  0  0  0  0
  4  7  1  0  0  0  0
  5  8  1  0  0  0  0
  1  9  1  0  0  0  0
  1 10  1  0  0  0  0
  2 11  1  0  0  0  0
  2 12  1  0  0  0  0
  3 13  1  0  0  0  0
  4 14  1  0  0  0  0
  5 15  1  0  0  0  0
  5 16  1  0  0  0  0
  6 17  1  0  0  0  0
  7 18  1  0  0  0  0
  7 19  1  0  0  0  0
  8 20  1  0  0  0  0
M  END
> <id>
EN300-7062864

> <smiles>
NC1CNCC1CO

> <MDLNUMBER>
MFCD19214903

> <IUPAC Name>
(4-aminopyrrolidin-3-yl)methanol

> <CAS>
128740-41-0

> <URL>
https://www.enaminestore.com/catalog/EN300-7062864

> <ROCS_ShapeQuery>
hit0

> <ROCS_TanimotoCombo>
0.978 

> <ROCS_ShapeTanimoto>
0.543 

> <ROCS_ColorTanimoto>
0.435 

> <ROCS_RefTversky>
1.276 

> <ROCS_RefColorTversky>
0.651 

> <ROCS_RefTverskyCombo>
1.927 

> <ROCS_FitTversky>
0.486 

> <ROCS_FitColorTversky>
0.567 

> <ROCS_FitTverskyCombo>
1.053 

> <ROCS_ColorScore>
-3.942

> <ROCS_Overlap>
152.074

> <ROCS_Rank>
476                 

$$$$
untitled-dbase-57638_1
  -OEChem-06232314393D

 19 19  0     0  0  0  0  0  0999 V2000
   -5.9627    5.9038  -36.6662 C   0  0  0  0  0  0  0  0  0  0  0  0
   -5.4820    6.0106  -37.9850 C   0  0  0  0  0  0  0  0  0  0  0  0
   -6.3383    4.5884  -36.5431 C   0  0  0  0  0  0  0  0  0  0  0  0
   -6.0589    6.9089  -35.6496 C   0  0  0  0  0  0  0  0  0  0  0  0
   -4.9526    7.2094  -38.6590 C   0  0  0  0  0  0  0  0  0  0  0  0
   -6.2889    2.6313  -38.1249 C   0  0  0  0  0  0  0  0  0  0  0  0
   -5.5451    4.8552  -38.6520 N   0  0  0  0  0  0  0  0  0  0  0  0
   -6.0698    4.0097  -37.7487 N   0  0  0  0  0  0  0  0  0  0  0  0
   -6.8704    3.8830  -35.5226 N   0  0  0  0  0  0  0  0  0  0  0  0
   -6.5058    6.7002  -34.5054 O   0  0  0  0  0  0  0  0  0  0  0  0
   -5.7130    7.9480  -35.8931 H   0  0  0  0  0  0  0  0  0  0  0  0
   -3.8625    7.2999  -38.5158 H   0  0  0  0  0  0  0  0  0  0  0  0
   -5.1457    7.1951  -39.7462 H   0  0  0  0  0  0  0  0  0  0  0  0
   -5.4164    8.1380  -38.2816 H   0  0  0  0  0  0  0  0  0  0  0  0
   -7.2963    2.5516  -38.5417 H   0  0  0  0  0  0  0  0  0  0  0  0
   -5.5433    2.3336  -38.8674 H   0  0  0  0  0  0  0  0  0  0  0  0
   -6.1881    1.9951  -37.2411 H   0  0  0  0  0  0  0  0  0  0  0  0
   -7.1386    2.8926  -35.6216 H   0  0  0  0  0  0  0  0  0  0  0  0
   -7.1219    4.3227  -34.6248 H   0  0  0  0  0  0  0  0  0  0  0  0
  1  2  1  0  0  0  0
  1  3  2  0  0  0  0
  1  4  1  0  0  0  0
  2  5  1  0  0  0  0
  2  7  2  0  0  0  0
  3  8  1  0  0  0  0
  3  9  1  0  0  0  0
  4 10  2  0  0  0  0
  6  8  1  0  0  0  0
  7  8  1  0  0  0  0
  4 11  1  0  0  0  0
  5 12  1  0  0  0  0
  5 13  1  0  0  0  0
  5 14  1  0  0  0  0
  6 15  1  0  0  0  0
  6 16  1  0  0  0  0
  6 17  1  0  0  0  0
  9 18  1  0  0  0  0
  9 19  1  0  0  0  0
M  END
> <id>
EN300-209539

> <smiles>
CC1=NN(C)C(N)=C1C=O

> <MDLNUMBER>
MFCD19204993

> <IUPAC Name>
5-amino-1,3-dimethyl-1H-pyrazole-4-carbaldehyde

> <CAS>
57411-70-8

> <Purity>
95

> <URL>
https://www.enaminestore.com/catalog/EN300-209539

> <ROCS_ShapeQuery>
hit0

> <ROCS_TanimotoCombo>
0.978 

> <ROCS_ShapeTanimoto>
0.431 

> <ROCS_ColorTanimoto>
0.547 

> <ROCS_RefTversky>
1.325 

> <ROCS_RefColorTversky>
0.654 

> <ROCS_RefTverskyCombo>
1.978 

> <ROCS_FitTversky>
0.389 

> <ROCS_FitColorTversky>
0.770 

> <ROCS_FitTverskyCombo>
1.160 

> <ROCS_ColorScore>
-3.890

> <ROCS_Overlap>
165.790

> <ROCS_Rank>
477                 

$$$$
untitled-dbase-172353_3
  -OEChem-06232314393D

 21 21  0     1  0  0  0  0  0999 V2000
   -5.3381    4.9768  -37.7034 C   0  0  0  0  0  0  0  0  0  0  0  0
   -6.7419    7.9912  -35.8018 C   0  0  0  0  0  0  0  0  0  0  0  0
   -6.7114    7.3725  -34.4087 C   0  0  0  0  0  0  0  0  0  0  0  0
   -5.8954    7.1890  -36.7845 C   0  0  0  0  0  0  0  0  0  0  0  0
   -7.1498    5.9143  -34.4439 C   0  0  0  0  0  0  0  0  0  0  0  0
   -6.3063    5.7148  -36.8256 C   0  0  2  0  0  0  0  0  0  0  0  0
   -6.3211    5.0859  -35.4264 C   0  0  2  0  0  0  0  0  0  0  0  0
   -5.4826    4.8538  -38.9152 O   0  0  0  0  0  0  0  0  0  0  0  0
   -6.9047    3.7844  -35.4817 O   0  0  0  0  0  0  0  0  0  0  0  0
   -4.4667    4.5383  -37.1886 H   0  0  0  0  0  0  0  0  0  0  0  0
   -7.7771    8.0360  -36.1615 H   0  0  0  0  0  0  0  0  0  0  0  0
   -6.3749    9.0226  -35.7556 H   0  0  0  0  0  0  0  0  0  0  0  0
   -5.6967    7.4408  -33.9979 H   0  0  0  0  0  0  0  0  0  0  0  0
   -7.3677    7.9392  -33.7389 H   0  0  0  0  0  0  0  0  0  0  0  0
   -5.9819    7.6289  -37.7859 H   0  0  0  0  0  0  0  0  0  0  0  0
   -4.8372    7.2763  -36.5035 H   0  0  0  0  0  0  0  0  0  0  0  0
   -7.0778    5.4767  -33.4406 H   0  0  0  0  0  0  0  0  0  0  0  0
   -8.2121    5.8537  -34.7151 H   0  0  0  0  0  0  0  0  0  0  0  0
   -7.2952    5.6121  -37.2889 H   0  0  0  0  0  0  0  0  0  0  0  0
   -5.3009    4.9744  -35.0381 H   0  0  0  0  0  0  0  0  0  0  0  0
   -6.8634    3.4272  -34.5817 H   0  0  0  0  0  0  0  0  0  0  0  0
  1  6  1  1  0  0  0
  1  8  2  0  0  0  0
  2  3  1  0  0  0  0
  2  4  1  0  0  0  0
  3  5  1  0  0  0  0
  4  6  1  0  0  0  0
  5  7  1  0  0  0  0
  6  7  1  0  0  0  0
  7  9  1  6  0  0  0
  1 10  1  0  0  0  0
  2 11  1  0  0  0  0
  2 12  1  0  0  0  0
  3 13  1  0  0  0  0
  3 14  1  0  0  0  0
  4 15  1  0  0  0  0
  4 16  1  0  0  0  0
  5 17  1  0  0  0  0
  5 18  1  0  0  0  0
  6 19  1  0  0  0  0
  7 20  1  0  0  0  0
  9 21  1  0  0  0  0
M  END
> <id>
EN300-27694896

> <smiles>
O[C@@H]1CCCC[C@H]1C=O |&1:1,6,r|

> <IUPAC Name>
rac-(1R,2R)-2-hydroxycyclohexane-1-carbaldehyde

> <CAS>
905856-91-9

> <URL>
https://www.enaminestore.com/catalog/EN300-27694896

> <ROCS_ShapeQuery>
hit0

> <ROCS_TanimotoCombo>
0.978 

> <ROCS_ShapeTanimoto>
0.554 

> <ROCS_ColorTanimoto>
0.424 

> <ROCS_RefTversky>
1.393 

> <ROCS_RefColorTversky>
0.504 

> <ROCS_RefTverskyCombo>
1.897 

> <ROCS_FitTversky>
0.479 

> <ROCS_FitColorTversky>
0.726 

> <ROCS_FitTverskyCombo>
1.205 

> <ROCS_ColorScore>
-2.976

> <ROCS_Overlap>
168.959

> <ROCS_Rank>
478                 

$$$$
untitled-dbase-8553_0
  -OEChem-06232314393D

 16 15  0     0  0  0  0  0  0999 V2000
   -5.6880    5.0298  -37.5524 C   0  0  0  0  0  0  0  0  0  0  0  0
   -6.9388    4.2450  -35.5934 C   0  0  0  0  0  0  0  0  0  0  0  0
   -4.5260    4.8987  -35.3885 C   0  0  0  0  0  0  0  0  0  0  0  0
   -6.3032    6.6611  -35.7946 C   0  0  0  0  0  0  0  0  0  0  0  0
   -5.8551    5.2152  -36.0917 C   0  0  0  0  0  0  0  0  0  0  0  0
   -5.5568    4.8856  -38.6964 N   0  0  0  0  0  0  0  0  0  0  0  0
   -6.5001    6.8863  -34.4026 O   0  0  0  0  0  0  0  0  0  0  0  0
   -7.0982    4.3461  -34.5130 H   0  0  0  0  0  0  0  0  0  0  0  0
   -6.6618    3.2040  -35.7949 H   0  0  0  0  0  0  0  0  0  0  0  0
   -7.9013    4.4349  -36.0835 H   0  0  0  0  0  0  0  0  0  0  0  0
   -4.6140    5.0261  -34.3037 H   0  0  0  0  0  0  0  0  0  0  0  0
   -3.7154    5.5483  -35.7389 H   0  0  0  0  0  0  0  0  0  0  0  0
   -4.2125    3.8651  -35.5788 H   0  0  0  0  0  0  0  0  0  0  0  0
   -7.2575    6.8745  -36.2891 H   0  0  0  0  0  0  0  0  0  0  0  0
   -5.5734    7.3943  -36.1580 H   0  0  0  0  0  0  0  0  0  0  0  0
   -6.7778    7.8110  -34.3075 H   0  0  0  0  0  0  0  0  0  0  0  0
  1  5  1  0  0  0  0
  1  6  3  0  0  0  0
  2  5  1  0  0  0  0
  3  5  1  0  0  0  0
  4  5  1  0  0  0  0
  4  7  1  0  0  0  0
  2  8  1  0  0  0  0
  2  9  1  0  0  0  0
  2 10  1  0  0  0  0
  3 11  1  0  0  0  0
  3 12  1  0  0  0  0
  3 13  1  0  0  0  0
  4 14  1  0  0  0  0
  4 15  1  0  0  0  0
  7 16  1  0  0  0  0
M  END
> <id>
EN300-91121

> <smiles>
CC(C)(CO)C#N

> <MDLNUMBER>
MFCD12028479

> <IUPAC Name>
3-hydroxy-2,2-dimethylpropanenitrile

> <CAS>
19295-57-9

> <Purity>
95

> <URL>
https://www.enaminestore.com/catalog/EN300-91121

> <ROCS_ShapeQuery>
hit0

> <ROCS_TanimotoCombo>
0.978 

> <ROCS_ShapeTanimoto>
0.555 

> <ROCS_ColorTanimoto>
0.423 

> <ROCS_RefTversky>
1.151 

> <ROCS_RefColorTversky>
0.504 

> <ROCS_RefTverskyCombo>
1.654 

> <ROCS_FitTversky>
0.517 

> <ROCS_FitColorTversky>
0.725 

> <ROCS_FitTverskyCombo>
1.242 

> <ROCS_ColorScore>
-2.971

> <ROCS_Overlap>
133.937

> <ROCS_Rank>
479                 

$$$$
untitled-dbase-50614_2
  -OEChem-06232314393D

 12 11  0     0  0  0  0  0  0999 V2000
   -5.4052    5.3295  -37.8315 C   0  0  0  0  0  0  0  0  0  0  0  0
   -7.9944    6.3336  -36.5690 C   0  0  0  0  0  0  0  0  0  0  0  0
   -5.2273    6.0662  -36.5855 C   0  0  0  0  0  0  0  0  0  0  0  0
   -5.5418    4.7449  -38.8245 N   0  0  0  0  0  0  0  0  0  0  0  0
   -6.7884    4.2950  -35.4634 O   0  0  0  0  0  0  0  0  0  0  0  0
   -6.5621    6.5710  -34.3954 O   0  0  0  0  0  0  0  0  0  0  0  0
   -6.6500    5.7338  -35.5758 S   0  0  0  0  0  0  0  0  0  0  0  0
   -8.9251    6.1701  -36.0236 H   0  0  0  0  0  0  0  0  0  0  0  0
   -7.8397    7.3981  -36.7511 H   0  0  0  0  0  0  0  0  0  0  0  0
   -8.0004    5.7813  -37.5099 H   0  0  0  0  0  0  0  0  0  0  0  0
   -5.1790    7.1453  -36.7470 H   0  0  0  0  0  0  0  0  0  0  0  0
   -4.3440    5.7372  -36.0337 H   0  0  0  0  0  0  0  0  0  0  0  0
  1  3  1  0  0  0  0
  1  4  3  0  0  0  0
  2  7  1  0  0  0  0
  3  7  1  0  0  0  0
  5  7  2  0  0  0  0
  6  7  2  0  0  0  0
  2  8  1  0  0  0  0
  2  9  1  0  0  0  0
  2 10  1  0  0  0  0
  3 11  1  0  0  0  0
  3 12  1  0  0  0  0
M  END
> <id>
EN300-16459

> <smiles>
CS(=O)(=O)CC#N

> <MDLNUMBER>
MFCD00014743

> <IUPAC Name>
2-methanesulfonylacetonitrile

> <CAS>
2274-42-2

> <Purity>
95

> <URL>
https://www.enaminestore.com/catalog/EN300-16459

> <MP>
81-84

> <ROCS_ShapeQuery>
hit0

> <ROCS_TanimotoCombo>
0.977 

> <ROCS_ShapeTanimoto>
0.560 

> <ROCS_ColorTanimoto>
0.418 

> <ROCS_RefTversky>
1.124 

> <ROCS_RefColorTversky>
0.453 

> <ROCS_RefTverskyCombo>
1.577 

> <ROCS_FitTversky>
0.527 

> <ROCS_FitColorTversky>
0.841 

> <ROCS_FitTverskyCombo>
1.368 

> <ROCS_ColorScore>
-2.652

> <ROCS_Overlap>
130.092

> <ROCS_Rank>
480                 

$$$$
untitled-dbase-71774_6
  -OEChem-06232314393D

 14 14  0     0  0  0  0  0  0999 V2000
   -6.2369    7.0383  -36.7790 C   0  0  0  0  0  0  0  0  0  0  0  0
   -6.4626    5.6663  -36.7780 C   0  0  0  0  0  0  0  0  0  0  0  0
   -6.6901    5.0057  -35.5758 C   0  0  0  0  0  0  0  0  0  0  0  0
   -6.2488    7.6984  -35.5609 C   0  0  0  0  0  0  0  0  0  0  0  0
   -6.6815    5.7568  -34.4115 C   0  0  0  0  0  0  0  0  0  0  0  0
   -6.4563    4.9430  -38.0415 C   0  0  0  0  0  0  0  0  0  0  0  0
   -6.4661    7.0909  -34.3729 N   0  0  0  0  0  0  0  0  0  0  0  0
   -5.4768    4.9056  -38.7899 O   0  0  0  0  0  0  0  0  0  0  0  0
   -6.9150    3.6677  -35.5275 O   0  0  0  0  0  0  0  0  0  0  0  0
   -6.0330    9.0229  -35.5478 F   0  0  0  0  0  0  0  0  0  0  0  0
   -6.8996    5.1375  -33.2403 F   0  0  0  0  0  0  0  0  0  0  0  0
   -6.0579    7.5844  -37.6992 H   0  0  0  0  0  0  0  0  0  0  0  0
   -7.3867    4.4068  -38.3267 H   0  0  0  0  0  0  0  0  0  0  0  0
   -6.8896    3.2863  -36.4208 H   0  0  0  0  0  0  0  0  0  0  0  0
  1  2  2  0  0  0  0
  1  4  1  0  0  0  0
  2  3  1  0  0  0  0
  2  6  1  0  0  0  0
  3  5  2  0  0  0  0
  3  9  1  0  0  0  0
  4  7  2  0  0  0  0
  4 10  1  0  0  0  0
  5  7  1  0  0  0  0
  5 11  1  0  0  0  0
  6  8  2  0  0  0  0
  1 12  1  0  0  0  0
  6 13  1  0  0  0  0
  9 14  1  0  0  0  0
M  END
> <id>
EN300-37430160

> <smiles>
OC=1C(F)=NC(F)=CC1C=O

> <IUPAC Name>
2,6-difluoro-3-hydroxypyridine-4-carbaldehyde

> <URL>
https://www.enaminestore.com/catalog/EN300-37430160

> <ROCS_ShapeQuery>
hit0

> <ROCS_TanimotoCombo>
0.977 

> <ROCS_ShapeTanimoto>
0.424 

> <ROCS_ColorTanimoto>
0.553 

> <ROCS_RefTversky>
1.402 

> <ROCS_RefColorTversky>
0.658 

> <ROCS_RefTverskyCombo>
2.060 

> <ROCS_FitTversky>
0.378 

> <ROCS_FitColorTversky>
0.776 

> <ROCS_FitTverskyCombo>
1.154 

> <ROCS_ColorScore>
-3.916

> <ROCS_Overlap>
178.927

> <ROCS_Rank>
481                 

$$$$
untitled-dbase-145480_6
  -OEChem-06232314393D

 16 16  0     0  0  0  0  0  0999 V2000
   -6.4896    3.4953  -37.1002 C   0  0  0  0  0  0  0  0  0  0  0  0
   -5.9615    4.7071  -37.4979 C   0  0  0  0  0  0  0  0  0  0  0  0
   -5.9123    5.7292  -36.5663 C   0  0  0  0  0  0  0  0  0  0  0  0
   -6.3947    5.4719  -35.2988 C   0  0  0  0  0  0  0  0  0  0  0  0
   -6.9545    3.2716  -35.8528 N   0  0  0  0  0  0  0  0  0  0  0  0
   -6.9064    4.2763  -34.9373 N   0  0  0  0  0  0  0  0  0  0  0  0
   -5.4967    4.8638  -38.8169 N   0  0  0  0  0  0  0  0  0  0  0  0
   -6.7314    7.7817  -34.6107 N   0  0  0  0  0  0  0  0  0  0  0  0
   -6.3612    6.4919  -34.3195 N   0  0  0  0  0  0  0  0  0  0  0  0
   -5.2641    7.2760  -36.9900 Cl  0  0  0  0  0  0  0  0  0  0  0  0
   -6.5603    2.6492  -37.7751 H   0  0  0  0  0  0  0  0  0  0  0  0
   -5.1580    5.7578  -39.1152 H   0  0  0  0  0  0  0  0  0  0  0  0
   -5.5979    4.1077  -39.4659 H   0  0  0  0  0  0  0  0  0  0  0  0
   -7.5832    7.7491  -35.1689 H   0  0  0  0  0  0  0  0  0  0  0  0
   -6.0185    8.1959  -35.2098 H   0  0  0  0  0  0  0  0  0  0  0  0
   -6.2651    6.2154  -33.3548 H   0  0  0  0  0  0  0  0  0  0  0  0
  1  2  1  0  0  0  0
  1  5  2  0  0  0  0
  2  3  2  0  0  0  0
  2  7  1  0  0  0  0
  3  4  1  0  0  0  0
  3 10  1  0  0  0  0
  4  6  2  0  0  0  0
  4  9  1  0  0  0  0
  5  6  1  0  0  0  0
  8  9  1  0  0  0  0
  1 11  1  0  0  0  0
  7 12  1  0  0  0  0
  7 13  1  0  0  0  0
  8 14  1  0  0  0  0
  8 15  1  0  0  0  0
  9 16  1  0  0  0  0
M  END
> <id>
EN300-108601

> <smiles>
NNC=1N=NC=C(N)C1Cl

> <MDLNUMBER>
MFCD19201393

> <IUPAC Name>
5-chloro-6-hydrazinylpyridazin-4-amine

> <CAS>
61071-29-2

> <Purity>
95

> <URL>
https://www.enaminestore.com/catalog/EN300-108601

> <MP>
205-208

> <ROCS_ShapeQuery>
hit0

> <ROCS_TanimotoCombo>
0.977 

> <ROCS_ShapeTanimoto>
0.490 

> <ROCS_ColorTanimoto>
0.488 

> <ROCS_RefTversky>
1.420 

> <ROCS_RefColorTversky>
0.734 

> <ROCS_RefTverskyCombo>
2.154 

> <ROCS_FitTversky>
0.428 

> <ROCS_FitColorTversky>
0.592 

> <ROCS_FitTverskyCombo>
1.020 

> <ROCS_ColorScore>
-4.464

> <ROCS_Overlap>
176.732

> <ROCS_Rank>
482                 

$$$$
untitled-dbase-76144_76
  -OEChem-06232314393D

 21 21  0     0  0  0  0  0  0999 V2000
   -5.6302    3.4120  -37.9953 C   0  0  0  0  0  0  0  0  0  0  0  0
   -5.6548    3.2503  -36.4758 C   0  0  0  0  0  0  0  0  0  0  0  0
   -5.1213    5.7335  -37.6029 C   0  0  0  0  0  0  0  0  0  0  0  0
   -7.2451    5.0659  -36.3008 C   0  0  0  0  0  0  0  0  0  0  0  0
   -6.1670    6.1272  -36.5494 C   0  0  0  0  0  0  0  0  0  0  0  0
   -5.4943    6.5834  -35.2589 C   0  0  0  0  0  0  0  0  0  0  0  0
   -5.6447    4.7524  -38.4919 O   0  0  0  0  0  0  0  0  0  0  0  0
   -6.7904    3.8074  -35.8270 O   0  0  0  0  0  0  0  0  0  0  0  0
   -6.5014    6.9426  -34.3325 O   0  0  0  0  0  0  0  0  0  0  0  0
   -6.8307    7.2223  -37.0497 F   0  0  0  0  0  0  0  0  0  0  0  0
   -4.6837    2.9508  -38.3844 H   0  0  0  0  0  0  0  0  0  0  0  0
   -6.4490    2.8107  -38.4887 H   0  0  0  0  0  0  0  0  0  0  0  0
   -5.6553    2.1711  -36.2340 H   0  0  0  0  0  0  0  0  0  0  0  0
   -4.7374    3.6706  -36.0157 H   0  0  0  0  0  0  0  0  0  0  0  0
   -4.8128    6.5913  -38.1695 H   0  0  0  0  0  0  0  0  0  0  0  0
   -4.2710    5.2747  -37.1327 H   0  0  0  0  0  0  0  0  0  0  0  0
   -8.0631    5.4581  -35.6458 H   0  0  0  0  0  0  0  0  0  0  0  0
   -7.7532    4.8402  -37.2658 H   0  0  0  0  0  0  0  0  0  0  0  0
   -4.8610    7.4463  -35.4588 H   0  0  0  0  0  0  0  0  0  0  0  0
   -4.8962    5.7717  -34.8481 H   0  0  0  0  0  0  0  0  0  0  0  0
   -7.0157    7.6642  -34.7336 H   0  0  0  0  0  0  0  0  0  0  0  0
  1  2  1  0  0  0  0
  1  7  1  0  0  0  0
  2  8  1  0  0  0  0
  3  5  1  0  0  0  0
  3  7  1  0  0  0  0
  4  5  1  0  0  0  0
  4  8  1  0  0  0  0
  5  6  1  0  0  0  0
  5 10  1  0  0  0  0
  6  9  1  0  0  0  0
  1 11  1  0  0  0  0
  1 12  1  0  0  0  0
  2 13  1  0  0  0  0
  2 14  1  0  0  0  0
  3 15  1  0  0  0  0
  3 16  1  0  0  0  0
  4 17  1  0  0  0  0
  4 18  1  0  0  0  0
  6 19  1  0  0  0  0
  6 20  1  0  0  0  0
  9 21  1  0  0  0  0
M  END
> <id>
EN300-7501685

> <smiles>
OCC1(F)COCCOC1

> <MDLNUMBER>
MFCD32268469

> <IUPAC Name>
(6-fluoro-1,4-dioxepan-6-yl)methanol

> <CAS>
2408975-66-4

> <Purity>
95

> <URL>
https://www.enaminestore.com/catalog/EN300-7501685

> <ROCS_ShapeQuery>
hit0

> <ROCS_TanimotoCombo>
0.977 

> <ROCS_ShapeTanimoto>
0.449 

> <ROCS_ColorTanimoto>
0.528 

> <ROCS_RefTversky>
1.329 

> <ROCS_RefColorTversky>
0.639 

> <ROCS_RefTverskyCombo>
1.968 

> <ROCS_FitTversky>
0.404 

> <ROCS_FitColorTversky>
0.753 

> <ROCS_FitTverskyCombo>
1.157 

> <ROCS_ColorScore>
-3.801

> <ROCS_Overlap>
165.117

> <ROCS_Rank>
483                 

$$$$
untitled-dbase-84533_10
  -OEChem-06232314393D

 21 22  0     0  0  0  0  0  0999 V2000
   -6.9958    9.0211  -37.8917 C   0  0  0  0  0  0  0  0  0  0  0  0
   -6.9553    9.7367  -36.6952 C   0  0  0  0  0  0  0  0  0  0  0  0
   -6.8702    7.6319  -37.8781 C   0  0  0  0  0  0  0  0  0  0  0  0
   -6.7891    9.0633  -35.4850 C   0  0  0  0  0  0  0  0  0  0  0  0
   -6.2827    3.3677  -36.9034 C   0  0  0  0  0  0  0  0  0  0  0  0
   -6.7040    6.9585  -36.6680 C   0  0  0  0  0  0  0  0  0  0  0  0
   -6.0823    4.5953  -37.5580 C   0  0  0  0  0  0  0  0  0  0  0  0
   -6.6634    7.6742  -35.4714 C   0  0  0  0  0  0  0  0  0  0  0  0
   -6.5757    5.5193  -36.6755 C   0  0  0  0  0  0  0  0  0  0  0  0
   -6.8565    3.5188  -35.7065 N   0  0  0  0  0  0  0  0  0  0  0  0
   -5.5335    4.8091  -38.7689 N   0  0  0  0  0  0  0  0  0  0  0  0
   -7.0407    4.8891  -35.5666 O   0  0  0  0  0  0  0  0  0  0  0  0
   -6.5015    7.0418  -34.2739 O   0  0  0  0  0  0  0  0  0  0  0  0
   -7.1243    9.5456  -38.8342 H   0  0  0  0  0  0  0  0  0  0  0  0
   -7.0536   10.8183  -36.7057 H   0  0  0  0  0  0  0  0  0  0  0  0
   -6.9046    7.0897  -38.8198 H   0  0  0  0  0  0  0  0  0  0  0  0
   -6.7588    9.6270  -34.5565 H   0  0  0  0  0  0  0  0  0  0  0  0
   -6.0383    2.3707  -37.2408 H   0  0  0  0  0  0  0  0  0  0  0  0
   -5.1458    4.0426  -39.3421 H   0  0  0  0  0  0  0  0  0  0  0  0
   -5.3856    5.7584  -39.1475 H   0  0  0  0  0  0  0  0  0  0  0  0
   -6.4276    6.0846  -34.4094 H   0  0  0  0  0  0  0  0  0  0  0  0
  1  2  2  0  0  0  0
  1  3  1  0  0  0  0
  2  4  1  0  0  0  0
  3  6  2  0  0  0  0
  4  8  2  0  0  0  0
  5  7  1  0  0  0  0
  5 10  2  0  0  0  0
  6  8  1  0  0  0  0
  6  9  1  0  0  0  0
  7  9  2  0  0  0  0
  7 11  1  0  0  0  0
  8 13  1  0  0  0  0
  9 12  1  0  0  0  0
 10 12  1  0  0  0  0
  1 14  1  0  0  0  0
  2 15  1  0  0  0  0
  3 16  1  0  0  0  0
  4 17  1  0  0  0  0
  5 18  1  0  0  0  0
 11 19  1  0  0  0  0
 11 20  1  0  0  0  0
 13 21  1  0  0  0  0
M  END
> <id>
EN300-1804373

> <smiles>
NC=1C=NOC1C=2C=CC=CC2O

> <IUPAC Name>
2-(4-amino-1,2-oxazol-5-yl)phenol

> <CAS>
1780343-21-6

> <URL>
https://www.enaminestore.com/catalog/EN300-1804373

> <ROCS_ShapeQuery>
hit0

> <ROCS_TanimotoCombo>
0.977 

> <ROCS_ShapeTanimoto>
0.381 

> <ROCS_ColorTanimoto>
0.596 

> <ROCS_RefTversky>
1.465 

> <ROCS_RefColorTversky>
0.802 

> <ROCS_RefTverskyCombo>
2.267 

> <ROCS_FitTversky>
0.340 

> <ROCS_FitColorTversky>
0.698 

> <ROCS_FitTverskyCombo>
1.038 

> <ROCS_ColorScore>
-4.853

> <ROCS_Overlap>
194.689

> <ROCS_Rank>
484                 

$$$$
untitled-dbase-156614_10
  -OEChem-06232314393D

 18 18  0     0  0  0  0  0  0999 V2000
   -6.1386    3.0056  -37.3459 C   0  0  0  0  0  0  0  0  0  0  0  0
   -6.6350    2.5258  -36.1339 C   0  0  0  0  0  0  0  0  0  0  0  0
   -6.8856    4.7934  -35.3388 C   0  0  0  0  0  0  0  0  0  0  0  0
   -6.0156    4.3794  -37.5543 C   0  0  0  0  0  0  0  0  0  0  0  0
   -7.0085    3.4196  -35.1304 C   0  0  0  0  0  0  0  0  0  0  0  0
   -6.3891    5.2732  -36.5507 C   0  0  0  0  0  0  0  0  0  0  0  0
   -7.2885    5.7492  -34.2567 C   0  0  0  0  0  0  0  0  0  0  0  0
   -5.5087    4.8301  -38.7945 N   0  0  0  0  0  0  0  0  0  0  0  0
   -6.4921    6.9209  -34.3512 O   0  0  0  0  0  0  0  0  0  0  0  0
   -7.6181    2.7811  -33.6462 Cl  0  0  0  0  0  0  0  0  0  0  0  0
   -6.2360    6.9814  -36.8109 Cl  0  0  0  0  0  0  0  0  0  0  0  0
   -5.8507    2.2990  -38.1203 H   0  0  0  0  0  0  0  0  0  0  0  0
   -6.7243    1.4522  -35.9876 H   0  0  0  0  0  0  0  0  0  0  0  0
   -8.3442    6.0277  -34.3509 H   0  0  0  0  0  0  0  0  0  0  0  0
   -7.1476    5.2991  -33.2674 H   0  0  0  0  0  0  0  0  0  0  0  0
   -5.2086    4.1576  -39.4687 H   0  0  0  0  0  0  0  0  0  0  0  0
   -5.3728    5.8092  -38.9353 H   0  0  0  0  0  0  0  0  0  0  0  0
   -6.6554    7.3022  -35.2294 H   0  0  0  0  0  0  0  0  0  0  0  0
  1  2  1  0  0  0  0
  1  4  2  0  0  0  0
  2  5  2  0  0  0  0
  3  5  1  0  0  0  0
  3  6  2  0  0  0  0
  3  7  1  0  0  0  0
  4  6  1  0  0  0  0
  4  8  1  0  0  0  0
  5 10  1  0  0  0  0
  6 11  1  0  0  0  0
  7  9  1  0  0  0  0
  1 12  1  0  0  0  0
  2 13  1  0  0  0  0
  7 14  1  0  0  0  0
  7 15  1  0  0  0  0
  8 16  1  0  0  0  0
  8 17  1  0  0  0  0
  9 18  1  0  0  0  0
M  END
> <id>
EN300-7718425

> <smiles>
NC=1C=CC(Cl)=C(CO)C1Cl

> <MDLNUMBER>
MFCD20723513

> <IUPAC Name>
(3-amino-2,6-dichlorophenyl)methanol

> <CAS>
83141-04-2

> <Purity>
95

> <URL>
https://www.enaminestore.com/catalog/EN300-7718425

> <MP>
96-99

> <ROCS_ShapeQuery>
hit0

> <ROCS_TanimotoCombo>
0.976 

> <ROCS_ShapeTanimoto>
0.405 

> <ROCS_ColorTanimoto>
0.571 

> <ROCS_RefTversky>
1.292 

> <ROCS_RefColorTversky>
0.672 

> <ROCS_RefTverskyCombo>
1.964 

> <ROCS_FitTversky>
0.371 

> <ROCS_FitColorTversky>
0.792 

> <ROCS_FitTverskyCombo>
1.163 

> <ROCS_ColorScore>
-3.998

> <ROCS_Overlap>
162.546

> <ROCS_Rank>
485                 

$$$$
untitled-dbase-157191_20
  -OEChem-06232314393D

 18 18  0     1  0  0  0  0  0999 V2000
   -7.6251    5.8103  -34.3290 C   0  0  0  0  0  0  0  0  0  0  0  0
   -7.1559    4.3952  -34.6206 C   0  0  0  0  0  0  0  0  0  0  0  0
   -5.5068    6.3516  -35.3002 C   0  0  0  0  0  0  0  0  0  0  0  0
   -6.0554    5.4991  -36.4411 C   0  0  1  0  0  0  0  0  0  0  0  0
   -4.9727    5.1354  -37.4448 C   0  0  0  0  0  0  0  0  0  0  0  0
   -6.5443    6.7434  -34.3962 O   0  0  0  0  0  0  0  0  0  0  0  0
   -6.6209    4.2803  -35.9413 O   0  0  0  0  0  0  0  0  0  0  0  0
   -5.5894    4.7581  -38.6643 O   0  0  0  0  0  0  0  0  0  0  0  0
   -8.3881    6.1201  -35.0600 H   0  0  0  0  0  0  0  0  0  0  0  0
   -8.0842    5.8776  -33.3277 H   0  0  0  0  0  0  0  0  0  0  0  0
   -6.3701    4.0971  -33.9085 H   0  0  0  0  0  0  0  0  0  0  0  0
   -7.9841    3.6731  -34.5144 H   0  0  0  0  0  0  0  0  0  0  0  0
   -4.7337    5.8111  -34.7267 H   0  0  0  0  0  0  0  0  0  0  0  0
   -5.0384    7.2692  -35.6906 H   0  0  0  0  0  0  0  0  0  0  0  0
   -6.8576    6.0481  -36.9720 H   0  0  0  0  0  0  0  0  0  0  0  0
   -4.3781    4.2990  -37.0721 H   0  0  0  0  0  0  0  0  0  0  0  0
   -4.3212    5.9929  -37.6249 H   0  0  0  0  0  0  0  0  0  0  0  0
   -4.8764    4.5319  -39.2848 H   0  0  0  0  0  0  0  0  0  0  0  0
  1  2  1  0  0  0  0
  1  6  1  0  0  0  0
  2  7  1  0  0  0  0
  3  4  1  0  0  0  0
  3  6  1  0  0  0  0
  4  5  1  6  0  0  0
  4  7  1  0  0  0  0
  5  8  1  0  0  0  0
  1  9  1  0  0  0  0
  1 10  1  0  0  0  0
  2 11  1  0  0  0  0
  2 12  1  0  0  0  0
  3 13  1  0  0  0  0
  3 14  1  0  0  0  0
  4 15  1  0  0  0  0
  5 16  1  0  0  0  0
  5 17  1  0  0  0  0
  8 18  1  0  0  0  0
M  END
> <id>
EN300-1589152

> <smiles>
OC[C@@H]1COCCO1

> <MDLNUMBER>
MFCD16620507

> <IUPAC Name>
[(2R)-1,4-dioxan-2-yl]methanol

> <CAS>
406913-88-0

> <Purity>
95

> <URL>
https://www.enaminestore.com/catalog/EN300-1589152

> <ROCS_ShapeQuery>
hit0

> <ROCS_TanimotoCombo>
0.976 

> <ROCS_ShapeTanimoto>
0.501 

> <ROCS_ColorTanimoto>
0.476 

> <ROCS_RefTversky>
1.224 

> <ROCS_RefColorTversky>
0.596 

> <ROCS_RefTverskyCombo>
1.820 

> <ROCS_FitTversky>
0.459 

> <ROCS_FitColorTversky>
0.702 

> <ROCS_FitTverskyCombo>
1.160 

> <ROCS_ColorScore>
-3.546

> <ROCS_Overlap>
146.269

> <ROCS_Rank>
486                 

$$$$
untitled-dbase-158616_16
  -OEChem-06232314393D

 23 23  0     1  0  0  0  0  0999 V2000
   -6.3332    6.9385  -38.4372 C   0  0  0  0  0  0  0  0  0  0  0  0
   -6.5172    5.5331  -37.8822 C   0  0  2  0  0  0  0  0  0  0  0  0
   -6.2477    5.5088  -36.3782 C   0  0  1  0  0  0  0  0  0  0  0  0
   -7.0137    6.6237  -35.6663 C   0  0  2  0  0  0  0  0  0  0  0  0
   -6.8254    7.9704  -36.3668 C   0  0  1  0  0  0  0  0  0  0  0  0
   -9.0173    8.7988  -36.1871 C   0  0  0  0  0  0  0  0  0  0  0  0
   -7.1651    7.8654  -37.7481 O   0  0  0  0  0  0  0  0  0  0  0  0
   -5.6161    4.6633  -38.5579 O   0  0  0  0  0  0  0  0  0  0  0  0
   -6.6780    4.2591  -35.8370 O   0  0  0  0  0  0  0  0  0  0  0  0
   -6.5316    6.7153  -34.3259 O   0  0  0  0  0  0  0  0  0  0  0  0
   -7.6796    8.9187  -35.7287 O   0  0  0  0  0  0  0  0  0  0  0  0
   -5.2857    7.2612  -38.3822 H   0  0  0  0  0  0  0  0  0  0  0  0
   -6.6042    6.9587  -39.4986 H   0  0  0  0  0  0  0  0  0  0  0  0
   -7.5359    5.1837  -38.0846 H   0  0  0  0  0  0  0  0  0  0  0  0
   -5.1733    5.5829  -36.1734 H   0  0  0  0  0  0  0  0  0  0  0  0
   -8.0786    6.3657  -35.6054 H   0  0  0  0  0  0  0  0  0  0  0  0
   -5.7944    8.3287  -36.2560 H   0  0  0  0  0  0  0  0  0  0  0  0
   -9.6443    9.5368  -35.6807 H   0  0  0  0  0  0  0  0  0  0  0  0
   -9.3848    7.7903  -35.9816 H   0  0  0  0  0  0  0  0  0  0  0  0
   -9.0416    8.9810  -37.2641 H   0  0  0  0  0  0  0  0  0  0  0  0
   -5.7533    3.7772  -38.1868 H   0  0  0  0  0  0  0  0  0  0  0  0
   -6.4873    4.2921  -34.8875 H   0  0  0  0  0  0  0  0  0  0  0  0
   -7.0339    7.4275  -33.9019 H   0  0  0  0  0  0  0  0  0  0  0  0
  1  2  1  0  0  0  0
  1  7  1  0  0  0  0
  2  3  1  0  0  0  0
  2  8  1  1  0  0  0
  3  4  1  0  0  0  0
  3  9  1  6  0  0  0
  4  5  1  0  0  0  0
  4 10  1  1  0  0  0
  5  7  1  0  0  0  0
  5 11  1  6  0  0  0
  6 11  1  0  0  0  0
  1 12  1  0  0  0  0
  1 13  1  0  0  0  0
  2 14  1  0  0  0  0
  3 15  1  0  0  0  0
  4 16  1  0  0  0  0
  5 17  1  0  0  0  0
  6 18  1  0  0  0  0
  6 19  1  0  0  0  0
  6 20  1  0  0  0  0
  8 21  1  0  0  0  0
  9 22  1  0  0  0  0
 10 23  1  0  0  0  0
M  END
> <id>
EN300-7375347

> <smiles>
CO[C@@H]1OC[C@@H](O)[C@H](O)[C@H]1O

> <MDLNUMBER>
MFCD00047532

> <IUPAC Name>
(2R,3R,4S,5R)-2-methoxyoxane-3,4,5-triol

> <CAS>
612-05-5

> <Purity>
95

> <URL>
https://www.enaminestore.com/catalog/EN300-7375347

> <MP>
156-157

> <ROCS_ShapeQuery>
hit0

> <ROCS_TanimotoCombo>
0.976 

> <ROCS_ShapeTanimoto>
0.450 

> <ROCS_ColorTanimoto>
0.526 

> <ROCS_RefTversky>
1.407 

> <ROCS_RefColorTversky>
0.841 

> <ROCS_RefTverskyCombo>
2.248 

> <ROCS_FitTversky>
0.398 

> <ROCS_FitColorTversky>
0.584 

> <ROCS_FitTverskyCombo>
0.982 

> <ROCS_ColorScore>
-5.174

> <ROCS_Overlap>
177.560

> <ROCS_Rank>
487                 

$$$$
untitled-dbase-68381_5
  -OEChem-06232314393D

 20 20  0     1  0  0  0  0  0999 V2000
   -7.3918    6.7326  -36.7000 C   0  0  0  0  0  0  0  0  0  0  0  0
   -7.1639    5.8908  -37.9587 C   0  0  0  0  0  0  0  0  0  0  0  0
   -6.2153    6.4105  -35.7900 C   0  0  2  0  0  0  0  0  0  0  0  0
   -6.0929    4.8487  -37.5982 C   0  0  2  0  0  0  0  0  0  0  0  0
   -5.9198    4.9408  -36.0824 C   0  0  2  0  0  0  0  0  0  0  0  0
   -4.9730    4.7044  -39.6279 N   0  0  0  0  0  0  0  0  0  0  0  0
   -6.5326    6.6438  -34.4328 O   0  0  0  0  0  0  0  0  0  0  0  0
   -6.8582    4.0886  -35.4330 O   0  0  0  0  0  0  0  0  0  0  0  0
   -4.8701    5.1699  -38.2530 O   0  0  0  0  0  0  0  0  0  0  0  0
   -7.3794    7.7979  -36.9686 H   0  0  0  0  0  0  0  0  0  0  0  0
   -8.3619    6.5041  -36.2418 H   0  0  0  0  0  0  0  0  0  0  0  0
   -8.0930    5.3742  -38.2313 H   0  0  0  0  0  0  0  0  0  0  0  0
   -6.8795    6.5184  -38.8112 H   0  0  0  0  0  0  0  0  0  0  0  0
   -5.3209    7.0563  -36.0302 H   0  0  0  0  0  0  0  0  0  0  0  0
   -6.3925    3.8492  -37.9213 H   0  0  0  0  0  0  0  0  0  0  0  0
   -4.9232    4.6625  -35.7761 H   0  0  0  0  0  0  0  0  0  0  0  0
   -4.1425    4.1172  -39.6884 H   0  0  0  0  0  0  0  0  0  0  0  0
   -4.7591    5.5634  -40.1321 H   0  0  0  0  0  0  0  0  0  0  0  0
   -6.7608    7.5838  -34.3585 H   0  0  0  0  0  0  0  0  0  0  0  0
   -6.7840    4.2566  -34.4779 H   0  0  0  0  0  0  0  0  0  0  0  0
  1  2  1  0  0  0  0
  1  3  1  0  0  0  0
  2  4  1  0  0  0  0
  3  5  1  0  0  0  0
  3  7  1  1  0  0  0
  4  5  1  0  0  0  0
  4  9  1  6  0  0  0
  5  8  1  1  0  0  0
  6  9  1  0  0  0  0
  1 10  1  0  0  0  0
  1 11  1  0  0  0  0
  2 12  1  0  0  0  0
  2 13  1  0  0  0  0
  3 14  1  0  0  0  0
  4 15  1  0  0  0  0
  5 16  1  0  0  0  0
  6 17  1  0  0  0  0
  6 18  1  0  0  0  0
  7 19  1  0  0  0  0
  8 20  1  0  0  0  0
M  END
> <id>
EN300-27103317

> <smiles>
NO[C@@H]1CC[C@@H](O)[C@H]1O |&1:2,5,7,r|

> <IUPAC Name>
rac-(1R,2R,3R)-3-(aminooxy)cyclopentane-1,2-diol

> <CAS>
2470280-32-9

> <URL>
https://www.enaminestore.com/catalog/EN300-27103317

> <ROCS_ShapeQuery>
hit0

> <ROCS_TanimotoCombo>
0.976 

> <ROCS_ShapeTanimoto>
0.477 

> <ROCS_ColorTanimoto>
0.499 

> <ROCS_RefTversky>
1.278 

> <ROCS_RefColorTversky>
0.616 

> <ROCS_RefTverskyCombo>
1.893 

> <ROCS_FitTversky>
0.432 

> <ROCS_FitColorTversky>
0.725 

> <ROCS_FitTverskyCombo>
1.157 

> <ROCS_ColorScore>
-3.663

> <ROCS_Overlap>
155.483

> <ROCS_Rank>
488                 

$$$$
untitled-dbase-68717_5
  -OEChem-06232314393D

 20 20  0     1  0  0  0  0  0999 V2000
   -7.3918    6.7326  -36.7000 C   0  0  0  0  0  0  0  0  0  0  0  0
   -7.1639    5.8908  -37.9587 C   0  0  0  0  0  0  0  0  0  0  0  0
   -6.2153    6.4105  -35.7900 C   0  0  2  0  0  0  0  0  0  0  0  0
   -6.0929    4.8487  -37.5982 C   0  0  2  0  0  0  0  0  0  0  0  0
   -5.9198    4.9408  -36.0824 C   0  0  2  0  0  0  0  0  0  0  0  0
   -4.9730    4.7044  -39.6279 N   0  0  0  0  0  0  0  0  0  0  0  0
   -6.5326    6.6438  -34.4328 O   0  0  0  0  0  0  0  0  0  0  0  0
   -6.8582    4.0886  -35.4330 O   0  0  0  0  0  0  0  0  0  0  0  0
   -4.8701    5.1699  -38.2530 O   0  0  0  0  0  0  0  0  0  0  0  0
   -7.3794    7.7979  -36.9686 H   0  0  0  0  0  0  0  0  0  0  0  0
   -8.3619    6.5041  -36.2418 H   0  0  0  0  0  0  0  0  0  0  0  0
   -8.0930    5.3742  -38.2313 H   0  0  0  0  0  0  0  0  0  0  0  0
   -6.8795    6.5184  -38.8112 H   0  0  0  0  0  0  0  0  0  0  0  0
   -5.3209    7.0563  -36.0302 H   0  0  0  0  0  0  0  0  0  0  0  0
   -6.3925    3.8492  -37.9213 H   0  0  0  0  0  0  0  0  0  0  0  0
   -4.9232    4.6625  -35.7761 H   0  0  0  0  0  0  0  0  0  0  0  0
   -4.1425    4.1172  -39.6884 H   0  0  0  0  0  0  0  0  0  0  0  0
   -4.7591    5.5634  -40.1321 H   0  0  0  0  0  0  0  0  0  0  0  0
   -6.7608    7.5838  -34.3585 H   0  0  0  0  0  0  0  0  0  0  0  0
   -6.7840    4.2566  -34.4779 H   0  0  0  0  0  0  0  0  0  0  0  0
  1  2  1  0  0  0  0
  1  3  1  0  0  0  0
  2  4  1  0  0  0  0
  3  5  1  0  0  0  0
  3  7  1  1  0  0  0
  4  5  1  0  0  0  0
  4  9  1  6  0  0  0
  5  8  1  1  0  0  0
  6  9  1  0  0  0  0
  1 10  1  0  0  0  0
  1 11  1  0  0  0  0
  2 12  1  0  0  0  0
  2 13  1  0  0  0  0
  3 14  1  0  0  0  0
  4 15  1  0  0  0  0
  5 16  1  0  0  0  0
  6 17  1  0  0  0  0
  6 18  1  0  0  0  0
  7 19  1  0  0  0  0
  8 20  1  0  0  0  0
M  END
> <id>
EN300-27102631

> <smiles>
Cl.NO[C@@H]1CC[C@@H](O)[C@H]1O |&1:3,6,8,r|

> <IUPAC Name>
rac-(1R,2R,3R)-3-(aminooxy)cyclopentane-1,2-diol hydrochloride

> <CAS>
2470280-33-0

> <Purity>
95

> <URL>
https://www.enaminestore.com/catalog/EN300-27102631

> <Saltdate>
Cl

> <ROCS_ShapeQuery>
hit0

> <ROCS_TanimotoCombo>
0.976 

> <ROCS_ShapeTanimoto>
0.477 

> <ROCS_ColorTanimoto>
0.499 

> <ROCS_RefTversky>
1.278 

> <ROCS_RefColorTversky>
0.616 

> <ROCS_RefTverskyCombo>
1.893 

> <ROCS_FitTversky>
0.432 

> <ROCS_FitColorTversky>
0.725 

> <ROCS_FitTverskyCombo>
1.157 

> <ROCS_ColorScore>
-3.663

> <ROCS_Overlap>
155.483

> <ROCS_Rank>
489                 

$$$$
untitled-dbase-80633_2
  -OEChem-06232314393D

 20 20  0     1  0  0  0  0  0999 V2000
   -6.2900    7.8631  -35.9786 C   0  0  0  0  0  0  0  0  0  0  0  0
   -6.3947    7.0297  -37.0922 C   0  0  0  0  0  0  0  0  0  0  0  0
   -6.3914    7.3274  -34.6946 C   0  0  0  0  0  0  0  0  0  0  0  0
   -6.6009    5.6608  -36.9219 C   0  0  0  0  0  0  0  0  0  0  0  0
   -6.7024    5.1251  -35.6379 C   0  0  0  0  0  0  0  0  0  0  0  0
   -6.5977    5.9585  -34.5243 C   0  0  0  0  0  0  0  0  0  0  0  0
   -7.8355    5.2095  -39.0729 C   0  0  0  0  0  0  0  0  0  0  0  0
   -6.7111    4.7864  -38.1275 C   0  0  1  0  0  0  0  0  0  0  0  0
   -6.9053    3.7846  -35.4832 O   0  0  0  0  0  0  0  0  0  0  0  0
   -5.4786    4.8361  -38.8541 O   0  0  0  0  0  0  0  0  0  0  0  0
   -6.7193    5.3257  -32.9237 Cl  0  0  0  0  0  0  0  0  0  0  0  0
   -6.1291    8.9290  -36.1105 H   0  0  0  0  0  0  0  0  0  0  0  0
   -6.3152    7.4562  -38.0886 H   0  0  0  0  0  0  0  0  0  0  0  0
   -6.3087    7.9900  -33.8368 H   0  0  0  0  0  0  0  0  0  0  0  0
   -7.7238    6.2553  -39.3764 H   0  0  0  0  0  0  0  0  0  0  0  0
   -8.8185    5.0887  -38.6039 H   0  0  0  0  0  0  0  0  0  0  0  0
   -7.8432    4.5841  -39.9724 H   0  0  0  0  0  0  0  0  0  0  0  0
   -6.8725    3.7302  -37.8552 H   0  0  0  0  0  0  0  0  0  0  0  0
   -6.9544    3.5619  -34.5411 H   0  0  0  0  0  0  0  0  0  0  0  0
   -4.7952    4.5152  -38.2484 H   0  0  0  0  0  0  0  0  0  0  0  0
  1  2  1  0  0  0  0
  1  3  2  0  0  0  0
  2  4  2  0  0  0  0
  3  6  1  0  0  0  0
  4  5  1  0  0  0  0
  4  8  1  0  0  0  0
  5  6  2  0  0  0  0
  5  9  1  0  0  0  0
  6 11  1  0  0  0  0
  7  8  1  1  0  0  0
  8 10  1  0  0  0  0
  1 12  1  0  0  0  0
  2 13  1  0  0  0  0
  3 14  1  0  0  0  0
  7 15  1  0  0  0  0
  7 16  1  0  0  0  0
  7 17  1  0  0  0  0
  8 18  1  0  0  0  0
  9 19  1  0  0  0  0
 10 20  1  0  0  0  0
M  END
> <id>
EN300-1997264

> <smiles>
C[C@@H](O)C=1C=CC=C(Cl)C1O

> <MDLNUMBER>
MFCD33002249

> <IUPAC Name>
2-chloro-6-[(1R)-1-hydroxyethyl]phenol

> <CAS>
2227812-60-2

> <URL>
https://www.enaminestore.com/catalog/EN300-1997264

> <ROCS_ShapeQuery>
hit0

> <ROCS_TanimotoCombo>
0.976 

> <ROCS_ShapeTanimoto>
0.408 

> <ROCS_ColorTanimoto>
0.568 

> <ROCS_RefTversky>
1.315 

> <ROCS_RefColorTversky>
0.669 

> <ROCS_RefTverskyCombo>
1.984 

> <ROCS_FitTversky>
0.372 

> <ROCS_FitColorTversky>
0.789 

> <ROCS_FitTverskyCombo>
1.161 

> <ROCS_ColorScore>
-3.982

> <ROCS_Overlap>
165.963

> <ROCS_Rank>
490                 

$$$$
untitled-dbase-68104_21
  -OEChem-06232314393D

 20 20  0     1  0  0  0  0  0999 V2000
   -5.5845    3.9081  -37.5226 C   0  0  0  0  0  0  0  0  0  0  0  0
   -4.9911    4.6624  -38.5348 C   0  0  0  0  0  0  0  0  0  0  0  0
   -5.8800    6.6820  -37.5508 C   0  0  0  0  0  0  0  0  0  0  0  0
   -6.4734    5.9277  -36.5386 C   0  0  0  0  0  0  0  0  0  0  0  0
   -6.3257    4.5407  -36.5245 C   0  0  0  0  0  0  0  0  0  0  0  0
   -5.1388    6.0493  -38.5489 C   0  0  0  0  0  0  0  0  0  0  0  0
   -7.2651    6.6212  -35.4796 C   0  0  2  0  0  0  0  0  0  0  0  0
   -7.9329    7.9063  -35.9567 C   0  0  0  0  0  0  0  0  0  0  0  0
   -6.8991    3.7893  -35.5432 O   0  0  0  0  0  0  0  0  0  0  0  0
   -6.4825    6.9384  -34.3196 O   0  0  0  0  0  0  0  0  0  0  0  0
   -8.6064    8.5057  -34.9502 F   0  0  0  0  0  0  0  0  0  0  0  0
   -8.8248    7.6517  -36.9412 F   0  0  0  0  0  0  0  0  0  0  0  0
   -7.0342    8.7900  -36.4395 F   0  0  0  0  0  0  0  0  0  0  0  0
   -4.4070    6.9804  -39.7973 Cl  0  0  0  0  0  0  0  0  0  0  0  0
   -5.4657    2.8280  -37.5166 H   0  0  0  0  0  0  0  0  0  0  0  0
   -4.4175    4.1560  -39.3067 H   0  0  0  0  0  0  0  0  0  0  0  0
   -5.9982    7.7633  -37.5575 H   0  0  0  0  0  0  0  0  0  0  0  0
   -8.0606    5.9541  -35.1146 H   0  0  0  0  0  0  0  0  0  0  0  0
   -6.7002    2.8500  -35.6812 H   0  0  0  0  0  0  0  0  0  0  0  0
   -7.0843    7.3793  -33.7043 H   0  0  0  0  0  0  0  0  0  0  0  0
  1  2  1  0  0  0  0
  1  5  2  0  0  0  0
  2  6  2  0  0  0  0
  3  4  2  0  0  0  0
  3  6  1  0  0  0  0
  4  5  1  0  0  0  0
  4  7  1  0  0  0  0
  5  9  1  0  0  0  0
  6 14  1  0  0  0  0
  7  8  1  0  0  0  0
  7 10  1  6  0  0  0
  8 11  1  0  0  0  0
  8 12  1  0  0  0  0
  8 13  1  0  0  0  0
  1 15  1  0  0  0  0
  2 16  1  0  0  0  0
  3 17  1  0  0  0  0
  7 18  1  0  0  0  0
  9 19  1  0  0  0  0
 10 20  1  0  0  0  0
M  END
> <id>
EN300-1951348

> <smiles>
O[C@H](C=1C=C(Cl)C=CC1O)C(F)(F)F

> <IUPAC Name>
4-chloro-2-[(1R)-2,2,2-trifluoro-1-hydroxyethyl]phenol

> <CAS>
2227851-93-4

> <URL>
https://www.enaminestore.com/catalog/EN300-1951348

> <ROCS_ShapeQuery>
hit0

> <ROCS_TanimotoCombo>
0.976 

> <ROCS_ShapeTanimoto>
0.405 

> <ROCS_ColorTanimoto>
0.571 

> <ROCS_RefTversky>
1.559 

> <ROCS_RefColorTversky>
0.672 

> <ROCS_RefTverskyCombo>
2.231 

> <ROCS_FitTversky>
0.354 

> <ROCS_FitColorTversky>
0.791 

> <ROCS_FitTverskyCombo>
1.145 

> <ROCS_ColorScore>
-3.997

> <ROCS_Overlap>
208.557

> <ROCS_Rank>
491                 

$$$$
untitled-dbase-15865_12
  -OEChem-06232314393D

 13 12  0     1  0  0  0  0  0999 V2000
   -5.4260    4.7829  -38.5841 C   0  0  0  0  0  0  0  0  0  0  0  0
   -5.9449    5.0073  -37.5247 C   0  0  0  0  0  0  0  0  0  0  0  0
   -5.7156    6.2177  -35.3774 C   0  0  0  0  0  0  0  0  0  0  0  0
   -6.5851    5.2883  -36.2268 C   0  0  2  0  0  0  0  0  0  0  0  0
   -6.8267    4.0346  -35.5143 N   0  0  0  0  0  0  0  0  0  0  0  0
   -6.5181    6.8266  -34.3705 O   0  0  0  0  0  0  0  0  0  0  0  0
   -4.9654    4.5838  -39.5234 H   0  0  0  0  0  0  0  0  0  0  0  0
   -5.2510    7.0079  -35.9786 H   0  0  0  0  0  0  0  0  0  0  0  0
   -4.9251    5.6548  -34.8686 H   0  0  0  0  0  0  0  0  0  0  0  0
   -7.5504    5.7716  -36.4200 H   0  0  0  0  0  0  0  0  0  0  0  0
   -6.4684    3.2919  -36.0656 H   0  0  0  0  0  0  0  0  0  0  0  0
   -6.3594    4.0816  -34.6405 H   0  0  0  0  0  0  0  0  0  0  0  0
   -6.8823    6.1060  -33.8330 H   0  0  0  0  0  0  0  0  0  0  0  0
  1  2  3  0  0  0  0
  2  4  1  0  0  0  0
  3  4  1  0  0  0  0
  3  6  1  0  0  0  0
  4  5  1  0  0  0  0
  1  7  1  0  0  0  0
  3  8  1  0  0  0  0
  3  9  1  0  0  0  0
  4 10  1  0  0  0  0
  5 11  1  0  0  0  0
  5 12  1  0  0  0  0
  6 13  1  0  0  0  0
M  END
> <id>
EN300-111369

> <smiles>
NC(CO)C#C

> <MDLNUMBER>
MFCD19215618

> <IUPAC Name>
2-aminobut-3-yn-1-ol

> <CAS>
1314976-44-7

> <URL>
https://www.enaminestore.com/catalog/EN300-111369

> <ROCS_ShapeQuery>
hit0

> <ROCS_TanimotoCombo>
0.975 

> <ROCS_ShapeTanimoto>
0.613 

> <ROCS_ColorTanimoto>
0.362 

> <ROCS_RefTversky>
1.108 

> <ROCS_RefColorTversky>
0.492 

> <ROCS_RefTverskyCombo>
1.600 

> <ROCS_FitTversky>
0.578 

> <ROCS_FitColorTversky>
0.579 

> <ROCS_FitTverskyCombo>
1.158 

> <ROCS_ColorScore>
-2.927

> <ROCS_Overlap>
126.675

> <ROCS_Rank>
492                 

$$$$
untitled-dbase-16001_12
  -OEChem-06232314393D

 13 12  0     1  0  0  0  0  0999 V2000
   -5.4260    4.7829  -38.5841 C   0  0  0  0  0  0  0  0  0  0  0  0
   -5.9449    5.0073  -37.5247 C   0  0  0  0  0  0  0  0  0  0  0  0
   -5.7156    6.2177  -35.3774 C   0  0  0  0  0  0  0  0  0  0  0  0
   -6.5851    5.2883  -36.2268 C   0  0  2  0  0  0  0  0  0  0  0  0
   -6.8267    4.0346  -35.5143 N   0  0  0  0  0  0  0  0  0  0  0  0
   -6.5181    6.8266  -34.3705 O   0  0  0  0  0  0  0  0  0  0  0  0
   -4.9654    4.5838  -39.5234 H   0  0  0  0  0  0  0  0  0  0  0  0
   -5.2510    7.0079  -35.9786 H   0  0  0  0  0  0  0  0  0  0  0  0
   -4.9251    5.6548  -34.8686 H   0  0  0  0  0  0  0  0  0  0  0  0
   -7.5504    5.7716  -36.4200 H   0  0  0  0  0  0  0  0  0  0  0  0
   -6.4684    3.2919  -36.0656 H   0  0  0  0  0  0  0  0  0  0  0  0
   -6.3594    4.0816  -34.6405 H   0  0  0  0  0  0  0  0  0  0  0  0
   -6.8823    6.1060  -33.8330 H   0  0  0  0  0  0  0  0  0  0  0  0
  1  2  3  0  0  0  0
  2  4  1  0  0  0  0
  3  4  1  0  0  0  0
  3  6  1  0  0  0  0
  4  5  1  0  0  0  0
  1  7  1  0  0  0  0
  3  8  1  0  0  0  0
  3  9  1  0  0  0  0
  4 10  1  0  0  0  0
  5 11  1  0  0  0  0
  5 12  1  0  0  0  0
  6 13  1  0  0  0  0
M  END
> <id>
EN300-233538

> <smiles>
Cl.NC(CO)C#C

> <MDLNUMBER>
MFCD29034357

> <IUPAC Name>
2-aminobut-3-yn-1-ol hydrochloride

> <CAS>
1864058-21-8

> <Purity>
95

> <URL>
https://www.enaminestore.com/catalog/EN300-233538

> <Saltdate>
Cl

> <ROCS_ShapeQuery>
hit0

> <ROCS_TanimotoCombo>
0.975 

> <ROCS_ShapeTanimoto>
0.613 

> <ROCS_ColorTanimoto>
0.362 

> <ROCS_RefTversky>
1.108 

> <ROCS_RefColorTversky>
0.492 

> <ROCS_RefTverskyCombo>
1.600 

> <ROCS_FitTversky>
0.578 

> <ROCS_FitColorTversky>
0.579 

> <ROCS_FitTverskyCombo>
1.158 

> <ROCS_ColorScore>
-2.927

> <ROCS_Overlap>
126.675

> <ROCS_Rank>
493                 

$$$$
untitled-dbase-175862_57
  -OEChem-06232314393D

 25 25  0     1  0  0  0  0  0999 V2000
   -5.2790    5.5733  -36.0818 C   0  0  0  0  0  0  0  0  0  0  0  0
   -6.2446    6.7272  -35.7234 C   0  0  1  0  0  0  0  0  0  0  0  0
   -7.3622    6.0398  -36.5812 C   0  0  0  0  0  0  0  0  0  0  0  0
   -6.4659    4.7368  -36.6199 C   0  0  1  0  0  0  0  0  0  0  0  0
   -8.7491    5.9645  -35.9333 C   0  0  0  0  0  0  0  0  0  0  0  0
   -7.4950    6.7392  -37.9484 C   0  0  0  0  0  0  0  0  0  0  0  0
   -6.2440    3.9875  -37.9195 C   0  0  0  0  0  0  0  0  0  0  0  0
   -6.8753    3.8057  -35.5556 N   0  0  0  0  0  0  0  0  0  0  0  0
   -6.5014    6.9259  -34.3180 O   0  0  0  0  0  0  0  0  0  0  0  0
   -5.5079    4.8148  -38.8059 O   0  0  0  0  0  0  0  0  0  0  0  0
   -4.5058    5.8356  -36.8240 H   0  0  0  0  0  0  0  0  0  0  0  0
   -4.7489    5.1605  -35.2032 H   0  0  0  0  0  0  0  0  0  0  0  0
   -5.8944    7.6885  -36.1563 H   0  0  0  0  0  0  0  0  0  0  0  0
   -9.4358    5.4724  -36.6142 H   0  0  0  0  0  0  0  0  0  0  0  0
   -9.1006    6.9691  -35.7227 H   0  0  0  0  0  0  0  0  0  0  0  0
   -8.6823    5.3993  -35.0096 H   0  0  0  0  0  0  0  0  0  0  0  0
   -8.2726    6.2533  -38.5330 H   0  0  0  0  0  0  0  0  0  0  0  0
   -6.5505    6.6767  -38.4836 H   0  0  0  0  0  0  0  0  0  0  0  0
   -7.7562    7.7843  -37.7999 H   0  0  0  0  0  0  0  0  0  0  0  0
   -7.2019    3.7361  -38.3814 H   0  0  0  0  0  0  0  0  0  0  0  0
   -5.6785    3.0703  -37.7377 H   0  0  0  0  0  0  0  0  0  0  0  0
   -6.1001    3.2269  -35.3398 H   0  0  0  0  0  0  0  0  0  0  0  0
   -7.1466    4.3422  -34.7675 H   0  0  0  0  0  0  0  0  0  0  0  0
   -7.1133    7.6715  -34.2658 H   0  0  0  0  0  0  0  0  0  0  0  0
   -5.3821    4.3092  -39.6262 H   0  0  0  0  0  0  0  0  0  0  0  0
  1  2  1  0  0  0  0
  1  4  1  0  0  0  0
  2  3  1  0  0  0  0
  2  9  1  1  0  0  0
  3  4  1  0  0  0  0
  3  5  1  0  0  0  0
  3  6  1  0  0  0  0
  4  7  1  0  0  0  0
  4  8  1  1  0  0  0
  7 10  1  0  0  0  0
  1 11  1  0  0  0  0
  1 12  1  0  0  0  0
  2 13  1  0  0  0  0
  5 14  1  0  0  0  0
  5 15  1  0  0  0  0
  5 16  1  0  0  0  0
  6 17  1  0  0  0  0
  6 18  1  0  0  0  0
  6 19  1  0  0  0  0
  7 20  1  0  0  0  0
  7 21  1  0  0  0  0
  8 22  1  0  0  0  0
  8 23  1  0  0  0  0
  9 24  1  0  0  0  0
 10 25  1  0  0  0  0
M  END
> <id>
EN300-45197961

> <smiles>
CC1(C)[C@@H](O)C[C@]1(N)CO |&1:3,6,r|

> <IUPAC Name>
rac-(1R,3S)-3-amino-3-(hydroxymethyl)-2,2-dimethylcyclobutan-1-ol

> <URL>
https://www.enaminestore.com/catalog/EN300-45197961

> <ROCS_ShapeQuery>
hit0

> <ROCS_TanimotoCombo>
0.975 

> <ROCS_ShapeTanimoto>
0.420 

> <ROCS_ColorTanimoto>
0.555 

> <ROCS_RefTversky>
1.239 

> <ROCS_RefColorTversky>
0.819 

> <ROCS_RefTverskyCombo>
2.059 

> <ROCS_FitTversky>
0.388 

> <ROCS_FitColorTversky>
0.633 

> <ROCS_FitTverskyCombo>
1.021 

> <ROCS_ColorScore>
-4.999

> <ROCS_Overlap>
153.080

> <ROCS_Rank>
494                 

$$$$
untitled-dbase-176819_57
  -OEChem-06232314393D

 25 25  0     1  0  0  0  0  0999 V2000
   -5.2790    5.5733  -36.0818 C   0  0  0  0  0  0  0  0  0  0  0  0
   -6.2446    6.7272  -35.7234 C   0  0  1  0  0  0  0  0  0  0  0  0
   -7.3622    6.0398  -36.5812 C   0  0  0  0  0  0  0  0  0  0  0  0
   -6.4659    4.7368  -36.6199 C   0  0  1  0  0  0  0  0  0  0  0  0
   -8.7491    5.9645  -35.9333 C   0  0  0  0  0  0  0  0  0  0  0  0
   -7.4950    6.7392  -37.9484 C   0  0  0  0  0  0  0  0  0  0  0  0
   -6.2440    3.9875  -37.9195 C   0  0  0  0  0  0  0  0  0  0  0  0
   -6.8753    3.8057  -35.5556 N   0  0  0  0  0  0  0  0  0  0  0  0
   -6.5014    6.9259  -34.3180 O   0  0  0  0  0  0  0  0  0  0  0  0
   -5.5079    4.8148  -38.8059 O   0  0  0  0  0  0  0  0  0  0  0  0
   -4.5058    5.8356  -36.8240 H   0  0  0  0  0  0  0  0  0  0  0  0
   -4.7489    5.1605  -35.2032 H   0  0  0  0  0  0  0  0  0  0  0  0
   -5.8944    7.6885  -36.1563 H   0  0  0  0  0  0  0  0  0  0  0  0
   -9.4358    5.4724  -36.6142 H   0  0  0  0  0  0  0  0  0  0  0  0
   -9.1006    6.9691  -35.7227 H   0  0  0  0  0  0  0  0  0  0  0  0
   -8.6823    5.3993  -35.0096 H   0  0  0  0  0  0  0  0  0  0  0  0
   -8.2726    6.2533  -38.5330 H   0  0  0  0  0  0  0  0  0  0  0  0
   -6.5505    6.6767  -38.4836 H   0  0  0  0  0  0  0  0  0  0  0  0
   -7.7562    7.7843  -37.7999 H   0  0  0  0  0  0  0  0  0  0  0  0
   -7.2019    3.7361  -38.3814 H   0  0  0  0  0  0  0  0  0  0  0  0
   -5.6785    3.0703  -37.7377 H   0  0  0  0  0  0  0  0  0  0  0  0
   -6.1001    3.2269  -35.3398 H   0  0  0  0  0  0  0  0  0  0  0  0
   -7.1466    4.3422  -34.7675 H   0  0  0  0  0  0  0  0  0  0  0  0
   -7.1133    7.6715  -34.2658 H   0  0  0  0  0  0  0  0  0  0  0  0
   -5.3821    4.3092  -39.6262 H   0  0  0  0  0  0  0  0  0  0  0  0
  1  2  1  0  0  0  0
  1  4  1  0  0  0  0
  2  3  1  0  0  0  0
  2  9  1  1  0  0  0
  3  4  1  0  0  0  0
  3  5  1  0  0  0  0
  3  6  1  0  0  0  0
  4  7  1  0  0  0  0
  4  8  1  1  0  0  0
  7 10  1  0  0  0  0
  1 11  1  0  0  0  0
  1 12  1  0  0  0  0
  2 13  1  0  0  0  0
  5 14  1  0  0  0  0
  5 15  1  0  0  0  0
  5 16  1  0  0  0  0
  6 17  1  0  0  0  0
  6 18  1  0  0  0  0
  6 19  1  0  0  0  0
  7 20  1  0  0  0  0
  7 21  1  0  0  0  0
  8 22  1  0  0  0  0
  8 23  1  0  0  0  0
  9 24  1  0  0  0  0
 10 25  1  0  0  0  0
M  END
> <id>
EN300-45197960

> <smiles>
Cl.CC1(C)[C@@H](O)C[C@]1(N)CO |&1:4,7,r|

> <IUPAC Name>
rac-(1R,3S)-3-amino-3-(hydroxymethyl)-2,2-dimethylcyclobutan-1-ol hydrochloride

> <Purity>
95

> <URL>
https://www.enaminestore.com/catalog/EN300-45197960

> <ROCS_ShapeQuery>
hit0

> <ROCS_TanimotoCombo>
0.975 

> <ROCS_ShapeTanimoto>
0.420 

> <ROCS_ColorTanimoto>
0.555 

> <ROCS_RefTversky>
1.239 

> <ROCS_RefColorTversky>
0.819 

> <ROCS_RefTverskyCombo>
2.059 

> <ROCS_FitTversky>
0.388 

> <ROCS_FitColorTversky>
0.633 

> <ROCS_FitTverskyCombo>
1.021 

> <ROCS_ColorScore>
-4.999

> <ROCS_Overlap>
153.080

> <ROCS_Rank>
495                 

$$$$
untitled-dbase-146053_2
  -OEChem-06232314393D

 15 15  0     0  0  0  0  0  0999 V2000
   -6.3358    5.6837  -36.7869 C   0  0  0  0  0  0  0  0  0  0  0  0
   -6.4555    4.3313  -36.5369 C   0  0  0  0  0  0  0  0  0  0  0  0
   -6.7644    6.7554  -35.8528 C   0  0  0  0  0  0  0  0  0  0  0  0
   -8.2003    8.6165  -35.6294 C   0  0  0  0  0  0  0  0  0  0  0  0
   -5.7703    6.0174  -38.0074 N   0  0  0  0  0  0  0  0  0  0  0  0
   -5.4507    4.9393  -38.7053 N   0  0  0  0  0  0  0  0  0  0  0  0
   -6.9584    3.6944  -35.4543 N   0  0  0  0  0  0  0  0  0  0  0  0
   -6.3105    6.8830  -34.7263 O   0  0  0  0  0  0  0  0  0  0  0  0
   -7.7062    7.5407  -36.4345 O   0  0  0  0  0  0  0  0  0  0  0  0
   -5.8241    3.5144  -37.9075 S   0  0  0  0  0  0  0  0  0  0  0  0
   -8.9485    9.1800  -36.1923 H   0  0  0  0  0  0  0  0  0  0  0  0
   -7.3722    9.2713  -35.3466 H   0  0  0  0  0  0  0  0  0  0  0  0
   -8.6602    8.2040  -34.7283 H   0  0  0  0  0  0  0  0  0  0  0  0
   -7.2883    4.2065  -34.6248 H   0  0  0  0  0  0  0  0  0  0  0  0
   -6.9473    2.6686  -35.3715 H   0  0  0  0  0  0  0  0  0  0  0  0
  1  2  2  0  0  0  0
  1  3  1  0  0  0  0
  1  5  1  0  0  0  0
  2  7  1  0  0  0  0
  2 10  1  0  0  0  0
  3  8  2  0  0  0  0
  3  9  1  0  0  0  0
  4  9  1  0  0  0  0
  5  6  2  0  0  0  0
  6 10  1  0  0  0  0
  4 11  1  0  0  0  0
  4 12  1  0  0  0  0
  4 13  1  0  0  0  0
  7 14  1  0  0  0  0
  7 15  1  0  0  0  0
M  END
> <id>
EN300-4282583

> <smiles>
COC(=O)C=1N=NSC1N

> <MDLNUMBER>
MFCD18835492

> <IUPAC Name>
methyl 5-amino-1,2,3-thiadiazole-4-carboxylate

> <CAS>
89033-41-0

> <URL>
https://www.enaminestore.com/catalog/EN300-4282583

> <ROCS_ShapeQuery>
hit0

> <ROCS_TanimotoCombo>
0.975 

> <ROCS_ShapeTanimoto>
0.520 

> <ROCS_ColorTanimoto>
0.455 

> <ROCS_RefTversky>
1.466 

> <ROCS_RefColorTversky>
0.642 

> <ROCS_RefTverskyCombo>
2.108 

> <ROCS_FitTversky>
0.446 

> <ROCS_FitColorTversky>
0.610 

> <ROCS_FitTverskyCombo>
1.056 

> <ROCS_ColorScore>
-3.863

> <ROCS_Overlap>
182.137

> <ROCS_Rank>
496                 

$$$$
untitled-dbase-109279_53
  -OEChem-06232314393D

 26 27  0     1  0  0  0  0  0999 V2000
   -7.3670    7.8263  -36.4836 C   0  0  0  0  0  0  0  0  0  0  0  0
   -6.6360    6.9148  -35.8188 C   0  0  0  0  0  0  0  0  0  0  0  0
   -8.0157    8.9899  -35.8023 C   0  0  0  0  0  0  0  0  0  0  0  0
   -7.5077    9.1406  -34.3725 C   0  0  0  0  0  0  0  0  0  0  0  0
   -7.3637    7.7687  -33.7294 C   0  0  0  0  0  0  0  0  0  0  0  0
   -5.5288    6.1107  -37.9280 C   0  0  0  0  0  0  0  0  0  0  0  0
   -6.0967    3.8533  -37.8379 C   0  0  0  0  0  0  0  0  0  0  0  0
   -5.9464    5.7831  -36.5026 C   0  0  2  0  0  0  0  0  0  0  0  0
   -6.8223    4.5619  -36.7133 C   0  0  2  0  0  0  0  0  0  0  0  0
   -6.4477    6.9345  -34.4489 O   0  0  0  0  0  0  0  0  0  0  0  0
   -5.5280    4.8760  -38.6630 O   0  0  0  0  0  0  0  0  0  0  0  0
   -6.8908    3.7581  -35.5522 O   0  0  0  0  0  0  0  0  0  0  0  0
   -7.5215    7.7287  -37.5543 H   0  0  0  0  0  0  0  0  0  0  0  0
   -7.7992    9.8982  -36.3766 H   0  0  0  0  0  0  0  0  0  0  0  0
   -9.1034    8.8602  -35.7931 H   0  0  0  0  0  0  0  0  0  0  0  0
   -6.5543    9.6792  -34.3613 H   0  0  0  0  0  0  0  0  0  0  0  0
   -8.2310    9.7336  -33.7980 H   0  0  0  0  0  0  0  0  0  0  0  0
   -7.0265    7.8505  -32.6886 H   0  0  0  0  0  0  0  0  0  0  0  0
   -8.3325    7.2586  -33.7203 H   0  0  0  0  0  0  0  0  0  0  0  0
   -6.1765    6.8308  -38.4342 H   0  0  0  0  0  0  0  0  0  0  0  0
   -4.5051    6.4969  -37.9536 H   0  0  0  0  0  0  0  0  0  0  0  0
   -5.2972    3.1929  -37.4917 H   0  0  0  0  0  0  0  0  0  0  0  0
   -6.7920    3.2824  -38.4611 H   0  0  0  0  0  0  0  0  0  0  0  0
   -5.0351    5.5362  -35.9072 H   0  0  0  0  0  0  0  0  0  0  0  0
   -7.8689    4.8106  -37.0094 H   0  0  0  0  0  0  0  0  0  0  0  0
   -7.3716    2.9544  -35.8023 H   0  0  0  0  0  0  0  0  0  0  0  0
  1  2  2  0  0  0  0
  1  3  1  0  0  0  0
  2  8  1  1  0  0  0
  2 10  1  0  0  0  0
  3  4  1  0  0  0  0
  4  5  1  0  0  0  0
  5 10  1  0  0  0  0
  6  8  1  0  0  0  0
  6 11  1  0  0  0  0
  7  9  1  0  0  0  0
  7 11  1  0  0  0  0
  8  9  1  0  0  0  0
  9 12  1  6  0  0  0
  1 13  1  0  0  0  0
  3 14  1  0  0  0  0
  3 15  1  0  0  0  0
  4 16  1  0  0  0  0
  4 17  1  0  0  0  0
  5 18  1  0  0  0  0
  5 19  1  0  0  0  0
  6 20  1  0  0  0  0
  6 21  1  0  0  0  0
  7 22  1  0  0  0  0
  7 23  1  0  0  0  0
  8 24  1  0  0  0  0
  9 25  1  0  0  0  0
 12 26  1  0  0  0  0
M  END
> <id>
EN300-1634788

> <smiles>
O[C@@H]1COC[C@H]1C2=CCCCO2 |&1:1,5,r|

> <IUPAC Name>
rac-(3R,4S)-4-(3,4-dihydro-2H-pyran-6-yl)oxolan-3-ol

> <CAS>
2227691-53-2

> <URL>
https://www.enaminestore.com/catalog/EN300-1634788

> <ROCS_ShapeQuery>
hit0

> <ROCS_TanimotoCombo>
0.975 

> <ROCS_ShapeTanimoto>
0.483 

> <ROCS_ColorTanimoto>
0.492 

> <ROCS_RefTversky>
1.595 

> <ROCS_RefColorTversky>
0.659 

> <ROCS_RefTverskyCombo>
2.254 

> <ROCS_FitTversky>
0.409 

> <ROCS_FitColorTversky>
0.659 

> <ROCS_FitTverskyCombo>
1.069 

> <ROCS_ColorScore>
-3.955

> <ROCS_Overlap>
206.197

> <ROCS_Rank>
497                 

$$$$
untitled-dbase-72996_3
  -OEChem-06232314393D

 14 14  0     0  0  0  0  0  0999 V2000
   -6.1657    4.1428  -37.8082 C   0  0  0  0  0  0  0  0  0  0  0  0
   -4.9758    6.0066  -38.3351 C   0  0  0  0  0  0  0  0  0  0  0  0
   -6.2404    4.5274  -36.4850 C   0  0  0  0  0  0  0  0  0  0  0  0
   -5.6227    5.7217  -36.1747 C   0  0  0  0  0  0  0  0  0  0  0  0
   -5.6229    6.2476  -34.8172 C   0  0  0  0  0  0  0  0  0  0  0  0
   -5.5391    4.8608  -38.7633 N   0  0  0  0  0  0  0  0  0  0  0  0
   -4.9788    6.4896  -37.0780 N   0  0  0  0  0  0  0  0  0  0  0  0
   -6.9053    3.7420  -35.5359 N   0  0  0  0  0  0  0  0  0  0  0  0
   -6.5028    6.9970  -34.3867 O   0  0  0  0  0  0  0  0  0  0  0  0
   -6.6186    3.2197  -38.1569 H   0  0  0  0  0  0  0  0  0  0  0  0
   -4.4664    6.6038  -39.0816 H   0  0  0  0  0  0  0  0  0  0  0  0
   -4.7829    5.9487  -34.1543 H   0  0  0  0  0  0  0  0  0  0  0  0
   -7.3789    2.9043  -35.8258 H   0  0  0  0  0  0  0  0  0  0  0  0
   -6.9859    4.0675  -34.5883 H   0  0  0  0  0  0  0  0  0  0  0  0
  1  3  2  0  0  0  0
  1  6  1  0  0  0  0
  2  6  2  0  0  0  0
  2  7  1  0  0  0  0
  3  4  1  0  0  0  0
  3  8  1  0  0  0  0
  4  5  1  0  0  0  0
  4  7  2  0  0  0  0
  5  9  2  0  0  0  0
  1 10  1  0  0  0  0
  2 11  1  0  0  0  0
  5 12  1  0  0  0  0
  8 13  1  0  0  0  0
  8 14  1  0  0  0  0
M  END
> <id>
EN300-7204242

> <smiles>
NC=1C=NC=NC1C=O

> <MDLNUMBER>
MFCD28501920

> <IUPAC Name>
5-aminopyrimidine-4-carbaldehyde

> <URL>
https://www.enaminestore.com/catalog/EN300-7204242

> <ROCS_ShapeQuery>
hit0

> <ROCS_TanimotoCombo>
0.975 

> <ROCS_ShapeTanimoto>
0.479 

> <ROCS_ColorTanimoto>
0.496 

> <ROCS_RefTversky>
1.338 

> <ROCS_RefColorTversky>
0.663 

> <ROCS_RefTverskyCombo>
2.001 

> <ROCS_FitTversky>
0.427 

> <ROCS_FitColorTversky>
0.662 

> <ROCS_FitTverskyCombo>
1.090 

> <ROCS_ColorScore>
-3.980

> <ROCS_Overlap>
164.552

> <ROCS_Rank>
498                 

$$$$
untitled-dbase-67962_33
  -OEChem-06232314393D

 26 26  0     1  0  0  0  0  0999 V2000
   -5.8253    6.9531  -36.9057 C   0  0  0  0  0  0  0  0  0  0  0  0
   -7.5171    6.0111  -34.8974 C   0  0  0  0  0  0  0  0  0  0  0  0
   -6.5522    7.8535  -36.1269 C   0  0  0  0  0  0  0  0  0  0  0  0
   -5.9444    5.5817  -36.6805 C   0  0  0  0  0  0  0  0  0  0  0  0
   -7.3980    7.3825  -35.1227 C   0  0  0  0  0  0  0  0  0  0  0  0
   -6.7903    5.1107  -35.6763 C   0  0  0  0  0  0  0  0  0  0  0  0
   -6.4101    9.3173  -36.3870 C   0  0  0  0  0  0  0  0  0  0  0  0
   -8.1862    8.3270  -34.2759 C   0  0  0  0  0  0  0  0  0  0  0  0
   -5.4375    3.1659  -37.1923 C   0  0  0  0  0  0  0  0  0  0  0  0
   -5.1583    4.6322  -37.5230 C   0  0  1  0  0  0  0  0  0  0  0  0
   -6.9193    3.7743  -35.4440 O   0  0  0  0  0  0  0  0  0  0  0  0
   -5.4881    4.8465  -38.8996 O   0  0  0  0  0  0  0  0  0  0  0  0
   -5.1660    7.3200  -37.6890 H   0  0  0  0  0  0  0  0  0  0  0  0
   -8.1752    5.6407  -34.1150 H   0  0  0  0  0  0  0  0  0  0  0  0
   -7.1501    9.6453  -37.1262 H   0  0  0  0  0  0  0  0  0  0  0  0
   -6.5526    9.8989  -35.4679 H   0  0  0  0  0  0  0  0  0  0  0  0
   -5.4084    9.5573  -36.7646 H   0  0  0  0  0  0  0  0  0  0  0  0
   -7.6111    8.6105  -33.3868 H   0  0  0  0  0  0  0  0  0  0  0  0
   -8.4430    9.2375  -34.8313 H   0  0  0  0  0  0  0  0  0  0  0  0
   -9.1312    7.8739  -33.9512 H   0  0  0  0  0  0  0  0  0  0  0  0
   -6.5059    2.9403  -37.2692 H   0  0  0  0  0  0  0  0  0  0  0  0
   -5.1030    2.9142  -36.1796 H   0  0  0  0  0  0  0  0  0  0  0  0
   -4.8911    2.5029  -37.8721 H   0  0  0  0  0  0  0  0  0  0  0  0
   -4.0728    4.8027  -37.4303 H   0  0  0  0  0  0  0  0  0  0  0  0
   -7.5429    3.6193  -34.7174 H   0  0  0  0  0  0  0  0  0  0  0  0
   -6.4387    4.6817  -38.9780 H   0  0  0  0  0  0  0  0  0  0  0  0
  1  3  1  0  0  0  0
  1  4  2  0  0  0  0
  2  5  1  0  0  0  0
  2  6  2  0  0  0  0
  3  5  2  0  0  0  0
  3  7  1  0  0  0  0
  4  6  1  0  0  0  0
  4 10  1  0  0  0  0
  5  8  1  0  0  0  0
  6 11  1  0  0  0  0
  9 10  1  1  0  0  0
 10 12  1  0  0  0  0
  1 13  1  0  0  0  0
  2 14  1  0  0  0  0
  7 15  1  0  0  0  0
  7 16  1  0  0  0  0
  7 17  1  0  0  0  0
  8 18  1  0  0  0  0
  8 19  1  0  0  0  0
  8 20  1  0  0  0  0
  9 21  1  0  0  0  0
  9 22  1  0  0  0  0
  9 23  1  0  0  0  0
 10 24  1  0  0  0  0
 11 25  1  0  0  0  0
 12 26  1  0  0  0  0
M  END
> <id>
EN300-1736356

> <smiles>
C[C@@H](O)C=1C=C(C)C(C)=CC1O

> <IUPAC Name>
2-[(1R)-1-hydroxyethyl]-4,5-dimethylphenol

> <CAS>
2227802-10-8

> <URL>
https://www.enaminestore.com/catalog/EN300-1736356

> <ROCS_ShapeQuery>
hit0

> <ROCS_TanimotoCombo>
0.974 

> <ROCS_ShapeTanimoto>
0.414 

> <ROCS_ColorTanimoto>
0.561 

> <ROCS_RefTversky>
1.418 

> <ROCS_RefColorTversky>
0.665 

> <ROCS_RefTverskyCombo>
2.083 

> <ROCS_FitTversky>
0.369 

> <ROCS_FitColorTversky>
0.782 

> <ROCS_FitTverskyCombo>
1.151 

> <ROCS_ColorScore>
-3.955

> <ROCS_Overlap>
182.703

> <ROCS_Rank>
499                 

$$$$
untitled-dbase-65058_17
  -OEChem-06232314393D

 20 20  0     1  0  0  0  0  0999 V2000
   -5.1663    6.0761  -38.5621 C   0  0  0  0  0  0  0  0  0  0  0  0
   -5.9073    6.6951  -37.5554 C   0  0  0  0  0  0  0  0  0  0  0  0
   -5.0054    4.6905  -38.5581 C   0  0  0  0  0  0  0  0  0  0  0  0
   -6.4872    5.9285  -36.5446 C   0  0  0  0  0  0  0  0  0  0  0  0
   -6.3263    4.5429  -36.5405 C   0  0  0  0  0  0  0  0  0  0  0  0
   -5.5854    3.9240  -37.5473 C   0  0  0  0  0  0  0  0  0  0  0  0
   -7.2757    6.6111  -35.4757 C   0  0  2  0  0  0  0  0  0  0  0  0
   -7.9551    7.8944  -35.9410 C   0  0  0  0  0  0  0  0  0  0  0  0
   -6.8971    3.8031  -35.5462 O   0  0  0  0  0  0  0  0  0  0  0  0
   -6.4866    6.9267  -34.3199 O   0  0  0  0  0  0  0  0  0  0  0  0
   -8.6255    8.4839  -34.9267 F   0  0  0  0  0  0  0  0  0  0  0  0
   -8.8521    7.6391  -36.9207 F   0  0  0  0  0  0  0  0  0  0  0  0
   -7.0657    8.7866  -36.4253 F   0  0  0  0  0  0  0  0  0  0  0  0
   -5.3683    2.2124  -37.5693 Cl  0  0  0  0  0  0  0  0  0  0  0  0
   -4.7148    6.6724  -39.3495 H   0  0  0  0  0  0  0  0  0  0  0  0
   -6.0265    7.7753  -37.5663 H   0  0  0  0  0  0  0  0  0  0  0  0
   -4.4244    4.2230  -39.3490 H   0  0  0  0  0  0  0  0  0  0  0  0
   -8.0641    5.9368  -35.1090 H   0  0  0  0  0  0  0  0  0  0  0  0
   -6.7002    2.8629  -35.6759 H   0  0  0  0  0  0  0  0  0  0  0  0
   -7.0865    7.3604  -33.6976 H   0  0  0  0  0  0  0  0  0  0  0  0
  1  2  1  0  0  0  0
  1  3  2  0  0  0  0
  2  4  2  0  0  0  0
  3  6  1  0  0  0  0
  4  5  1  0  0  0  0
  4  7  1  0  0  0  0
  5  6  2  0  0  0  0
  5  9  1  0  0  0  0
  6 14  1  0  0  0  0
  7  8  1  0  0  0  0
  7 10  1  6  0  0  0
  8 11  1  0  0  0  0
  8 12  1  0  0  0  0
  8 13  1  0  0  0  0
  1 15  1  0  0  0  0
  2 16  1  0  0  0  0
  3 17  1  0  0  0  0
  7 18  1  0  0  0  0
  9 19  1  0  0  0  0
 10 20  1  0  0  0  0
M  END
> <id>
EN300-1972599

> <smiles>
O[C@H](C=1C=CC=C(Cl)C1O)C(F)(F)F

> <IUPAC Name>
2-chloro-6-[(1R)-2,2,2-trifluoro-1-hydroxyethyl]phenol

> <CAS>
2227687-52-5

> <URL>
https://www.enaminestore.com/catalog/EN300-1972599

> <ROCS_ShapeQuery>
hit0

> <ROCS_TanimotoCombo>
0.974 

> <ROCS_ShapeTanimoto>
0.403 

> <ROCS_ColorTanimoto>
0.571 

> <ROCS_RefTversky>
1.555 

> <ROCS_RefColorTversky>
0.672 

> <ROCS_RefTverskyCombo>
2.227 

> <ROCS_FitTversky>
0.352 

> <ROCS_FitColorTversky>
0.792 

> <ROCS_FitTverskyCombo>
1.144 

> <ROCS_ColorScore>
-3.998

> <ROCS_Overlap>
208.119

> <ROCS_Rank>
500                 

$$$$
