untitled-dbase-53854_0
  -OEChem-06232314393D

 26 26  0     1  0  0  0  0  0999 V2000
   -6.3064    4.6067  -35.9773 C   0  0  0  0  0  0  0  0  0  0  0  0
   -7.6741    8.1780  -36.4948 C   0  0  0  0  0  0  0  0  0  0  0  0
   -6.8511    9.0509  -37.4407 C   0  0  0  0  0  0  0  0  0  0  0  0
   -6.8894    7.5796  -35.3296 C   0  0  0  0  0  0  0  0  0  0  0  0
   -6.4770    8.3778  -38.7615 C   0  0  0  0  0  0  0  0  0  0  0  0
   -5.5403    6.9313  -35.6447 C   0  0  0  0  0  0  0  0  0  0  0  0
   -5.4714    7.2260  -38.6935 C   0  0  0  0  0  0  0  0  0  0  0  0
   -5.5352    5.7157  -36.5837 C   0  0  2  0  0  0  0  0  0  0  0  0
   -6.0084    5.9477  -38.0330 C   0  0  2  0  0  0  0  0  0  0  0  0
   -6.9107    3.7376  -35.5022 N   0  0  0  0  0  0  0  0  0  0  0  0
   -5.5191    4.8306  -38.7984 O   0  0  0  0  0  0  0  0  0  0  0  0
   -8.4612    8.8051  -36.0538 H   0  0  0  0  0  0  0  0  0  0  0  0
   -8.2124    7.3970  -37.0403 H   0  0  0  0  0  0  0  0  0  0  0  0
   -7.4660    9.9234  -37.6993 H   0  0  0  0  0  0  0  0  0  0  0  0
   -5.9610    9.4556  -36.9466 H   0  0  0  0  0  0  0  0  0  0  0  0
   -6.6992    8.3848  -34.6068 H   0  0  0  0  0  0  0  0  0  0  0  0
   -7.5338    6.8639  -34.8048 H   0  0  0  0  0  0  0  0  0  0  0  0
   -7.3880    8.0371  -39.2699 H   0  0  0  0  0  0  0  0  0  0  0  0
   -6.0451    9.1511  -39.4105 H   0  0  0  0  0  0  0  0  0  0  0  0
   -4.8448    7.6910  -36.0174 H   0  0  0  0  0  0  0  0  0  0  0  0
   -5.1101    6.6155  -34.6830 H   0  0  0  0  0  0  0  0  0  0  0  0
   -5.1905    6.9969  -39.7311 H   0  0  0  0  0  0  0  0  0  0  0  0
   -4.5416    7.5597  -38.2192 H   0  0  0  0  0  0  0  0  0  0  0  0
   -4.4920    5.3675  -36.6349 H   0  0  0  0  0  0  0  0  0  0  0  0
   -7.1010    5.8978  -38.1121 H   0  0  0  0  0  0  0  0  0  0  0  0
   -5.8654    4.9542  -39.6911 H   0  0  0  0  0  0  0  0  0  0  0  0
  1  8  1  1  0  0  0
  1 10  3  0  0  0  0
  2  3  1  0  0  0  0
  2  4  1  0  0  0  0
  3  5  1  0  0  0  0
  4  6  1  0  0  0  0
  5  7  1  0  0  0  0
  6  8  1  0  0  0  0
  7  9  1  0  0  0  0
  8  9  1  0  0  0  0
  9 11  1  6  0  0  0
  2 12  1  0  0  0  0
  2 13  1  0  0  0  0
  3 14  1  0  0  0  0
  3 15  1  0  0  0  0
  4 16  1  0  0  0  0
  4 17  1  0  0  0  0
  5 18  1  0  0  0  0
  5 19  1  0  0  0  0
  6 20  1  0  0  0  0
  6 21  1  0  0  0  0
  7 22  1  0  0  0  0
  7 23  1  0  0  0  0
  8 24  1  0  0  0  0
  9 25  1  0  0  0  0
 11 26  1  0  0  0  0
M  END
> <id>
EN300-45139466

> <smiles>
O[C@@H]1CCCCCC[C@H]1C#N |&1:1,8,r|

> <IUPAC Name>
rac-(1R,2S)-2-hydroxycyclooctane-1-carbonitrile

> <Purity>
95

> <URL>
https://www.enaminestore.com/catalog/EN300-45139466

> <ROCS_ShapeQuery>
_hit0

> <ROCS_TanimotoCombo>
1.184 

> <ROCS_ShapeTanimoto>
0.438 

> <ROCS_ColorTanimoto>
0.747 

> <ROCS_RefTversky>
1.333 

> <ROCS_RefColorTversky>
0.758 

> <ROCS_RefTverskyCombo>
2.091 

> <ROCS_FitTversky>
0.394 

> <ROCS_FitColorTversky>
0.981 

> <ROCS_FitTverskyCombo>
1.376 

> <ROCS_ColorScore>
-2.993

> <ROCS_Overlap>
166.660

> <ROCS_Rank>
1                   

$$$$
untitled-dbase-28701_20
  -OEChem-06232314393D

 27 28  0     1  0  0  0  0  0999 V2000
   -6.0962    4.6332  -36.0408 C   0  0  0  0  0  0  0  0  0  0  0  0
   -5.1006    6.8853  -35.5333 C   0  0  0  0  0  0  0  0  0  0  0  0
   -6.4308    7.3437  -34.9154 C   0  0  0  0  0  0  0  0  0  0  0  0
   -7.5714    7.1582  -37.8416 C   0  0  0  0  0  0  0  0  0  0  0  0
   -6.1723    7.1195  -38.4596 C   0  0  0  0  0  0  0  0  0  0  0  0
   -8.5989    8.4329  -35.7898 C   0  0  0  0  0  0  0  0  0  0  0  0
   -5.1402    5.6687  -36.4848 C   0  0  2  0  0  0  0  0  0  0  0  0
   -7.0961    8.4775  -35.6307 C   0  0  2  0  0  0  0  0  0  0  0  0
   -7.7154    8.3871  -37.0025 C   0  0  1  0  0  0  0  0  0  0  0  0
   -5.2496    5.9893  -37.9918 C   0  0  1  0  0  0  0  0  0  0  0  0
   -6.8469    3.8202  -35.6922 N   0  0  0  0  0  0  0  0  0  0  0  0
   -5.5586    4.7913  -38.7116 O   0  0  0  0  0  0  0  0  0  0  0  0
   -4.6801    7.7386  -36.0900 H   0  0  0  0  0  0  0  0  0  0  0  0
   -4.3895    6.7048  -34.7123 H   0  0  0  0  0  0  0  0  0  0  0  0
   -7.1078    6.4778  -34.8053 H   0  0  0  0  0  0  0  0  0  0  0  0
   -6.2310    7.6630  -33.8752 H   0  0  0  0  0  0  0  0  0  0  0  0
   -8.2909    7.2357  -38.6489 H   0  0  0  0  0  0  0  0  0  0  0  0
   -7.7835    6.2498  -37.3008 H   0  0  0  0  0  0  0  0  0  0  0  0
   -6.3194    6.9880  -39.5385 H   0  0  0  0  0  0  0  0  0  0  0  0
   -5.6749    8.0854  -38.3243 H   0  0  0  0  0  0  0  0  0  0  0  0
   -9.1187    7.5322  -35.4866 H   0  0  0  0  0  0  0  0  0  0  0  0
   -9.1492    9.3468  -35.6004 H   0  0  0  0  0  0  0  0  0  0  0  0
   -4.1105    5.1498  -36.3625 H   0  0  0  0  0  0  0  0  0  0  0  0
   -6.6845    9.4407  -35.3259 H   0  0  0  0  0  0  0  0  0  0  0  0
   -7.6625    9.2936  -37.6152 H   0  0  0  0  0  0  0  0  0  0  0  0
   -4.2381    6.2677  -38.3648 H   0  0  0  0  0  0  0  0  0  0  0  0
   -5.4160    4.9871  -39.6511 H   0  0  0  0  0  0  0  0  0  0  0  0
  1  7  1  0  0  0  0
  1 11  3  0  0  0  0
  2  3  1  0  0  0  0
  2  7  1  0  0  0  0
  3  8  1  0  0  0  0
  4  5  1  0  0  0  0
  4  9  1  0  0  0  0
  5 10  1  0  0  0  0
  6  8  1  0  0  0  0
  6  9  1  0  0  0  0
  7 10  1  0  0  0  0
  8  9  1  0  0  0  0
 10 12  1  0  0  0  0
  2 13  1  0  0  0  0
  2 14  1  0  0  0  0
  3 15  1  0  0  0  0
  3 16  1  0  0  0  0
  4 17  1  0  0  0  0
  4 18  1  0  0  0  0
  5 19  1  0  0  0  0
  5 20  1  0  0  0  0
  6 21  1  0  0  0  0
  6 22  1  0  0  0  0
  7 23  1  0  0  0  0
  8 24  1  0  0  0  0
  9 25  1  0  0  0  0
 10 26  1  0  0  0  0
 12 27  1  0  0  0  0
M  END
> <id>
EN300-330796

> <smiles>
OC1CCC2CC2CCC1C#N

> <MDLNUMBER>
MFCD30488575

> <IUPAC Name>
5-hydroxybicyclo[6.1.0]nonane-4-carbonitrile

> <CAS>
2060008-94-6

> <URL>
https://www.enaminestore.com/catalog/EN300-330796

> <ROCS_ShapeQuery>
_hit0

> <ROCS_TanimotoCombo>
1.171 

> <ROCS_ShapeTanimoto>
0.441 

> <ROCS_ColorTanimoto>
0.730 

> <ROCS_RefTversky>
1.450 

> <ROCS_RefColorTversky>
0.748 

> <ROCS_RefTverskyCombo>
2.198 

> <ROCS_FitTversky>
0.388 

> <ROCS_FitColorTversky>
0.969 

> <ROCS_FitTverskyCombo>
1.357 

> <ROCS_ColorScore>
-2.955

> <ROCS_Overlap>
185.467

> <ROCS_Rank>
2                   

$$$$
untitled-dbase-45622_0
  -OEChem-06232314393D

 15 15  0     0  0  0  0  0  0999 V2000
   -5.9712    5.9814  -36.6034 C   0  0  0  0  0  0  0  0  0  0  0  0
   -6.9041    4.6947  -34.8340 C   0  0  0  0  0  0  0  0  0  0  0  0
   -6.4749    3.6696  -36.8447 C   0  0  0  0  0  0  0  0  0  0  0  0
   -6.4366    5.9149  -35.2949 C   0  0  0  0  0  0  0  0  0  0  0  0
   -5.9874    4.8417  -37.3999 C   0  0  0  0  0  0  0  0  0  0  0  0
   -6.9354    3.5663  -35.5779 N   0  0  0  0  0  0  0  0  0  0  0  0
   -6.4321    7.0490  -34.4665 N   0  0  0  0  0  0  0  0  0  0  0  0
   -5.5243    4.8780  -38.7253 N   0  0  0  0  0  0  0  0  0  0  0  0
   -5.5967    6.9214  -37.0025 H   0  0  0  0  0  0  0  0  0  0  0  0
   -7.2797    4.5804  -33.8215 H   0  0  0  0  0  0  0  0  0  0  0  0
   -6.5122    2.7473  -37.4168 H   0  0  0  0  0  0  0  0  0  0  0  0
   -6.8164    6.9869  -33.5423 H   0  0  0  0  0  0  0  0  0  0  0  0
   -6.1322    7.9307  -34.8384 H   0  0  0  0  0  0  0  0  0  0  0  0
   -5.5024    4.0325  -39.2641 H   0  0  0  0  0  0  0  0  0  0  0  0
   -5.1330    5.7271  -39.0883 H   0  0  0  0  0  0  0  0  0  0  0  0
  1  4  1  0  0  0  0
  1  5  2  0  0  0  0
  2  4  2  0  0  0  0
  2  6  1  0  0  0  0
  3  5  1  0  0  0  0
  3  6  2  0  0  0  0
  4  7  1  0  0  0  0
  5  8  1  0  0  0  0
  1  9  1  0  0  0  0
  2 10  1  0  0  0  0
  3 11  1  0  0  0  0
  7 12  1  0  0  0  0
  7 13  1  0  0  0  0
  8 14  1  0  0  0  0
  8 15  1  0  0  0  0
M  END
> <id>
EN300-7644407

> <smiles>
Cl.Cl.NC=1C=NC=C(N)C1

> <MDLNUMBER>
MFCD16988789

> <IUPAC Name>
pyridine-3,5-diamine dihydrochloride

> <CAS>
1354940-83-2

> <Purity>
95

> <URL>
https://www.enaminestore.com/catalog/EN300-7644407

> <ROCS_ShapeQuery>
_hit0

> <ROCS_TanimotoCombo>
1.161 

> <ROCS_ShapeTanimoto>
0.527 

> <ROCS_ColorTanimoto>
0.634 

> <ROCS_RefTversky>
1.304 

> <ROCS_RefColorTversky>
0.946 

> <ROCS_RefTverskyCombo>
2.250 

> <ROCS_FitTversky>
0.470 

> <ROCS_FitColorTversky>
0.658 

> <ROCS_FitTverskyCombo>
1.127 

> <ROCS_ColorScore>
-3.880

> <ROCS_Overlap>
156.914

> <ROCS_Rank>
3                   

$$$$
untitled-dbase-39085_0
  -OEChem-06232314393D

 15 15  0     0  0  0  0  0  0999 V2000
   -5.9712    5.9814  -36.6034 C   0  0  0  0  0  0  0  0  0  0  0  0
   -6.9041    4.6947  -34.8340 C   0  0  0  0  0  0  0  0  0  0  0  0
   -6.4749    3.6696  -36.8447 C   0  0  0  0  0  0  0  0  0  0  0  0
   -6.4366    5.9149  -35.2949 C   0  0  0  0  0  0  0  0  0  0  0  0
   -5.9874    4.8417  -37.3999 C   0  0  0  0  0  0  0  0  0  0  0  0
   -6.9354    3.5663  -35.5779 N   0  0  0  0  0  0  0  0  0  0  0  0
   -6.4321    7.0490  -34.4665 N   0  0  0  0  0  0  0  0  0  0  0  0
   -5.5243    4.8780  -38.7253 N   0  0  0  0  0  0  0  0  0  0  0  0
   -5.5967    6.9214  -37.0025 H   0  0  0  0  0  0  0  0  0  0  0  0
   -7.2797    4.5804  -33.8215 H   0  0  0  0  0  0  0  0  0  0  0  0
   -6.5122    2.7473  -37.4168 H   0  0  0  0  0  0  0  0  0  0  0  0
   -6.8164    6.9869  -33.5423 H   0  0  0  0  0  0  0  0  0  0  0  0
   -6.1322    7.9307  -34.8384 H   0  0  0  0  0  0  0  0  0  0  0  0
   -5.5024    4.0325  -39.2641 H   0  0  0  0  0  0  0  0  0  0  0  0
   -5.1330    5.7271  -39.0883 H   0  0  0  0  0  0  0  0  0  0  0  0
  1  4  1  0  0  0  0
  1  5  2  0  0  0  0
  2  4  2  0  0  0  0
  2  6  1  0  0  0  0
  3  5  1  0  0  0  0
  3  6  2  0  0  0  0
  4  7  1  0  0  0  0
  5  8  1  0  0  0  0
  1  9  1  0  0  0  0
  2 10  1  0  0  0  0
  3 11  1  0  0  0  0
  7 12  1  0  0  0  0
  7 13  1  0  0  0  0
  8 14  1  0  0  0  0
  8 15  1  0  0  0  0
M  END
> <id>
EN300-196670

> <smiles>
NC=1C=NC=C(N)C1

> <MDLNUMBER>
MFCD00955693

> <IUPAC Name>
pyridine-3,5-diamine

> <CAS>
4318-78-9

> <URL>
https://www.enaminestore.com/catalog/EN300-196670

> <ROCS_ShapeQuery>
_hit0

> <ROCS_TanimotoCombo>
1.161 

> <ROCS_ShapeTanimoto>
0.527 

> <ROCS_ColorTanimoto>
0.634 

> <ROCS_RefTversky>
1.304 

> <ROCS_RefColorTversky>
0.946 

> <ROCS_RefTverskyCombo>
2.250 

> <ROCS_FitTversky>
0.470 

> <ROCS_FitColorTversky>
0.658 

> <ROCS_FitTverskyCombo>
1.127 

> <ROCS_ColorScore>
-3.880

> <ROCS_Overlap>
156.914

> <ROCS_Rank>
4                   

$$$$
untitled-dbase-19800_0
  -OEChem-06232314393D

 15 15  0     0  0  0  0  0  0999 V2000
   -5.9712    5.9814  -36.6034 C   0  0  0  0  0  0  0  0  0  0  0  0
   -6.9041    4.6947  -34.8340 C   0  0  0  0  0  0  0  0  0  0  0  0
   -6.4749    3.6696  -36.8447 C   0  0  0  0  0  0  0  0  0  0  0  0
   -6.4366    5.9149  -35.2949 C   0  0  0  0  0  0  0  0  0  0  0  0
   -5.9874    4.8417  -37.3999 C   0  0  0  0  0  0  0  0  0  0  0  0
   -6.9354    3.5663  -35.5779 N   0  0  0  0  0  0  0  0  0  0  0  0
   -6.4321    7.0490  -34.4665 N   0  0  0  0  0  0  0  0  0  0  0  0
   -5.5243    4.8780  -38.7253 N   0  0  0  0  0  0  0  0  0  0  0  0
   -5.5967    6.9214  -37.0025 H   0  0  0  0  0  0  0  0  0  0  0  0
   -7.2797    4.5804  -33.8215 H   0  0  0  0  0  0  0  0  0  0  0  0
   -6.5122    2.7473  -37.4168 H   0  0  0  0  0  0  0  0  0  0  0  0
   -6.8164    6.9869  -33.5423 H   0  0  0  0  0  0  0  0  0  0  0  0
   -6.1322    7.9307  -34.8384 H   0  0  0  0  0  0  0  0  0  0  0  0
   -5.5024    4.0325  -39.2641 H   0  0  0  0  0  0  0  0  0  0  0  0
   -5.1330    5.7271  -39.0883 H   0  0  0  0  0  0  0  0  0  0  0  0
  1  4  1  0  0  0  0
  1  5  2  0  0  0  0
  2  4  2  0  0  0  0
  2  6  1  0  0  0  0
  3  5  1  0  0  0  0
  3  6  2  0  0  0  0
  4  7  1  0  0  0  0
  5  8  1  0  0  0  0
  1  9  1  0  0  0  0
  2 10  1  0  0  0  0
  3 11  1  0  0  0  0
  7 12  1  0  0  0  0
  7 13  1  0  0  0  0
  8 14  1  0  0  0  0
  8 15  1  0  0  0  0
M  END
> <id>
EN300-1703165

> <smiles>
Br.Br.NC=1C=NC=C(N)C1

> <MDLNUMBER>
MFCD31665647

> <IUPAC Name>
pyridine-3,5-diamine dihydrobromide

> <CAS>
267418-89-3

> <Purity>
95

> <URL>
https://www.enaminestore.com/catalog/EN300-1703165

> <Saltdate>
Br

> <ROCS_ShapeQuery>
_hit0

> <ROCS_TanimotoCombo>
1.161 

> <ROCS_ShapeTanimoto>
0.527 

> <ROCS_ColorTanimoto>
0.634 

> <ROCS_RefTversky>
1.304 

> <ROCS_RefColorTversky>
0.946 

> <ROCS_RefTverskyCombo>
2.250 

> <ROCS_FitTversky>
0.470 

> <ROCS_FitColorTversky>
0.658 

> <ROCS_FitTverskyCombo>
1.127 

> <ROCS_ColorScore>
-3.880

> <ROCS_Overlap>
156.914

> <ROCS_Rank>
5                   

$$$$
untitled-dbase-9662_30
  -OEChem-06232314393D

 24 24  0     1  0  0  0  0  0999 V2000
   -6.9399    4.6713  -36.2398 C   0  0  0  0  0  0  0  0  0  0  0  0
   -5.9188    7.1704  -34.3719 C   0  0  0  0  0  0  0  0  0  0  0  0
   -4.6982    7.1934  -34.9206 C   0  0  0  0  0  0  0  0  0  0  0  0
   -7.2752    7.3005  -34.9937 C   0  0  0  0  0  0  0  0  0  0  0  0
   -4.3255    7.4319  -36.3477 C   0  0  0  0  0  0  0  0  0  0  0  0
   -7.4698    7.1238  -36.5046 C   0  0  0  0  0  0  0  0  0  0  0  0
   -4.3797    6.1646  -37.1937 C   0  0  0  0  0  0  0  0  0  0  0  0
   -6.9894    5.8166  -37.1673 C   0  0  1  0  0  0  0  0  0  0  0  0
   -5.6842    5.9739  -37.9743 C   0  0  2  0  0  0  0  0  0  0  0  0
   -6.9010    3.7702  -35.5100 N   0  0  0  0  0  0  0  0  0  0  0  0
   -5.5056    4.8146  -38.8001 O   0  0  0  0  0  0  0  0  0  0  0  0
   -5.9355    7.0632  -33.2411 H   0  0  0  0  0  0  0  0  0  0  0  0
   -3.8436    7.0280  -34.2267 H   0  0  0  0  0  0  0  0  0  0  0  0
   -8.0130    6.6326  -34.4512 H   0  0  0  0  0  0  0  0  0  0  0  0
   -7.6820    8.3179  -34.7066 H   0  0  0  0  0  0  0  0  0  0  0  0
   -5.0478    8.1481  -36.7536 H   0  0  0  0  0  0  0  0  0  0  0  0
   -3.3536    7.9220  -36.4325 H   0  0  0  0  0  0  0  0  0  0  0  0
   -8.5447    7.2832  -36.7225 H   0  0  0  0  0  0  0  0  0  0  0  0
   -6.9665    7.9718  -37.0116 H   0  0  0  0  0  0  0  0  0  0  0  0
   -3.5303    6.1206  -37.8693 H   0  0  0  0  0  0  0  0  0  0  0  0
   -4.2947    5.3288  -36.4998 H   0  0  0  0  0  0  0  0  0  0  0  0
   -7.7869    5.5313  -37.9336 H   0  0  0  0  0  0  0  0  0  0  0  0
   -5.7599    6.8066  -38.6553 H   0  0  0  0  0  0  0  0  0  0  0  0
   -4.7545    5.0032  -39.3844 H   0  0  0  0  0  0  0  0  0  0  0  0
  1  8  1  0  0  0  0
  1 10  3  0  0  0  0
  2  3  2  0  0  0  0
  2  4  1  0  0  0  0
  3  5  1  0  0  0  0
  4  6  1  0  0  0  0
  5  7  1  0  0  0  0
  6  8  1  0  0  0  0
  7  9  1  0  0  0  0
  8  9  1  0  0  0  0
  9 11  1  0  0  0  0
  2 12  1  0  0  0  0
  3 13  1  0  0  0  0
  4 14  1  0  0  0  0
  4 15  1  0  0  0  0
  5 16  1  0  0  0  0
  5 17  1  0  0  0  0
  6 18  1  0  0  0  0
  6 19  1  0  0  0  0
  7 20  1  0  0  0  0
  7 21  1  0  0  0  0
  8 22  1  0  0  0  0
  9 23  1  0  0  0  0
 11 24  1  0  0  0  0
M  END
> <id>
EN300-330785

> <smiles>
OC1CC/C=C\CCC1C#N

> <MDLNUMBER>
MFCD30488564

> <IUPAC Name>
(4Z)-8-hydroxycyclooct-4-ene-1-carbonitrile

> <CAS>
2060523-78-4

> <URL>
https://www.enaminestore.com/catalog/EN300-330785

> <ROCS_ShapeQuery>
_hit0

> <ROCS_TanimotoCombo>
1.159 

> <ROCS_ShapeTanimoto>
0.411 

> <ROCS_ColorTanimoto>
0.749 

> <ROCS_RefTversky>
1.288 

> <ROCS_RefColorTversky>
0.759 

> <ROCS_RefTverskyCombo>
2.046 

> <ROCS_FitTversky>
0.376 

> <ROCS_FitColorTversky>
0.983 

> <ROCS_FitTverskyCombo>
1.359 

> <ROCS_ColorScore>
-2.997

> <ROCS_Overlap>
161.361

> <ROCS_Rank>
6                   

$$$$
untitled-dbase-5456_0
  -OEChem-06232314393D

 13 13  0     0  0  0  0  0  0999 V2000
   -5.9608    5.9907  -36.6199 C   0  0  0  0  0  0  0  0  0  0  0  0
   -6.8946    4.7077  -34.8483 C   0  0  0  0  0  0  0  0  0  0  0  0
   -6.4693    3.6797  -36.8584 C   0  0  0  0  0  0  0  0  0  0  0  0
   -6.4251    5.9265  -35.3109 C   0  0  0  0  0  0  0  0  0  0  0  0
   -5.9800    4.8503  -37.4152 C   0  0  0  0  0  0  0  0  0  0  0  0
   -6.9288    3.5786  -35.5910 N   0  0  0  0  0  0  0  0  0  0  0  0
   -6.4205    7.0225  -34.5130 O   0  0  0  0  0  0  0  0  0  0  0  0
   -5.5335    4.8837  -38.6951 O   0  0  0  0  0  0  0  0  0  0  0  0
   -5.5846    6.9286  -37.0201 H   0  0  0  0  0  0  0  0  0  0  0  0
   -7.2703    4.6000  -33.8356 H   0  0  0  0  0  0  0  0  0  0  0  0
   -6.5071    2.7589  -37.4322 H   0  0  0  0  0  0  0  0  0  0  0  0
   -6.0627    7.7908  -34.9898 H   0  0  0  0  0  0  0  0  0  0  0  0
   -5.2262    5.7767  -38.9263 H   0  0  0  0  0  0  0  0  0  0  0  0
  1  4  1  0  0  0  0
  1  5  2  0  0  0  0
  2  4  2  0  0  0  0
  2  6  1  0  0  0  0
  3  5  1  0  0  0  0
  3  6  2  0  0  0  0
  4  7  1  0  0  0  0
  5  8  1  0  0  0  0
  1  9  1  0  0  0  0
  2 10  1  0  0  0  0
  3 11  1  0  0  0  0
  7 12  1  0  0  0  0
  8 13  1  0  0  0  0
M  END
> <id>
EN300-101250

> <smiles>
OC=1C=NC=C(O)C1

> <MDLNUMBER>
MFCD01860225

> <IUPAC Name>
pyridine-3,5-diol

> <CAS>
3543-02-0

> <Purity>
95

> <URL>
https://www.enaminestore.com/catalog/EN300-101250

> <MP>
234-236

> <ROCS_ShapeQuery>
_hit0

> <ROCS_TanimotoCombo>
1.154 

> <ROCS_ShapeTanimoto>
0.524 

> <ROCS_ColorTanimoto>
0.629 

> <ROCS_RefTversky>
1.307 

> <ROCS_RefColorTversky>
0.942 

> <ROCS_RefTverskyCombo>
2.249 

> <ROCS_FitTversky>
0.467 

> <ROCS_FitColorTversky>
0.655 

> <ROCS_FitTverskyCombo>
1.122 

> <ROCS_ColorScore>
-3.863

> <ROCS_Overlap>
157.450

> <ROCS_Rank>
7                   

$$$$
untitled-dbase-37794_0
  -OEChem-06232314393D

 13 13  0     0  0  0  0  0  0999 V2000
   -5.9815    6.1164  -36.7965 C   0  0  0  0  0  0  0  0  0  0  0  0
   -6.4269    3.7802  -36.8065 C   0  0  0  0  0  0  0  0  0  0  0  0
   -6.8812    4.9884  -34.9059 C   0  0  0  0  0  0  0  0  0  0  0  0
   -5.9692    4.9035  -37.4761 C   0  0  0  0  0  0  0  0  0  0  0  0
   -6.4446    6.1683  -35.4865 C   0  0  0  0  0  0  0  0  0  0  0  0
   -6.8842    3.7914  -35.5343 N   0  0  0  0  0  0  0  0  0  0  0  0
   -5.5081    4.8197  -38.8001 N   0  0  0  0  0  0  0  0  0  0  0  0
   -6.4746    7.6461  -34.6166 Cl  0  0  0  0  0  0  0  0  0  0  0  0
   -5.6298    7.0192  -37.2907 H   0  0  0  0  0  0  0  0  0  0  0  0
   -6.4421    2.8055  -37.2850 H   0  0  0  0  0  0  0  0  0  0  0  0
   -7.2554    4.9626  -33.8869 H   0  0  0  0  0  0  0  0  0  0  0  0
   -5.4651    3.9257  -39.2524 H   0  0  0  0  0  0  0  0  0  0  0  0
   -5.1387    5.6381  -39.2468 H   0  0  0  0  0  0  0  0  0  0  0  0
  1  4  1  0  0  0  0
  1  5  2  0  0  0  0
  2  4  2  0  0  0  0
  2  6  1  0  0  0  0
  3  5  1  0  0  0  0
  3  6  2  0  0  0  0
  4  7  1  0  0  0  0
  5  8  1  0  0  0  0
  1  9  1  0  0  0  0
  2 10  1  0  0  0  0
  3 11  1  0  0  0  0
  7 12  1  0  0  0  0
  7 13  1  0  0  0  0
M  END
> <id>
EN300-384628

> <smiles>
Cl.NC=1C=NC=C(Cl)C1

> <MDLNUMBER>
MFCD30734259

> <IUPAC Name>
5-chloropyridin-3-amine hydrochloride

> <CAS>
2094506-37-1

> <Purity>
95

> <URL>
https://www.enaminestore.com/catalog/EN300-384628

> <Saltdate>
Cl

> <ROCS_ShapeQuery>
_hit0

> <ROCS_TanimotoCombo>
1.137 

> <ROCS_ShapeTanimoto>
0.537 

> <ROCS_ColorTanimoto>
0.600 

> <ROCS_RefTversky>
1.299 

> <ROCS_RefColorTversky>
0.750 

> <ROCS_RefTverskyCombo>
2.049 

> <ROCS_FitTversky>
0.478 

> <ROCS_FitColorTversky>
0.750 

> <ROCS_FitTverskyCombo>
1.228 

> <ROCS_ColorScore>
-2.999

> <ROCS_Overlap>
155.685

> <ROCS_Rank>
8                   

$$$$
untitled-dbase-38068_0
  -OEChem-06232314393D

 13 13  0     0  0  0  0  0  0999 V2000
   -5.9815    6.1164  -36.7965 C   0  0  0  0  0  0  0  0  0  0  0  0
   -6.4269    3.7802  -36.8065 C   0  0  0  0  0  0  0  0  0  0  0  0
   -6.8812    4.9884  -34.9059 C   0  0  0  0  0  0  0  0  0  0  0  0
   -5.9692    4.9035  -37.4761 C   0  0  0  0  0  0  0  0  0  0  0  0
   -6.4446    6.1683  -35.4865 C   0  0  0  0  0  0  0  0  0  0  0  0
   -6.8842    3.7914  -35.5343 N   0  0  0  0  0  0  0  0  0  0  0  0
   -5.5081    4.8197  -38.8001 N   0  0  0  0  0  0  0  0  0  0  0  0
   -6.4746    7.6461  -34.6166 Cl  0  0  0  0  0  0  0  0  0  0  0  0
   -5.6298    7.0192  -37.2907 H   0  0  0  0  0  0  0  0  0  0  0  0
   -6.4421    2.8055  -37.2850 H   0  0  0  0  0  0  0  0  0  0  0  0
   -7.2554    4.9626  -33.8869 H   0  0  0  0  0  0  0  0  0  0  0  0
   -5.4651    3.9257  -39.2524 H   0  0  0  0  0  0  0  0  0  0  0  0
   -5.1387    5.6381  -39.2468 H   0  0  0  0  0  0  0  0  0  0  0  0
  1  4  1  0  0  0  0
  1  5  2  0  0  0  0
  2  4  2  0  0  0  0
  2  6  1  0  0  0  0
  3  5  1  0  0  0  0
  3  6  2  0  0  0  0
  4  7  1  0  0  0  0
  5  8  1  0  0  0  0
  1  9  1  0  0  0  0
  2 10  1  0  0  0  0
  3 11  1  0  0  0  0
  7 12  1  0  0  0  0
  7 13  1  0  0  0  0
M  END
> <id>
EN300-123737

> <smiles>
NC=1C=NC=C(Cl)C1

> <MDLNUMBER>
MFCD03701386

> <IUPAC Name>
5-chloropyridin-3-amine

> <CAS>
22353-34-0

> <Purity>
95

> <URL>
https://www.enaminestore.com/catalog/EN300-123737

> <MP>
80-82

> <ROCS_ShapeQuery>
_hit0

> <ROCS_TanimotoCombo>
1.137 

> <ROCS_ShapeTanimoto>
0.537 

> <ROCS_ColorTanimoto>
0.600 

> <ROCS_RefTversky>
1.299 

> <ROCS_RefColorTversky>
0.750 

> <ROCS_RefTverskyCombo>
2.049 

> <ROCS_FitTversky>
0.478 

> <ROCS_FitColorTversky>
0.750 

> <ROCS_FitTverskyCombo>
1.228 

> <ROCS_ColorScore>
-2.999

> <ROCS_Overlap>
155.685

> <ROCS_Rank>
9                   

$$$$
untitled-dbase-6861_0
  -OEChem-06232314393D

 12 12  0     0  0  0  0  0  0999 V2000
   -5.9534    6.1146  -36.8263 C   0  0  0  0  0  0  0  0  0  0  0  0
   -6.4203    3.7825  -36.8336 C   0  0  0  0  0  0  0  0  0  0  0  0
   -6.8568    4.9957  -34.9320 C   0  0  0  0  0  0  0  0  0  0  0  0
   -5.9547    4.9013  -37.5054 C   0  0  0  0  0  0  0  0  0  0  0  0
   -6.4114    6.1713  -35.5147 C   0  0  0  0  0  0  0  0  0  0  0  0
   -6.8731    3.7985  -35.5598 N   0  0  0  0  0  0  0  0  0  0  0  0
   -5.5151    4.8161  -38.7853 O   0  0  0  0  0  0  0  0  0  0  0  0
   -6.4244    7.6498  -34.6455 Cl  0  0  0  0  0  0  0  0  0  0  0  0
   -5.5940    7.0114  -37.3250 H   0  0  0  0  0  0  0  0  0  0  0  0
   -6.4445    2.8097  -37.3144 H   0  0  0  0  0  0  0  0  0  0  0  0
   -7.2274    4.9741  -33.9116 H   0  0  0  0  0  0  0  0  0  0  0  0
   -5.2259    5.6873  -39.1057 H   0  0  0  0  0  0  0  0  0  0  0  0
  1  4  1  0  0  0  0
  1  5  2  0  0  0  0
  2  4  2  0  0  0  0
  2  6  1  0  0  0  0
  3  5  1  0  0  0  0
  3  6  2  0  0  0  0
  4  7  1  0  0  0  0
  5  8  1  0  0  0  0
  1  9  1  0  0  0  0
  2 10  1  0  0  0  0
  3 11  1  0  0  0  0
  7 12  1  0  0  0  0
M  END
> <id>
EN300-82117

> <smiles>
OC=1C=NC=C(Cl)C1

> <MDLNUMBER>
MFCD00006379

> <IUPAC Name>
5-chloropyridin-3-ol

> <CAS>
74115-12-1

> <Purity>
95

> <URL>
https://www.enaminestore.com/catalog/EN300-82117

> <MP>
160-162

> <ROCS_ShapeQuery>
_hit0

> <ROCS_TanimotoCombo>
1.135 

> <ROCS_ShapeTanimoto>
0.535 

> <ROCS_ColorTanimoto>
0.600 

> <ROCS_RefTversky>
1.299 

> <ROCS_RefColorTversky>
0.750 

> <ROCS_RefTverskyCombo>
2.049 

> <ROCS_FitTversky>
0.476 

> <ROCS_FitColorTversky>
0.750 

> <ROCS_FitTverskyCombo>
1.226 

> <ROCS_ColorScore>
-2.999

> <ROCS_Overlap>
155.836

> <ROCS_Rank>
10                  

$$$$
untitled-dbase-37617_0
  -OEChem-06232314393D

 16 16  0     0  0  0  0  0  0999 V2000
   -5.9522    6.1115  -36.7833 C   0  0  0  0  0  0  0  0  0  0  0  0
   -6.8584    4.9828  -34.8962 C   0  0  0  0  0  0  0  0  0  0  0  0
   -6.4275    3.7813  -36.8064 C   0  0  0  0  0  0  0  0  0  0  0  0
   -6.4092    6.1607  -35.4711 C   0  0  0  0  0  0  0  0  0  0  0  0
   -5.9583    4.9030  -37.4709 C   0  0  0  0  0  0  0  0  0  0  0  0
   -6.4164    7.4378  -34.7091 C   0  0  0  0  0  0  0  0  0  0  0  0
   -6.8794    3.7901  -35.5323 N   0  0  0  0  0  0  0  0  0  0  0  0
   -5.5021    4.8230  -38.7968 N   0  0  0  0  0  0  0  0  0  0  0  0
   -5.5913    7.0157  -37.2682 H   0  0  0  0  0  0  0  0  0  0  0  0
   -7.2263    4.9596  -33.8751 H   0  0  0  0  0  0  0  0  0  0  0  0
   -6.4561    2.8097  -37.2906 H   0  0  0  0  0  0  0  0  0  0  0  0
   -7.3691    7.9660  -34.8497 H   0  0  0  0  0  0  0  0  0  0  0  0
   -6.2737    7.2655  -33.6329 H   0  0  0  0  0  0  0  0  0  0  0  0
   -5.6028    8.1034  -35.0311 H   0  0  0  0  0  0  0  0  0  0  0  0
   -5.2113    5.6579  -39.2701 H   0  0  0  0  0  0  0  0  0  0  0  0
   -5.5604    3.9500  -39.2870 H   0  0  0  0  0  0  0  0  0  0  0  0
  1  4  1  0  0  0  0
  1  5  2  0  0  0  0
  2  4  2  0  0  0  0
  2  7  1  0  0  0  0
  3  5  1  0  0  0  0
  3  7  2  0  0  0  0
  4  6  1  0  0  0  0
  5  8  1  0  0  0  0
  1  9  1  0  0  0  0
  2 10  1  0  0  0  0
  3 11  1  0  0  0  0
  6 12  1  0  0  0  0
  6 13  1  0  0  0  0
  6 14  1  0  0  0  0
  8 15  1  0  0  0  0
  8 16  1  0  0  0  0
M  END
> <id>
EN300-87442

> <smiles>
CC=1C=NC=C(N)C1

> <MDLNUMBER>
MFCD04112508

> <IUPAC Name>
5-methylpyridin-3-amine

> <CAS>
3430-19-1

> <Purity>
95

> <URL>
https://www.enaminestore.com/catalog/EN300-87442

> <MP>
59-63

> <ROCS_ShapeQuery>
_hit0

> <ROCS_TanimotoCombo>
1.133 

> <ROCS_ShapeTanimoto>
0.533 

> <ROCS_ColorTanimoto>
0.600 

> <ROCS_RefTversky>
1.307 

> <ROCS_RefColorTversky>
0.750 

> <ROCS_RefTverskyCombo>
2.057 

> <ROCS_FitTversky>
0.474 

> <ROCS_FitColorTversky>
0.750 

> <ROCS_FitTverskyCombo>
1.223 

> <ROCS_ColorScore>
-2.999

> <ROCS_Overlap>
157.093

> <ROCS_Rank>
11                  

$$$$
untitled-dbase-51966_0
  -OEChem-06232314393D

 11 11  0     1  0  0  0  0  0999 V2000
   -6.3605    4.5418  -36.4705 C   0  0  0  0  0  0  0  0  0  0  0  0
   -4.8066    6.4791  -37.0066 C   0  0  0  0  0  0  0  0  0  0  0  0
   -5.7950    5.4207  -37.4430 C   0  0  2  0  0  0  0  0  0  0  0  0
   -6.1699    6.8572  -37.4607 C   0  0  0  0  0  0  0  0  0  0  0  0
   -6.8201    3.8275  -35.6801 N   0  0  0  0  0  0  0  0  0  0  0  0
   -5.5485    4.7917  -38.7100 O   0  0  0  0  0  0  0  0  0  0  0  0
   -6.3422    7.5288  -38.6506 F   0  0  0  0  0  0  0  0  0  0  0  0
   -7.0787    7.3751  -36.5645 F   0  0  0  0  0  0  0  0  0  0  0  0
   -4.5812    6.5815  -35.9519 H   0  0  0  0  0  0  0  0  0  0  0  0
   -3.9751    6.7057  -37.6628 H   0  0  0  0  0  0  0  0  0  0  0  0
   -6.4080    4.4788  -39.0228 H   0  0  0  0  0  0  0  0  0  0  0  0
  1  3  1  0  0  0  0
  1  5  3  0  0  0  0
  2  3  1  0  0  0  0
  2  4  1  0  0  0  0
  3  4  1  0  0  0  0
  3  6  1  0  0  0  0
  4  7  1  0  0  0  0
  4  8  1  0  0  0  0
  2  9  1  0  0  0  0
  2 10  1  0  0  0  0
  6 11  1  0  0  0  0
M  END
> <id>
EN300-37460319

> <smiles>
OC1(CC1(F)F)C#N

> <IUPAC Name>
2,2-difluoro-1-hydroxycyclopropane-1-carbonitrile

> <Purity>
95

> <URL>
https://www.enaminestore.com/catalog/EN300-37460319

> <ROCS_ShapeQuery>
_hit0

> <ROCS_TanimotoCombo>
1.131 

> <ROCS_ShapeTanimoto>
0.400 

> <ROCS_ColorTanimoto>
0.731 

> <ROCS_RefTversky>
1.066 

> <ROCS_RefColorTversky>
0.748 

> <ROCS_RefTverskyCombo>
1.814 

> <ROCS_FitTversky>
0.391 

> <ROCS_FitColorTversky>
0.969 

> <ROCS_FitTverskyCombo>
1.360 

> <ROCS_ColorScore>
-2.956

> <ROCS_Overlap>
127.855

> <ROCS_Rank>
12                  

$$$$
untitled-dbase-5040_0
  -OEChem-06232314393D

 13 13  0     0  0  0  0  0  0999 V2000
   -5.9495    6.1176  -36.7884 C   0  0  0  0  0  0  0  0  0  0  0  0
   -6.4343    3.7892  -36.8035 C   0  0  0  0  0  0  0  0  0  0  0  0
   -6.8587    4.9987  -34.8969 C   0  0  0  0  0  0  0  0  0  0  0  0
   -5.9610    4.9068  -37.4719 C   0  0  0  0  0  0  0  0  0  0  0  0
   -6.4051    6.1729  -35.4759 C   0  0  0  0  0  0  0  0  0  0  0  0
   -6.8850    3.8040  -35.5291 N   0  0  0  0  0  0  0  0  0  0  0  0
   -5.5073    4.8202  -38.7981 N   0  0  0  0  0  0  0  0  0  0  0  0
   -6.4054    7.3239  -34.7942 F   0  0  0  0  0  0  0  0  0  0  0  0
   -5.5877    7.0228  -37.2685 H   0  0  0  0  0  0  0  0  0  0  0  0
   -6.4679    2.8163  -37.2847 H   0  0  0  0  0  0  0  0  0  0  0  0
   -7.2248    4.9889  -33.8757 H   0  0  0  0  0  0  0  0  0  0  0  0
   -5.4814    3.9272  -39.2540 H   0  0  0  0  0  0  0  0  0  0  0  0
   -5.1260    5.6338  -39.2436 H   0  0  0  0  0  0  0  0  0  0  0  0
  1  4  1  0  0  0  0
  1  5  2  0  0  0  0
  2  4  2  0  0  0  0
  2  6  1  0  0  0  0
  3  5  1  0  0  0  0
  3  6  2  0  0  0  0
  4  7  1  0  0  0  0
  5  8  1  0  0  0  0
  1  9  1  0  0  0  0
  2 10  1  0  0  0  0
  3 11  1  0  0  0  0
  7 12  1  0  0  0  0
  7 13  1  0  0  0  0
M  END
> <id>
EN300-198024

> <smiles>
Cl.NC=1C=NC=C(F)C1

> <MDLNUMBER>
MFCD18384204

> <IUPAC Name>
5-fluoropyridin-3-amine hydrochloride

> <CAS>
896161-34-5

> <URL>
https://www.enaminestore.com/catalog/EN300-198024

> <Saltdate>
Cl

> <ROCS_ShapeQuery>
_hit0

> <ROCS_TanimotoCombo>
1.127 

> <ROCS_ShapeTanimoto>
0.527 

> <ROCS_ColorTanimoto>
0.600 

> <ROCS_RefTversky>
1.309 

> <ROCS_RefColorTversky>
0.750 

> <ROCS_RefTverskyCombo>
2.059 

> <ROCS_FitTversky>
0.469 

> <ROCS_FitColorTversky>
0.750 

> <ROCS_FitTverskyCombo>
1.219 

> <ROCS_ColorScore>
-3.000

> <ROCS_Overlap>
157.692

> <ROCS_Rank>
13                  

$$$$
untitled-dbase-37558_0
  -OEChem-06232314393D

 13 13  0     0  0  0  0  0  0999 V2000
   -5.9495    6.1176  -36.7884 C   0  0  0  0  0  0  0  0  0  0  0  0
   -6.4343    3.7892  -36.8035 C   0  0  0  0  0  0  0  0  0  0  0  0
   -6.8587    4.9987  -34.8969 C   0  0  0  0  0  0  0  0  0  0  0  0
   -5.9610    4.9068  -37.4719 C   0  0  0  0  0  0  0  0  0  0  0  0
   -6.4051    6.1729  -35.4759 C   0  0  0  0  0  0  0  0  0  0  0  0
   -6.8850    3.8040  -35.5291 N   0  0  0  0  0  0  0  0  0  0  0  0
   -5.5073    4.8202  -38.7981 N   0  0  0  0  0  0  0  0  0  0  0  0
   -6.4054    7.3239  -34.7942 F   0  0  0  0  0  0  0  0  0  0  0  0
   -5.5877    7.0228  -37.2685 H   0  0  0  0  0  0  0  0  0  0  0  0
   -6.4679    2.8163  -37.2847 H   0  0  0  0  0  0  0  0  0  0  0  0
   -7.2248    4.9889  -33.8757 H   0  0  0  0  0  0  0  0  0  0  0  0
   -5.4814    3.9272  -39.2540 H   0  0  0  0  0  0  0  0  0  0  0  0
   -5.1260    5.6338  -39.2436 H   0  0  0  0  0  0  0  0  0  0  0  0
  1  4  1  0  0  0  0
  1  5  2  0  0  0  0
  2  4  2  0  0  0  0
  2  6  1  0  0  0  0
  3  5  1  0  0  0  0
  3  6  2  0  0  0  0
  4  7  1  0  0  0  0
  5  8  1  0  0  0  0
  1  9  1  0  0  0  0
  2 10  1  0  0  0  0
  3 11  1  0  0  0  0
  7 12  1  0  0  0  0
  7 13  1  0  0  0  0
M  END
> <id>
EN300-114098

> <smiles>
NC=1C=NC=C(F)C1

> <MDLNUMBER>
MFCD00234073

> <IUPAC Name>
5-fluoropyridin-3-amine

> <CAS>
210169-05-4

> <Purity>
95

> <URL>
https://www.enaminestore.com/catalog/EN300-114098

> <MP>
86-87

> <ROCS_ShapeQuery>
_hit0

> <ROCS_TanimotoCombo>
1.127 

> <ROCS_ShapeTanimoto>
0.527 

> <ROCS_ColorTanimoto>
0.600 

> <ROCS_RefTversky>
1.309 

> <ROCS_RefColorTversky>
0.750 

> <ROCS_RefTverskyCombo>
2.059 

> <ROCS_FitTversky>
0.469 

> <ROCS_FitColorTversky>
0.750 

> <ROCS_FitTverskyCombo>
1.219 

> <ROCS_ColorScore>
-3.000

> <ROCS_Overlap>
157.692

> <ROCS_Rank>
14                  

$$$$
untitled-dbase-7255_0
  -OEChem-06232314393D

 12 12  0     0  0  0  0  0  0999 V2000
   -5.9318    6.1124  -36.8173 C   0  0  0  0  0  0  0  0  0  0  0  0
   -6.4217    3.7851  -36.8314 C   0  0  0  0  0  0  0  0  0  0  0  0
   -6.8369    4.9950  -34.9230 C   0  0  0  0  0  0  0  0  0  0  0  0
   -5.9484    4.9018  -37.5012 C   0  0  0  0  0  0  0  0  0  0  0  0
   -6.3827    6.1684  -35.5032 C   0  0  0  0  0  0  0  0  0  0  0  0
   -6.8680    3.8005  -35.5554 N   0  0  0  0  0  0  0  0  0  0  0  0
   -5.5149    4.8176  -38.7834 O   0  0  0  0  0  0  0  0  0  0  0  0
   -6.3782    7.3193  -34.8215 F   0  0  0  0  0  0  0  0  0  0  0  0
   -5.5695    7.0139  -37.3029 H   0  0  0  0  0  0  0  0  0  0  0  0
   -6.4567    2.8144  -37.3161 H   0  0  0  0  0  0  0  0  0  0  0  0
   -7.1981    4.9857  -33.9000 H   0  0  0  0  0  0  0  0  0  0  0  0
   -5.2181    5.6872  -39.1012 H   0  0  0  0  0  0  0  0  0  0  0  0
  1  4  1  0  0  0  0
  1  5  2  0  0  0  0
  2  4  2  0  0  0  0
  2  6  1  0  0  0  0
  3  5  1  0  0  0  0
  3  6  2  0  0  0  0
  4  7  1  0  0  0  0
  5  8  1  0  0  0  0
  1  9  1  0  0  0  0
  2 10  1  0  0  0  0
  3 11  1  0  0  0  0
  7 12  1  0  0  0  0
M  END
> <id>
EN300-102031

> <smiles>
OC=1C=NC=C(F)C1

> <MDLNUMBER>
MFCD03095199

> <IUPAC Name>
5-fluoropyridin-3-ol

> <CAS>
209328-55-2

> <Purity>
95

> <URL>
https://www.enaminestore.com/catalog/EN300-102031

> <MP>
167-168

> <ROCS_ShapeQuery>
_hit0

> <ROCS_TanimotoCombo>
1.125 

> <ROCS_ShapeTanimoto>
0.525 

> <ROCS_ColorTanimoto>
0.600 

> <ROCS_RefTversky>
1.309 

> <ROCS_RefColorTversky>
0.750 

> <ROCS_RefTverskyCombo>
2.059 

> <ROCS_FitTversky>
0.467 

> <ROCS_FitColorTversky>
0.750 

> <ROCS_FitTverskyCombo>
1.217 

> <ROCS_ColorScore>
-2.999

> <ROCS_Overlap>
157.832

> <ROCS_Rank>
15                  

$$$$
untitled-dbase-30649_0
  -OEChem-06232314393D

 11 10  0     0  0  0  0  0  0999 V2000
   -5.8069    5.4642  -36.5552 C   0  0  0  0  0  0  0  0  0  0  0  0
   -6.2890    6.2727  -35.8091 C   0  0  0  0  0  0  0  0  0  0  0  0
   -5.2194    4.4798  -37.4630 C   0  0  0  0  0  0  0  0  0  0  0  0
   -6.8736    7.2521  -34.8969 C   0  0  0  0  0  0  0  0  0  0  0  0
   -5.5305    4.8216  -38.8062 O   0  0  0  0  0  0  0  0  0  0  0  0
   -7.5530    8.5889  -35.8452 Cl  0  0  0  0  0  0  0  0  0  0  0  0
   -5.6152    3.4802  -37.2588 H   0  0  0  0  0  0  0  0  0  0  0  0
   -4.1309    4.4543  -37.3547 H   0  0  0  0  0  0  0  0  0  0  0  0
   -6.1224    7.6652  -34.2184 H   0  0  0  0  0  0  0  0  0  0  0  0
   -7.6801    6.8138  -34.3028 H   0  0  0  0  0  0  0  0  0  0  0  0
   -5.1547    5.7026  -38.9661 H   0  0  0  0  0  0  0  0  0  0  0  0
  1  2  3  0  0  0  0
  1  3  1  0  0  0  0
  2  4  1  0  0  0  0
  3  5  1  0  0  0  0
  4  6  1  0  0  0  0
  3  7  1  0  0  0  0
  3  8  1  0  0  0  0
  4  9  1  0  0  0  0
  4 10  1  0  0  0  0
  5 11  1  0  0  0  0
M  END
> <id>
EN300-83765

> <smiles>
OCC#CCCl

> <MDLNUMBER>
MFCD01656722

> <IUPAC Name>
4-chlorobut-2-yn-1-ol

> <CAS>
13280-07-4

> <Purity>
95

> <URL>
https://www.enaminestore.com/catalog/EN300-83765

> <ROCS_ShapeQuery>
_hit0

> <ROCS_TanimotoCombo>
1.123 

> <ROCS_ShapeTanimoto>
0.623 

> <ROCS_ColorTanimoto>
0.500 

> <ROCS_RefTversky>
1.084 

> <ROCS_RefColorTversky>
0.513 

> <ROCS_RefTverskyCombo>
1.597 

> <ROCS_FitTversky>
0.594 

> <ROCS_FitColorTversky>
0.952 

> <ROCS_FitTverskyCombo>
1.546 

> <ROCS_ColorScore>
-1.999

> <ROCS_Overlap>
123.205

> <ROCS_Rank>
16                  

$$$$
untitled-dbase-48848_39
  -OEChem-06232314393D

 24 24  0     1  0  0  0  0  0999 V2000
   -6.6701    4.5523  -36.6057 C   0  0  0  0  0  0  0  0  0  0  0  0
   -7.7252    5.5588  -37.0135 C   0  0  0  0  0  0  0  0  0  0  0  0
   -7.9343    6.6230  -35.9472 C   0  0  0  0  0  0  0  0  0  0  0  0
   -6.9397    7.7824  -36.0151 C   0  0  0  0  0  0  0  0  0  0  0  0
   -5.4967    7.4267  -35.6519 C   0  0  0  0  0  0  0  0  0  0  0  0
   -4.6415    6.9272  -36.8238 C   0  0  0  0  0  0  0  0  0  0  0  0
   -4.3127    5.4305  -36.7728 C   0  0  0  0  0  0  0  0  0  0  0  0
   -5.3648    4.5070  -37.3792 C   0  0  2  0  0  0  0  0  0  0  0  0
   -6.8437    3.8163  -35.6314 O   0  0  0  0  0  0  0  0  0  0  0  0
   -5.5450    4.8037  -38.7492 O   0  0  0  0  0  0  0  0  0  0  0  0
   -7.3729    6.0296  -37.9403 H   0  0  0  0  0  0  0  0  0  0  0  0
   -8.6616    5.0555  -37.2731 H   0  0  0  0  0  0  0  0  0  0  0  0
   -8.9529    7.0155  -36.0043 H   0  0  0  0  0  0  0  0  0  0  0  0
   -7.8319    6.1464  -34.9686 H   0  0  0  0  0  0  0  0  0  0  0  0
   -6.9395    8.1361  -37.0592 H   0  0  0  0  0  0  0  0  0  0  0  0
   -7.3021    8.6364  -35.4223 H   0  0  0  0  0  0  0  0  0  0  0  0
   -4.9982    8.2571  -35.1430 H   0  0  0  0  0  0  0  0  0  0  0  0
   -5.5226    6.6131  -34.9161 H   0  0  0  0  0  0  0  0  0  0  0  0
   -5.1511    7.1599  -37.7507 H   0  0  0  0  0  0  0  0  0  0  0  0
   -3.7039    7.4728  -36.8189 H   0  0  0  0  0  0  0  0  0  0  0  0
   -3.3840    5.2967  -37.3393 H   0  0  0  0  0  0  0  0  0  0  0  0
   -4.0825    5.1389  -35.7463 H   0  0  0  0  0  0  0  0  0  0  0  0
   -4.9880    3.4705  -37.2991 H   0  0  0  0  0  0  0  0  0  0  0  0
   -6.1551    4.1365  -39.1051 H   0  0  0  0  0  0  0  0  0  0  0  0
  1  2  1  0  0  0  0
  1  8  1  0  0  0  0
  1  9  2  0  0  0  0
  2  3  1  0  0  0  0
  3  4  1  0  0  0  0
  4  5  1  0  0  0  0
  5  6  1  0  0  0  0
  6  7  1  0  0  0  0
  7  8  1  0  0  0  0
  8 10  1  0  0  0  0
  2 11  1  0  0  0  0
  2 12  1  0  0  0  0
  3 13  1  0  0  0  0
  3 14  1  0  0  0  0
  4 15  1  0  0  0  0
  4 16  1  0  0  0  0
  5 17  1  0  0  0  0
  5 18  1  0  0  0  0
  6 19  1  0  0  0  0
  6 20  1  0  0  0  0
  7 21  1  0  0  0  0
  7 22  1  0  0  0  0
  8 23  1  0  0  0  0
 10 24  1  0  0  0  0
M  END
> <id>
EN300-1085204

> <smiles>
OC1CCCCCCC1=O

> <MDLNUMBER>
MFCD18382009

> <IUPAC Name>
2-hydroxycyclooctan-1-one

> <CAS>
496-82-2

> <URL>
https://www.enaminestore.com/catalog/EN300-1085204

> <ROCS_ShapeQuery>
_hit0

> <ROCS_TanimotoCombo>
1.117 

> <ROCS_ShapeTanimoto>
0.375 

> <ROCS_ColorTanimoto>
0.742 

> <ROCS_RefTversky>
1.136 

> <ROCS_RefColorTversky>
0.755 

> <ROCS_RefTverskyCombo>
1.891 

> <ROCS_FitTversky>
0.359 

> <ROCS_FitColorTversky>
0.977 

> <ROCS_FitTverskyCombo>
1.337 

> <ROCS_ColorScore>
-2.982

> <ROCS_Overlap>
140.037

> <ROCS_Rank>
17                  

$$$$
untitled-dbase-12346_0
  -OEChem-06232314393D

 10 10  0     0  0  0  0  0  0999 V2000
   -6.4867    3.6741  -36.8295 C   0  0  0  0  0  0  0  0  0  0  0  0
   -5.9424    5.8995  -36.6658 C   0  0  0  0  0  0  0  0  0  0  0  0
   -5.9518    4.8074  -37.5061 C   0  0  0  0  0  0  0  0  0  0  0  0
   -6.8688    3.8433  -35.5659 N   0  0  0  0  0  0  0  0  0  0  0  0
   -5.5154    4.8133  -38.7846 N   0  0  0  0  0  0  0  0  0  0  0  0
   -6.5833    5.4267  -35.1494 S   0  0  0  0  0  0  0  0  0  0  0  0
   -6.6103    2.6845  -37.2500 H   0  0  0  0  0  0  0  0  0  0  0  0
   -5.6057    6.9091  -36.8575 H   0  0  0  0  0  0  0  0  0  0  0  0
   -5.1800    5.6720  -39.2445 H   0  0  0  0  0  0  0  0  0  0  0  0
   -5.5849    3.9827  -39.3902 H   0  0  0  0  0  0  0  0  0  0  0  0
  1  3  1  0  0  0  0
  1  4  2  0  0  0  0
  2  3  2  0  0  0  0
  2  6  1  0  0  0  0
  3  5  1  0  0  0  0
  4  6  1  0  0  0  0
  1  7  1  0  0  0  0
  2  8  1  0  0  0  0
  5  9  1  0  0  0  0
  5 10  1  0  0  0  0
M  END
> <id>
EN300-267608

> <smiles>
Cl.Cl.NC=1C=NSC1

> <MDLNUMBER>
MFCD29991552

> <IUPAC Name>
1,2-thiazol-4-amine dihydrochloride

> <CAS>
1955519-82-0

> <Purity>
95

> <URL>
https://www.enaminestore.com/catalog/EN300-267608

> <Saltdate>
Cl

> <ROCS_ShapeQuery>
_hit0

> <ROCS_TanimotoCombo>
1.116 

> <ROCS_ShapeTanimoto>
0.517 

> <ROCS_ColorTanimoto>
0.599 

> <ROCS_RefTversky>
1.036 

> <ROCS_RefColorTversky>
0.749 

> <ROCS_RefTverskyCombo>
1.786 

> <ROCS_FitTversky>
0.507 

> <ROCS_FitColorTversky>
0.749 

> <ROCS_FitTverskyCombo>
1.257 

> <ROCS_ColorScore>
-2.997

> <ROCS_Overlap>
119.298

> <ROCS_Rank>
18                  

$$$$
untitled-dbase-8307_0
  -OEChem-06232314393D

 10 10  0     0  0  0  0  0  0999 V2000
   -6.4867    3.6741  -36.8295 C   0  0  0  0  0  0  0  0  0  0  0  0
   -5.9424    5.8995  -36.6658 C   0  0  0  0  0  0  0  0  0  0  0  0
   -5.9518    4.8074  -37.5061 C   0  0  0  0  0  0  0  0  0  0  0  0
   -6.8688    3.8433  -35.5659 N   0  0  0  0  0  0  0  0  0  0  0  0
   -5.5154    4.8133  -38.7846 N   0  0  0  0  0  0  0  0  0  0  0  0
   -6.5833    5.4267  -35.1494 S   0  0  0  0  0  0  0  0  0  0  0  0
   -6.6103    2.6845  -37.2500 H   0  0  0  0  0  0  0  0  0  0  0  0
   -5.6057    6.9091  -36.8575 H   0  0  0  0  0  0  0  0  0  0  0  0
   -5.1800    5.6720  -39.2445 H   0  0  0  0  0  0  0  0  0  0  0  0
   -5.5849    3.9827  -39.3902 H   0  0  0  0  0  0  0  0  0  0  0  0
  1  3  1  0  0  0  0
  1  4  2  0  0  0  0
  2  3  2  0  0  0  0
  2  6  1  0  0  0  0
  3  5  1  0  0  0  0
  4  6  1  0  0  0  0
  1  7  1  0  0  0  0
  2  8  1  0  0  0  0
  5  9  1  0  0  0  0
  5 10  1  0  0  0  0
M  END
> <id>
EN300-106877

> <smiles>
NC=1C=NSC1

> <MDLNUMBER>
MFCD02598860

> <IUPAC Name>
1,2-thiazol-4-amine

> <CAS>
64527-28-2

> <Purity>
95

> <URL>
https://www.enaminestore.com/catalog/EN300-106877

> <MP>
41-45

> <ROCS_ShapeQuery>
_hit0

> <ROCS_TanimotoCombo>
1.116 

> <ROCS_ShapeTanimoto>
0.517 

> <ROCS_ColorTanimoto>
0.599 

> <ROCS_RefTversky>
1.036 

> <ROCS_RefColorTversky>
0.749 

> <ROCS_RefTverskyCombo>
1.786 

> <ROCS_FitTversky>
0.507 

> <ROCS_FitColorTversky>
0.749 

> <ROCS_FitTverskyCombo>
1.257 

> <ROCS_ColorScore>
-2.997

> <ROCS_Overlap>
119.298

> <ROCS_Rank>
19                  

$$$$
untitled-dbase-26548_0
  -OEChem-06232314393D

 10 10  0     0  0  0  0  0  0999 V2000
   -6.4867    3.6741  -36.8295 C   0  0  0  0  0  0  0  0  0  0  0  0
   -5.9424    5.8995  -36.6658 C   0  0  0  0  0  0  0  0  0  0  0  0
   -5.9518    4.8074  -37.5061 C   0  0  0  0  0  0  0  0  0  0  0  0
   -6.8688    3.8433  -35.5659 N   0  0  0  0  0  0  0  0  0  0  0  0
   -5.5154    4.8133  -38.7846 N   0  0  0  0  0  0  0  0  0  0  0  0
   -6.5833    5.4267  -35.1494 S   0  0  0  0  0  0  0  0  0  0  0  0
   -6.6103    2.6845  -37.2500 H   0  0  0  0  0  0  0  0  0  0  0  0
   -5.6057    6.9091  -36.8575 H   0  0  0  0  0  0  0  0  0  0  0  0
   -5.1800    5.6720  -39.2445 H   0  0  0  0  0  0  0  0  0  0  0  0
   -5.5849    3.9827  -39.3902 H   0  0  0  0  0  0  0  0  0  0  0  0
  1  3  1  0  0  0  0
  1  4  2  0  0  0  0
  2  3  2  0  0  0  0
  2  6  1  0  0  0  0
  3  5  1  0  0  0  0
  4  6  1  0  0  0  0
  1  7  1  0  0  0  0
  2  8  1  0  0  0  0
  5  9  1  0  0  0  0
  5 10  1  0  0  0  0
M  END
> <id>
EN300-267377

> <smiles>
Cl.NC=1C=NSC1

> <MDLNUMBER>
MFCD18914401

> <IUPAC Name>
1,2-thiazol-4-amine hydrochloride

> <CAS>
64527-29-3

> <Purity>
95

> <URL>
https://www.enaminestore.com/catalog/EN300-267377

> <Saltdate>
Cl

> <ROCS_ShapeQuery>
_hit0

> <ROCS_TanimotoCombo>
1.116 

> <ROCS_ShapeTanimoto>
0.517 

> <ROCS_ColorTanimoto>
0.599 

> <ROCS_RefTversky>
1.036 

> <ROCS_RefColorTversky>
0.749 

> <ROCS_RefTverskyCombo>
1.786 

> <ROCS_FitTversky>
0.507 

> <ROCS_FitColorTversky>
0.749 

> <ROCS_FitTverskyCombo>
1.257 

> <ROCS_ColorScore>
-2.997

> <ROCS_Overlap>
119.298

> <ROCS_Rank>
20                  

$$$$
untitled-dbase-27101_0
  -OEChem-06232314393D

  9  9  0     0  0  0  0  0  0999 V2000
   -6.4798    3.6660  -36.8236 C   0  0  0  0  0  0  0  0  0  0  0  0
   -5.9547    5.8982  -36.6917 C   0  0  0  0  0  0  0  0  0  0  0  0
   -5.9555    4.7944  -37.5167 C   0  0  0  0  0  0  0  0  0  0  0  0
   -6.8621    3.8496  -35.5621 N   0  0  0  0  0  0  0  0  0  0  0  0
   -5.5177    4.8177  -38.7852 O   0  0  0  0  0  0  0  0  0  0  0  0
   -6.5899    5.4410  -35.1682 S   0  0  0  0  0  0  0  0  0  0  0  0
   -6.5945    2.6715  -37.2334 H   0  0  0  0  0  0  0  0  0  0  0  0
   -5.6263    6.9066  -36.9003 H   0  0  0  0  0  0  0  0  0  0  0  0
   -5.5991    3.9392  -39.2054 H   0  0  0  0  0  0  0  0  0  0  0  0
  1  3  1  0  0  0  0
  1  4  2  0  0  0  0
  2  3  2  0  0  0  0
  2  6  1  0  0  0  0
  3  5  1  0  0  0  0
  4  6  1  0  0  0  0
  1  7  1  0  0  0  0
  2  8  1  0  0  0  0
  5  9  1  0  0  0  0
M  END
> <id>
EN300-4757401

> <smiles>
OC=1C=NSC1

> <MDLNUMBER>
MFCD31719942

> <IUPAC Name>
1,2-thiazol-4-ol

> <CAS>
1202353-17-0

> <URL>
https://www.enaminestore.com/catalog/EN300-4757401

> <ROCS_ShapeQuery>
_hit0

> <ROCS_TanimotoCombo>
1.115 

> <ROCS_ShapeTanimoto>
0.516 

> <ROCS_ColorTanimoto>
0.599 

> <ROCS_RefTversky>
1.036 

> <ROCS_RefColorTversky>
0.749 

> <ROCS_RefTverskyCombo>
1.785 

> <ROCS_FitTversky>
0.507 

> <ROCS_FitColorTversky>
0.749 

> <ROCS_FitTverskyCombo>
1.256 

> <ROCS_ColorScore>
-2.996

> <ROCS_Overlap>
119.313

> <ROCS_Rank>
21                  

$$$$
untitled-dbase-2368_1
  -OEChem-06232314393D

 17 17  0     1  0  0  0  0  0999 V2000
   -6.2039    6.1511  -35.3539 C   0  0  0  0  0  0  0  0  0  0  0  0
   -5.9093    6.1960  -36.8482 C   0  0  0  0  0  0  0  0  0  0  0  0
   -7.2613    5.0979  -35.0465 C   0  0  0  0  0  0  0  0  0  0  0  0
   -6.6987    3.8188  -36.9575 C   0  0  0  0  0  0  0  0  0  0  0  0
   -5.6078    4.7963  -37.3776 C   0  0  1  0  0  0  0  0  0  0  0  0
   -6.8638    3.8188  -35.5413 O   0  0  0  0  0  0  0  0  0  0  0  0
   -5.5193    4.8169  -38.7948 O   0  0  0  0  0  0  0  0  0  0  0  0
   -5.2788    5.8966  -34.8222 H   0  0  0  0  0  0  0  0  0  0  0  0
   -6.5305    7.1344  -34.9997 H   0  0  0  0  0  0  0  0  0  0  0  0
   -6.7678    6.6191  -37.3859 H   0  0  0  0  0  0  0  0  0  0  0  0
   -5.0674    6.8670  -37.0543 H   0  0  0  0  0  0  0  0  0  0  0  0
   -7.3950    5.0098  -33.9637 H   0  0  0  0  0  0  0  0  0  0  0  0
   -8.2318    5.3697  -35.4784 H   0  0  0  0  0  0  0  0  0  0  0  0
   -7.6547    4.0479  -37.4448 H   0  0  0  0  0  0  0  0  0  0  0  0
   -6.4309    2.8032  -37.2687 H   0  0  0  0  0  0  0  0  0  0  0  0
   -4.6441    4.4623  -36.9743 H   0  0  0  0  0  0  0  0  0  0  0  0
   -4.7997    5.4280  -39.0229 H   0  0  0  0  0  0  0  0  0  0  0  0
  1  2  1  0  0  0  0
  1  3  1  0  0  0  0
  2  5  1  0  0  0  0
  3  6  1  0  0  0  0
  4  5  1  0  0  0  0
  4  6  1  0  0  0  0
  5  7  1  0  0  0  0
  1  8  1  0  0  0  0
  1  9  1  0  0  0  0
  2 10  1  0  0  0  0
  2 11  1  0  0  0  0
  3 12  1  0  0  0  0
  3 13  1  0  0  0  0
  4 14  1  0  0  0  0
  4 15  1  0  0  0  0
  5 16  1  0  0  0  0
  7 17  1  0  0  0  0
M  END
> <id>
EN300-73478

> <smiles>
OC1CCCOC1

> <MDLNUMBER>
MFCD00219387

> <IUPAC Name>
oxan-3-ol

> <CAS>
19752-84-2

> <Purity>
95

> <URL>
https://www.enaminestore.com/catalog/EN300-73478

> <ROCS_ShapeQuery>
_hit0

> <ROCS_TanimotoCombo>
1.114 

> <ROCS_ShapeTanimoto>
0.514 

> <ROCS_ColorTanimoto>
0.600 

> <ROCS_RefTversky>
1.137 

> <ROCS_RefColorTversky>
0.750 

> <ROCS_RefTverskyCombo>
1.887 

> <ROCS_FitTversky>
0.484 

> <ROCS_FitColorTversky>
0.750 

> <ROCS_FitTverskyCombo>
1.234 

> <ROCS_ColorScore>
-2.999

> <ROCS_Overlap>
133.348

> <ROCS_Rank>
22                  

$$$$
untitled-dbase-52588_90
  -OEChem-06232314393D

 24 24  0     0  0  0  0  0  0999 V2000
   -6.3691    7.7403  -36.6836 C   0  0  0  0  0  0  0  0  0  0  0  0
   -6.8152    4.6583  -35.2744 C   0  0  0  0  0  0  0  0  0  0  0  0
   -6.5947    6.6245  -37.7121 C   0  0  0  0  0  0  0  0  0  0  0  0
   -6.2989    4.2784  -36.6594 C   0  0  0  0  0  0  0  0  0  0  0  0
   -7.1786    7.6187  -35.3916 C   0  0  0  0  0  0  0  0  0  0  0  0
   -5.9286    5.6478  -34.5201 C   0  0  0  0  0  0  0  0  0  0  0  0
   -5.7118    5.3874  -37.5368 C   0  0  0  0  0  0  0  0  0  0  0  0
   -6.5361    6.9479  -34.2649 N   0  0  0  0  0  0  0  0  0  0  0  0
   -5.5059    4.7945  -38.8274 O   0  0  0  0  0  0  0  0  0  0  0  0
   -5.3071    7.7278  -36.4121 H   0  0  0  0  0  0  0  0  0  0  0  0
   -6.5327    8.7137  -37.1532 H   0  0  0  0  0  0  0  0  0  0  0  0
   -7.7965    5.1129  -35.3918 H   0  0  0  0  0  0  0  0  0  0  0  0
   -6.9491    3.7580  -34.6794 H   0  0  0  0  0  0  0  0  0  0  0  0
   -7.6413    6.3308  -37.6575 H   0  0  0  0  0  0  0  0  0  0  0  0
   -6.4457    7.0226  -38.7129 H   0  0  0  0  0  0  0  0  0  0  0  0
   -5.5244    3.4922  -36.5052 H   0  0  0  0  0  0  0  0  0  0  0  0
   -7.0954    3.7320  -37.2148 H   0  0  0  0  0  0  0  0  0  0  0  0
   -7.4726    8.6256  -35.0597 H   0  0  0  0  0  0  0  0  0  0  0  0
   -8.1234    7.1003  -35.6161 H   0  0  0  0  0  0  0  0  0  0  0  0
   -5.5156    5.1780  -33.6004 H   0  0  0  0  0  0  0  0  0  0  0  0
   -5.0304    5.8309  -35.1454 H   0  0  0  0  0  0  0  0  0  0  0  0
   -4.6998    5.6588  -37.1979 H   0  0  0  0  0  0  0  0  0  0  0  0
   -5.9082    7.5793  -33.7452 H   0  0  0  0  0  0  0  0  0  0  0  0
   -5.0719    5.4722  -39.3617 H   0  0  0  0  0  0  0  0  0  0  0  0
  1  3  1  0  0  0  0
  1  5  1  0  0  0  0
  2  4  1  0  0  0  0
  2  6  1  0  0  0  0
  3  7  1  0  0  0  0
  4  7  1  0  0  0  0
  5  8  1  0  0  0  0
  6  8  1  0  0  0  0
  7  9  1  0  0  0  0
  1 10  1  0  0  0  0
  1 11  1  0  0  0  0
  2 12  1  0  0  0  0
  2 13  1  0  0  0  0
  3 14  1  0  0  0  0
  3 15  1  0  0  0  0
  4 16  1  0  0  0  0
  4 17  1  0  0  0  0
  5 18  1  0  0  0  0
  5 19  1  0  0  0  0
  6 20  1  0  0  0  0
  6 21  1  0  0  0  0
  7 22  1  0  0  0  0
  8 23  1  0  0  0  0
  9 24  1  0  0  0  0
M  END
> <id>
EN300-6976880

> <smiles>
OC1CCCNCCC1

> <MDLNUMBER>
MFCD32743817

> <IUPAC Name>
azocan-5-ol

> <CAS>
1389338-37-7

> <URL>
https://www.enaminestore.com/catalog/EN300-6976880

> <ROCS_ShapeQuery>
_hit0

> <ROCS_TanimotoCombo>
1.113 

> <ROCS_ShapeTanimoto>
0.516 

> <ROCS_ColorTanimoto>
0.597 

> <ROCS_RefTversky>
1.305 

> <ROCS_RefColorTversky>
0.748 

> <ROCS_RefTverskyCombo>
2.053 

> <ROCS_FitTversky>
0.460 

> <ROCS_FitColorTversky>
0.748 

> <ROCS_FitTverskyCombo>
1.208 

> <ROCS_ColorScore>
-2.991

> <ROCS_Overlap>
157.660

> <ROCS_Rank>
23                  

$$$$
untitled-dbase-2041_0
  -OEChem-06232314393D

 13 13  0     0  0  0  0  0  0999 V2000
   -6.2832    6.1713  -35.4541 C   0  0  0  0  0  0  0  0  0  0  0  0
   -5.8535    6.1109  -36.7750 C   0  0  0  0  0  0  0  0  0  0  0  0
   -6.7828    5.0129  -34.8810 C   0  0  0  0  0  0  0  0  0  0  0  0
   -6.4503    3.8090  -36.8093 C   0  0  0  0  0  0  0  0  0  0  0  0
   -5.9353    4.9110  -37.4728 C   0  0  0  0  0  0  0  0  0  0  0  0
   -6.8778    3.8291  -35.5269 N   0  0  0  0  0  0  0  0  0  0  0  0
   -5.5090    4.8195  -38.8077 N   0  0  0  0  0  0  0  0  0  0  0  0
   -6.2288    7.0957  -34.8907 H   0  0  0  0  0  0  0  0  0  0  0  0
   -5.4568    7.0038  -37.2509 H   0  0  0  0  0  0  0  0  0  0  0  0
   -7.1309    5.0072  -33.8534 H   0  0  0  0  0  0  0  0  0  0  0  0
   -6.5392    2.8450  -37.3014 H   0  0  0  0  0  0  0  0  0  0  0  0
   -5.1839    5.6424  -39.2799 H   0  0  0  0  0  0  0  0  0  0  0  0
   -5.6219    3.9553  -39.3039 H   0  0  0  0  0  0  0  0  0  0  0  0
  1  2  1  0  0  0  0
  1  3  2  0  0  0  0
  2  5  2  0  0  0  0
  3  6  1  0  0  0  0
  4  5  1  0  0  0  0
  4  6  2  0  0  0  0
  5  7  1  0  0  0  0
  1  8  1  0  0  0  0
  2  9  1  0  0  0  0
  3 10  1  0  0  0  0
  4 11  1  0  0  0  0
  7 12  1  0  0  0  0
  7 13  1  0  0  0  0
M  END
> <id>
EN300-21243

> <smiles>
NC=1C=CC=NC1

> <MDLNUMBER>
MFCD00006400

> <IUPAC Name>
pyridin-3-amine

> <CAS>
462-08-8

> <Purity>
95

> <URL>
https://www.enaminestore.com/catalog/EN300-21243

> <MP>
61-66

> <ROCS_ShapeQuery>
_hit0

> <ROCS_TanimotoCombo>
1.107 

> <ROCS_ShapeTanimoto>
0.508 

> <ROCS_ColorTanimoto>
0.600 

> <ROCS_RefTversky>
1.168 

> <ROCS_RefColorTversky>
0.750 

> <ROCS_RefTverskyCombo>
1.918 

> <ROCS_FitTversky>
0.473 

> <ROCS_FitColorTversky>
0.750 

> <ROCS_FitTverskyCombo>
1.223 

> <ROCS_ColorScore>
-2.999

> <ROCS_Overlap>
137.963

> <ROCS_Rank>
24                  

$$$$
untitled-dbase-27948_0
  -OEChem-06232314393D

 14 14  0     0  0  0  0  0  0999 V2000
   -5.9718    5.9797  -36.6021 C   0  0  0  0  0  0  0  0  0  0  0  0
   -6.9084    4.7093  -34.8229 C   0  0  0  0  0  0  0  0  0  0  0  0
   -5.9938    4.8347  -37.3907 C   0  0  0  0  0  0  0  0  0  0  0  0
   -6.4361    5.9242  -35.2927 C   0  0  0  0  0  0  0  0  0  0  0  0
   -6.4858    3.6685  -36.8270 C   0  0  0  0  0  0  0  0  0  0  0  0
   -6.9454    3.5760  -35.5590 N   0  0  0  0  0  0  0  0  0  0  0  0
   -5.5250    4.8893  -38.7159 N   0  0  0  0  0  0  0  0  0  0  0  0
   -6.4284    7.0253  -34.5011 O   0  0  0  0  0  0  0  0  0  0  0  0
   -6.5673    2.1850  -37.6963 Cl  0  0  0  0  0  0  0  0  0  0  0  0
   -5.5956    6.9180  -37.0026 H   0  0  0  0  0  0  0  0  0  0  0  0
   -7.2829    4.6077  -33.8093 H   0  0  0  0  0  0  0  0  0  0  0  0
   -5.4996    4.0507  -39.2632 H   0  0  0  0  0  0  0  0  0  0  0  0
   -5.1352    5.7438  -39.0643 H   0  0  0  0  0  0  0  0  0  0  0  0
   -6.0687    7.7894  -34.9827 H   0  0  0  0  0  0  0  0  0  0  0  0
  1  3  2  0  0  0  0
  1  4  1  0  0  0  0
  2  4  2  0  0  0  0
  2  6  1  0  0  0  0
  3  5  1  0  0  0  0
  3  7  1  0  0  0  0
  4  8  1  0  0  0  0
  5  6  2  0  0  0  0
  5  9  1  0  0  0  0
  1 10  1  0  0  0  0
  2 11  1  0  0  0  0
  7 12  1  0  0  0  0
  7 13  1  0  0  0  0
  8 14  1  0  0  0  0
M  END
> <id>
EN300-2991484

> <smiles>
NC=1C=C(O)C=NC1Cl

> <MDLNUMBER>
MFCD16606118

> <IUPAC Name>
5-amino-6-chloropyridin-3-ol

> <CAS>
1211537-54-0

> <URL>
https://www.enaminestore.com/catalog/EN300-2991484

> <ROCS_ShapeQuery>
_hit0

> <ROCS_TanimotoCombo>
1.106 

> <ROCS_ShapeTanimoto>
0.474 

> <ROCS_ColorTanimoto>
0.632 

> <ROCS_RefTversky>
1.296 

> <ROCS_RefColorTversky>
0.945 

> <ROCS_RefTverskyCombo>
2.241 

> <ROCS_FitTversky>
0.427 

> <ROCS_FitColorTversky>
0.657 

> <ROCS_FitTverskyCombo>
1.084 

> <ROCS_ColorScore>
-3.874

> <ROCS_Overlap>
158.511

> <ROCS_Rank>
25                  

$$$$
untitled-dbase-28204_0
  -OEChem-06232314393D

 14 14  0     0  0  0  0  0  0999 V2000
   -5.9718    5.9797  -36.6021 C   0  0  0  0  0  0  0  0  0  0  0  0
   -6.9084    4.7093  -34.8229 C   0  0  0  0  0  0  0  0  0  0  0  0
   -5.9938    4.8347  -37.3907 C   0  0  0  0  0  0  0  0  0  0  0  0
   -6.4361    5.9242  -35.2927 C   0  0  0  0  0  0  0  0  0  0  0  0
   -6.4858    3.6685  -36.8270 C   0  0  0  0  0  0  0  0  0  0  0  0
   -6.9454    3.5760  -35.5590 N   0  0  0  0  0  0  0  0  0  0  0  0
   -5.5250    4.8893  -38.7159 N   0  0  0  0  0  0  0  0  0  0  0  0
   -6.4284    7.0253  -34.5011 O   0  0  0  0  0  0  0  0  0  0  0  0
   -6.5673    2.1850  -37.6963 Cl  0  0  0  0  0  0  0  0  0  0  0  0
   -5.5956    6.9180  -37.0026 H   0  0  0  0  0  0  0  0  0  0  0  0
   -7.2829    4.6077  -33.8093 H   0  0  0  0  0  0  0  0  0  0  0  0
   -5.4996    4.0507  -39.2632 H   0  0  0  0  0  0  0  0  0  0  0  0
   -5.1352    5.7438  -39.0643 H   0  0  0  0  0  0  0  0  0  0  0  0
   -6.0687    7.7894  -34.9827 H   0  0  0  0  0  0  0  0  0  0  0  0
  1  3  2  0  0  0  0
  1  4  1  0  0  0  0
  2  4  2  0  0  0  0
  2  6  1  0  0  0  0
  3  5  1  0  0  0  0
  3  7  1  0  0  0  0
  4  8  1  0  0  0  0
  5  6  2  0  0  0  0
  5  9  1  0  0  0  0
  1 10  1  0  0  0  0
  2 11  1  0  0  0  0
  7 12  1  0  0  0  0
  7 13  1  0  0  0  0
  8 14  1  0  0  0  0
M  END
> <id>
EN300-7456298

> <smiles>
Cl.NC=1C=C(O)C=NC1Cl

> <MDLNUMBER>
MFCD32200022

> <IUPAC Name>
5-amino-6-chloropyridin-3-ol hydrochloride

> <CAS>
2377034-20-1

> <Purity>
95

> <URL>
https://www.enaminestore.com/catalog/EN300-7456298

> <Saltdate>
Cl

> <ROCS_ShapeQuery>
_hit0

> <ROCS_TanimotoCombo>
1.106 

> <ROCS_ShapeTanimoto>
0.474 

> <ROCS_ColorTanimoto>
0.632 

> <ROCS_RefTversky>
1.296 

> <ROCS_RefColorTversky>
0.945 

> <ROCS_RefTverskyCombo>
2.241 

> <ROCS_FitTversky>
0.427 

> <ROCS_FitColorTversky>
0.657 

> <ROCS_FitTverskyCombo>
1.084 

> <ROCS_ColorScore>
-3.874

> <ROCS_Overlap>
158.511

> <ROCS_Rank>
26                  

$$$$
untitled-dbase-47248_0
  -OEChem-06232314393D

 12 12  0     0  0  0  0  0  0999 V2000
   -6.2815    6.1695  -35.4854 C   0  0  0  0  0  0  0  0  0  0  0  0
   -5.8527    6.1092  -36.8067 C   0  0  0  0  0  0  0  0  0  0  0  0
   -6.7762    5.0099  -34.9105 C   0  0  0  0  0  0  0  0  0  0  0  0
   -6.4408    3.8050  -36.8376 C   0  0  0  0  0  0  0  0  0  0  0  0
   -5.9306    4.9082  -37.5029 C   0  0  0  0  0  0  0  0  0  0  0  0
   -6.8672    3.8250  -35.5549 N   0  0  0  0  0  0  0  0  0  0  0  0
   -5.5193    4.8200  -38.7918 O   0  0  0  0  0  0  0  0  0  0  0  0
   -6.2305    7.0952  -34.9238 H   0  0  0  0  0  0  0  0  0  0  0  0
   -5.4599    7.0001  -37.2883 H   0  0  0  0  0  0  0  0  0  0  0  0
   -7.1234    5.0056  -33.8824 H   0  0  0  0  0  0  0  0  0  0  0  0
   -6.5249    2.8425  -37.3324 H   0  0  0  0  0  0  0  0  0  0  0  0
   -5.1903    5.6797  -39.1050 H   0  0  0  0  0  0  0  0  0  0  0  0
  1  2  1  0  0  0  0
  1  3  2  0  0  0  0
  2  5  2  0  0  0  0
  3  6  1  0  0  0  0
  4  5  1  0  0  0  0
  4  6  2  0  0  0  0
  5  7  1  0  0  0  0
  1  8  1  0  0  0  0
  2  9  1  0  0  0  0
  3 10  1  0  0  0  0
  4 11  1  0  0  0  0
  7 12  1  0  0  0  0
M  END
> <id>
EN300-20091

> <smiles>
OC=1C=CC=NC1

> <MDLNUMBER>
MFCD00006378

> <IUPAC Name>
pyridin-3-ol

> <CAS>
109-00-2

> <Purity>
95

> <URL>
https://www.enaminestore.com/catalog/EN300-20091

> <MP>
126-129

> <ROCS_ShapeQuery>
_hit0

> <ROCS_TanimotoCombo>
1.105 

> <ROCS_ShapeTanimoto>
0.506 

> <ROCS_ColorTanimoto>
0.600 

> <ROCS_RefTversky>
1.169 

> <ROCS_RefColorTversky>
0.750 

> <ROCS_RefTverskyCombo>
1.918 

> <ROCS_FitTversky>
0.471 

> <ROCS_FitColorTversky>
0.750 

> <ROCS_FitTverskyCombo>
1.221 

> <ROCS_ColorScore>
-2.999

> <ROCS_Overlap>
138.111

> <ROCS_Rank>
27                  

$$$$
untitled-dbase-37174_4
  -OEChem-06232314393D

 12 11  0     0  0  0  0  0  0999 V2000
   -6.1486    5.5481  -36.3949 C   0  0  0  0  0  0  0  0  0  0  0  0
   -5.6207    4.6484  -38.5903 N   0  0  0  0  0  0  0  0  0  0  0  0
   -6.5745    6.6948  -34.3120 N   0  0  0  0  0  0  0  0  0  0  0  0
   -5.6656    5.6952  -37.6855 N   0  0  0  0  0  0  0  0  0  0  0  0
   -6.1237    6.6930  -35.6196 N   0  0  0  0  0  0  0  0  0  0  0  0
   -6.7435    4.1235  -35.7256 S   0  0  0  0  0  0  0  0  0  0  0  0
   -5.4444    3.7967  -38.0587 H   0  0  0  0  0  0  0  0  0  0  0  0
   -4.8014    4.7933  -39.1790 H   0  0  0  0  0  0  0  0  0  0  0  0
   -5.9959    7.3607  -33.8017 H   0  0  0  0  0  0  0  0  0  0  0  0
   -6.3574    5.7778  -33.9242 H   0  0  0  0  0  0  0  0  0  0  0  0
   -5.3240    6.5962  -38.0043 H   0  0  0  0  0  0  0  0  0  0  0  0
   -5.7706    7.5664  -35.9975 H   0  0  0  0  0  0  0  0  0  0  0  0
  1  4  1  0  0  0  0
  1  5  1  0  0  0  0
  1  6  2  0  0  0  0
  2  4  1  0  0  0  0
  3  5  1  0  0  0  0
  2  7  1  0  0  0  0
  2  8  1  0  0  0  0
  3  9  1  0  0  0  0
  3 10  1  0  0  0  0
  4 11  1  0  0  0  0
  5 12  1  0  0  0  0
M  END
> <id>
EN300-16922

> <smiles>
NNC(=S)NN

> <MDLNUMBER>
MFCD00007616

> <IUPAC Name>
1,3-diaminothiourea

> <CAS>
2231-57-4

> <Purity>
95

> <URL>
https://www.enaminestore.com/catalog/EN300-16922

> <MP>
171-174

> <ROCS_ShapeQuery>
_hit0

> <ROCS_TanimotoCombo>
1.105 

> <ROCS_ShapeTanimoto>
0.648 

> <ROCS_ColorTanimoto>
0.457 

> <ROCS_RefTversky>
1.136 

> <ROCS_RefColorTversky>
0.738 

> <ROCS_RefTverskyCombo>
1.874 

> <ROCS_FitTversky>
0.601 

> <ROCS_FitColorTversky>
0.546 

> <ROCS_FitTverskyCombo>
1.147 

> <ROCS_ColorScore>
-3.011

> <ROCS_Overlap>
129.667

> <ROCS_Rank>
28                  

$$$$
untitled-dbase-7899_0
  -OEChem-06232314393D

 10 10  0     0  0  0  0  0  0999 V2000
   -6.4708    3.6305  -36.8670 C   0  0  0  0  0  0  0  0  0  0  0  0
   -6.6743    5.0908  -35.2434 C   0  0  0  0  0  0  0  0  0  0  0  0
   -5.9750    4.7386  -37.5214 C   0  0  0  0  0  0  0  0  0  0  0  0
   -6.8719    3.8304  -35.5605 N   0  0  0  0  0  0  0  0  0  0  0  0
   -5.5179    4.8135  -38.7938 N   0  0  0  0  0  0  0  0  0  0  0  0
   -6.0096    6.0919  -36.4685 S   0  0  0  0  0  0  0  0  0  0  0  0
   -6.5636    2.6415  -37.2967 H   0  0  0  0  0  0  0  0  0  0  0  0
   -6.9159    5.4824  -34.2648 H   0  0  0  0  0  0  0  0  0  0  0  0
   -5.4588    3.9849  -39.4005 H   0  0  0  0  0  0  0  0  0  0  0  0
   -5.1218    5.6810  -39.1793 H   0  0  0  0  0  0  0  0  0  0  0  0
  1  3  2  0  0  0  0
  1  4  1  0  0  0  0
  2  4  2  0  0  0  0
  2  6  1  0  0  0  0
  3  5  1  0  0  0  0
  3  6  1  0  0  0  0
  1  7  1  0  0  0  0
  2  8  1  0  0  0  0
  5  9  1  0  0  0  0
  5 10  1  0  0  0  0
M  END
> <id>
EN300-260610

> <smiles>
Cl.Cl.NC1=CN=CS1

> <MDLNUMBER>
MFCD29763159

> <IUPAC Name>
1,3-thiazol-5-amine dihydrochloride

> <CAS>
1909319-11-4

> <Purity>
95

> <URL>
https://www.enaminestore.com/catalog/EN300-260610

> <Saltdate>
Cl

> <ROCS_ShapeQuery>
_hit0

> <ROCS_TanimotoCombo>
1.105 

> <ROCS_ShapeTanimoto>
0.505 

> <ROCS_ColorTanimoto>
0.600 

> <ROCS_RefTversky>
1.019 

> <ROCS_RefColorTversky>
0.750 

> <ROCS_RefTverskyCombo>
1.769 

> <ROCS_FitTversky>
0.500 

> <ROCS_FitColorTversky>
0.750 

> <ROCS_FitTverskyCombo>
1.250 

> <ROCS_ColorScore>
-2.999

> <ROCS_Overlap>
117.267

> <ROCS_Rank>
29                  

$$$$
untitled-dbase-4976_0
  -OEChem-06232314393D

 10 10  0     0  0  0  0  0  0999 V2000
   -6.4708    3.6305  -36.8670 C   0  0  0  0  0  0  0  0  0  0  0  0
   -6.6743    5.0908  -35.2434 C   0  0  0  0  0  0  0  0  0  0  0  0
   -5.9750    4.7386  -37.5214 C   0  0  0  0  0  0  0  0  0  0  0  0
   -6.8719    3.8304  -35.5605 N   0  0  0  0  0  0  0  0  0  0  0  0
   -5.5179    4.8135  -38.7938 N   0  0  0  0  0  0  0  0  0  0  0  0
   -6.0096    6.0919  -36.4685 S   0  0  0  0  0  0  0  0  0  0  0  0
   -6.5636    2.6415  -37.2967 H   0  0  0  0  0  0  0  0  0  0  0  0
   -6.9159    5.4824  -34.2648 H   0  0  0  0  0  0  0  0  0  0  0  0
   -5.4588    3.9849  -39.4005 H   0  0  0  0  0  0  0  0  0  0  0  0
   -5.1218    5.6810  -39.1793 H   0  0  0  0  0  0  0  0  0  0  0  0
  1  3  2  0  0  0  0
  1  4  1  0  0  0  0
  2  4  2  0  0  0  0
  2  6  1  0  0  0  0
  3  5  1  0  0  0  0
  3  6  1  0  0  0  0
  1  7  1  0  0  0  0
  2  8  1  0  0  0  0
  5  9  1  0  0  0  0
  5 10  1  0  0  0  0
M  END
> <id>
EN300-207846

> <smiles>
Cl.NC1=CN=CS1

> <MDLNUMBER>
MFCD10687116

> <IUPAC Name>
1,3-thiazol-5-amine hydrochloride

> <CAS>
942631-51-8

> <URL>
https://www.enaminestore.com/catalog/EN300-207846

> <Saltdate>
Cl

> <ROCS_ShapeQuery>
_hit0

> <ROCS_TanimotoCombo>
1.105 

> <ROCS_ShapeTanimoto>
0.505 

> <ROCS_ColorTanimoto>
0.600 

> <ROCS_RefTversky>
1.019 

> <ROCS_RefColorTversky>
0.750 

> <ROCS_RefTverskyCombo>
1.769 

> <ROCS_FitTversky>
0.500 

> <ROCS_FitColorTversky>
0.750 

> <ROCS_FitTverskyCombo>
1.250 

> <ROCS_ColorScore>
-2.999

> <ROCS_Overlap>
117.267

> <ROCS_Rank>
30                  

$$$$
untitled-dbase-47858_0
  -OEChem-06232314393D

 10 10  0     0  0  0  0  0  0999 V2000
   -6.4708    3.6305  -36.8670 C   0  0  0  0  0  0  0  0  0  0  0  0
   -6.6743    5.0908  -35.2434 C   0  0  0  0  0  0  0  0  0  0  0  0
   -5.9750    4.7386  -37.5214 C   0  0  0  0  0  0  0  0  0  0  0  0
   -6.8719    3.8304  -35.5605 N   0  0  0  0  0  0  0  0  0  0  0  0
   -5.5179    4.8135  -38.7938 N   0  0  0  0  0  0  0  0  0  0  0  0
   -6.0096    6.0919  -36.4685 S   0  0  0  0  0  0  0  0  0  0  0  0
   -6.5636    2.6415  -37.2967 H   0  0  0  0  0  0  0  0  0  0  0  0
   -6.9159    5.4824  -34.2648 H   0  0  0  0  0  0  0  0  0  0  0  0
   -5.4588    3.9849  -39.4005 H   0  0  0  0  0  0  0  0  0  0  0  0
   -5.1218    5.6810  -39.1793 H   0  0  0  0  0  0  0  0  0  0  0  0
  1  3  2  0  0  0  0
  1  4  1  0  0  0  0
  2  4  2  0  0  0  0
  2  6  1  0  0  0  0
  3  5  1  0  0  0  0
  3  6  1  0  0  0  0
  1  7  1  0  0  0  0
  2  8  1  0  0  0  0
  5  9  1  0  0  0  0
  5 10  1  0  0  0  0
M  END
> <id>
EN300-207847

> <smiles>
NC1=CN=CS1

> <MDLNUMBER>
MFCD09834069

> <IUPAC Name>
1,3-thiazol-5-amine

> <CAS>
17721-00-5

> <URL>
https://www.enaminestore.com/catalog/EN300-207847

> <ROCS_ShapeQuery>
_hit0

> <ROCS_TanimotoCombo>
1.105 

> <ROCS_ShapeTanimoto>
0.505 

> <ROCS_ColorTanimoto>
0.600 

> <ROCS_RefTversky>
1.019 

> <ROCS_RefColorTversky>
0.750 

> <ROCS_RefTverskyCombo>
1.769 

> <ROCS_FitTversky>
0.500 

> <ROCS_FitColorTversky>
0.750 

> <ROCS_FitTverskyCombo>
1.250 

> <ROCS_ColorScore>
-2.999

> <ROCS_Overlap>
117.267

> <ROCS_Rank>
31                  

$$$$
untitled-dbase-5262_0
  -OEChem-06232314393D

  9  9  0     0  0  0  0  0  0999 V2000
   -6.4732    3.6240  -36.8741 C   0  0  0  0  0  0  0  0  0  0  0  0
   -6.6705    5.1033  -35.2670 C   0  0  0  0  0  0  0  0  0  0  0  0
   -5.9764    4.7236  -37.5422 C   0  0  0  0  0  0  0  0  0  0  0  0
   -6.8713    3.8398  -35.5692 N   0  0  0  0  0  0  0  0  0  0  0  0
   -5.5245    4.8130  -38.7871 O   0  0  0  0  0  0  0  0  0  0  0  0
   -6.0061    6.0889  -36.5047 S   0  0  0  0  0  0  0  0  0  0  0  0
   -6.5675    2.6318  -37.2949 H   0  0  0  0  0  0  0  0  0  0  0  0
   -6.9092    5.5066  -34.2924 H   0  0  0  0  0  0  0  0  0  0  0  0
   -5.2279    5.7232  -39.0086 H   0  0  0  0  0  0  0  0  0  0  0  0
  1  3  2  0  0  0  0
  1  4  1  0  0  0  0
  2  4  2  0  0  0  0
  2  6  1  0  0  0  0
  3  5  1  0  0  0  0
  3  6  1  0  0  0  0
  1  7  1  0  0  0  0
  2  8  1  0  0  0  0
  5  9  1  0  0  0  0
M  END
> <id>
EN300-216221

> <smiles>
OC1=CN=CS1

> <MDLNUMBER>
MFCD12032752

> <IUPAC Name>
1,3-thiazol-5-ol

> <CAS>
77075-76-4

> <URL>
https://www.enaminestore.com/catalog/EN300-216221

> <ROCS_ShapeQuery>
_hit0

> <ROCS_TanimotoCombo>
1.103 

> <ROCS_ShapeTanimoto>
0.504 

> <ROCS_ColorTanimoto>
0.599 

> <ROCS_RefTversky>
1.019 

> <ROCS_RefColorTversky>
0.749 

> <ROCS_RefTverskyCombo>
1.769 

> <ROCS_FitTversky>
0.499 

> <ROCS_FitColorTversky>
0.749 

> <ROCS_FitTverskyCombo>
1.248 

> <ROCS_ColorScore>
-2.997

> <ROCS_Overlap>
117.339

> <ROCS_Rank>
32                  

$$$$
untitled-dbase-48288_0
  -OEChem-06232314393D

 14 14  0     0  0  0  0  0  0999 V2000
   -5.9830    5.8904  -36.6311 C   0  0  0  0  0  0  0  0  0  0  0  0
   -6.4570    3.5928  -36.9548 C   0  0  0  0  0  0  0  0  0  0  0  0
   -5.9799    4.7844  -37.4627 C   0  0  0  0  0  0  0  0  0  0  0  0
   -6.4633    5.7317  -35.3467 C   0  0  0  0  0  0  0  0  0  0  0  0
   -6.9211    3.4663  -35.6935 N   0  0  0  0  0  0  0  0  0  0  0  0
   -6.9244    4.5535  -34.8763 N   0  0  0  0  0  0  0  0  0  0  0  0
   -5.5055    4.8719  -38.7816 N   0  0  0  0  0  0  0  0  0  0  0  0
   -6.4655    6.8619  -34.4965 N   0  0  0  0  0  0  0  0  0  0  0  0
   -5.6185    6.8515  -36.9818 H   0  0  0  0  0  0  0  0  0  0  0  0
   -6.4859    2.6862  -37.5496 H   0  0  0  0  0  0  0  0  0  0  0  0
   -5.2078    5.7594  -39.1416 H   0  0  0  0  0  0  0  0  0  0  0  0
   -5.5574    4.0681  -39.3793 H   0  0  0  0  0  0  0  0  0  0  0  0
   -6.0800    7.7197  -34.8307 H   0  0  0  0  0  0  0  0  0  0  0  0
   -6.7649    6.7549  -33.5504 H   0  0  0  0  0  0  0  0  0  0  0  0
  1  3  1  0  0  0  0
  1  4  2  0  0  0  0
  2  3  2  0  0  0  0
  2  5  1  0  0  0  0
  3  7  1  0  0  0  0
  4  6  1  0  0  0  0
  4  8  1  0  0  0  0
  5  6  2  0  0  0  0
  1  9  1  0  0  0  0
  2 10  1  0  0  0  0
  7 11  1  0  0  0  0
  7 12  1  0  0  0  0
  8 13  1  0  0  0  0
  8 14  1  0  0  0  0
M  END
> <id>
EN300-39852275

> <smiles>
Cl.NC=1C=NN=C(N)C1

> <IUPAC Name>
pyridazine-3,5-diamine hydrochloride

> <CAS>
1500-82-9

> <Purity>
95

> <URL>
https://www.enaminestore.com/catalog/EN300-39852275

> <MP>
268-269

> <ROCS_ShapeQuery>
_hit0

> <ROCS_TanimotoCombo>
1.103 

> <ROCS_ShapeTanimoto>
0.513 

> <ROCS_ColorTanimoto>
0.589 

> <ROCS_RefTversky>
1.286 

> <ROCS_RefColorTversky>
1.000 

> <ROCS_RefTverskyCombo>
2.286 

> <ROCS_FitTversky>
0.461 

> <ROCS_FitColorTversky>
0.587 

> <ROCS_FitTverskyCombo>
1.047 

> <ROCS_ColorScore>
-4.199

> <ROCS_Overlap>
154.961

> <ROCS_Rank>
33                  

$$$$
untitled-dbase-51218_0
  -OEChem-06232314393D

 14 14  0     0  0  0  0  0  0999 V2000
   -5.9830    5.8904  -36.6311 C   0  0  0  0  0  0  0  0  0  0  0  0
   -6.4570    3.5928  -36.9548 C   0  0  0  0  0  0  0  0  0  0  0  0
   -5.9799    4.7844  -37.4627 C   0  0  0  0  0  0  0  0  0  0  0  0
   -6.4633    5.7317  -35.3467 C   0  0  0  0  0  0  0  0  0  0  0  0
   -6.9211    3.4663  -35.6935 N   0  0  0  0  0  0  0  0  0  0  0  0
   -6.9244    4.5535  -34.8763 N   0  0  0  0  0  0  0  0  0  0  0  0
   -5.5055    4.8719  -38.7816 N   0  0  0  0  0  0  0  0  0  0  0  0
   -6.4655    6.8619  -34.4965 N   0  0  0  0  0  0  0  0  0  0  0  0
   -5.6185    6.8515  -36.9818 H   0  0  0  0  0  0  0  0  0  0  0  0
   -6.4859    2.6862  -37.5496 H   0  0  0  0  0  0  0  0  0  0  0  0
   -5.2078    5.7594  -39.1416 H   0  0  0  0  0  0  0  0  0  0  0  0
   -5.5574    4.0681  -39.3793 H   0  0  0  0  0  0  0  0  0  0  0  0
   -6.0800    7.7197  -34.8307 H   0  0  0  0  0  0  0  0  0  0  0  0
   -6.7649    6.7549  -33.5504 H   0  0  0  0  0  0  0  0  0  0  0  0
  1  3  1  0  0  0  0
  1  4  2  0  0  0  0
  2  3  2  0  0  0  0
  2  5  1  0  0  0  0
  3  7  1  0  0  0  0
  4  6  1  0  0  0  0
  4  8  1  0  0  0  0
  5  6  2  0  0  0  0
  1  9  1  0  0  0  0
  2 10  1  0  0  0  0
  7 11  1  0  0  0  0
  7 12  1  0  0  0  0
  8 13  1  0  0  0  0
  8 14  1  0  0  0  0
M  END
> <id>
EN300-7248207

> <smiles>
NC=1C=NN=C(N)C1

> <MDLNUMBER>
MFCD04037380

> <IUPAC Name>
pyridazine-3,5-diamine

> <URL>
https://www.enaminestore.com/catalog/EN300-7248207

> <ROCS_ShapeQuery>
_hit0

> <ROCS_TanimotoCombo>
1.103 

> <ROCS_ShapeTanimoto>
0.513 

> <ROCS_ColorTanimoto>
0.589 

> <ROCS_RefTversky>
1.286 

> <ROCS_RefColorTversky>
1.000 

> <ROCS_RefTverskyCombo>
2.286 

> <ROCS_FitTversky>
0.461 

> <ROCS_FitColorTversky>
0.587 

> <ROCS_FitTverskyCombo>
1.047 

> <ROCS_ColorScore>
-4.199

> <ROCS_Overlap>
154.961

> <ROCS_Rank>
34                  

$$$$
untitled-dbase-32580_0
  -OEChem-06232314393D

 13 13  0     0  0  0  0  0  0999 V2000
   -6.4331    3.7936  -36.8159 C   0  0  0  0  0  0  0  0  0  0  0  0
   -6.8470    4.9741  -34.8889 C   0  0  0  0  0  0  0  0  0  0  0  0
   -5.9577    4.9199  -37.4679 C   0  0  0  0  0  0  0  0  0  0  0  0
   -6.3908    6.1558  -35.4506 C   0  0  0  0  0  0  0  0  0  0  0  0
   -5.9395    6.1196  -36.7653 C   0  0  0  0  0  0  0  0  0  0  0  0
   -6.8798    3.7898  -35.5399 N   0  0  0  0  0  0  0  0  0  0  0  0
   -5.5155    4.8160  -38.8001 N   0  0  0  0  0  0  0  0  0  0  0  0
   -6.4106    7.5877  -34.4930 Cl  0  0  0  0  0  0  0  0  0  0  0  0
   -5.3531    7.5558  -37.5423 Cl  0  0  0  0  0  0  0  0  0  0  0  0
   -6.4726    2.8278  -37.3112 H   0  0  0  0  0  0  0  0  0  0  0  0
   -7.2127    4.9328  -33.8669 H   0  0  0  0  0  0  0  0  0  0  0  0
   -5.5057    3.9192  -39.2454 H   0  0  0  0  0  0  0  0  0  0  0  0
   -5.1288    5.6212  -39.2528 H   0  0  0  0  0  0  0  0  0  0  0  0
  1  3  2  0  0  0  0
  1  6  1  0  0  0  0
  2  4  1  0  0  0  0
  2  6  2  0  0  0  0
  3  5  1  0  0  0  0
  3  7  1  0  0  0  0
  4  5  2  0  0  0  0
  4  8  1  0  0  0  0
  5  9  1  0  0  0  0
  1 10  1  0  0  0  0
  2 11  1  0  0  0  0
  7 12  1  0  0  0  0
  7 13  1  0  0  0  0
M  END
> <id>
EN300-103341

> <smiles>
NC=1C=NC=C(Cl)C1Cl

> <MDLNUMBER>
MFCD09910182

> <IUPAC Name>
4,5-dichloropyridin-3-amine

> <CAS>
89284-39-9

> <Purity>
95

> <URL>
https://www.enaminestore.com/catalog/EN300-103341

> <MP>
104-108

> <ROCS_ShapeQuery>
_hit0

> <ROCS_TanimotoCombo>
1.102 

> <ROCS_ShapeTanimoto>
0.502 

> <ROCS_ColorTanimoto>
0.600 

> <ROCS_RefTversky>
1.324 

> <ROCS_RefColorTversky>
0.750 

> <ROCS_RefTverskyCombo>
2.074 

> <ROCS_FitTversky>
0.447 

> <ROCS_FitColorTversky>
0.750 

> <ROCS_FitTverskyCombo>
1.197 

> <ROCS_ColorScore>
-3.000

> <ROCS_Overlap>
161.185

> <ROCS_Rank>
35                  

$$$$
untitled-dbase-53726_0
  -OEChem-06232314393D

 17 17  0     0  0  0  0  0  0999 V2000
   -5.9642    5.9775  -36.6220 C   0  0  0  0  0  0  0  0  0  0  0  0
   -6.4673    3.6666  -36.8729 C   0  0  0  0  0  0  0  0  0  0  0  0
   -6.4307    5.9059  -35.3141 C   0  0  0  0  0  0  0  0  0  0  0  0
   -5.9794    4.8410  -37.4228 C   0  0  0  0  0  0  0  0  0  0  0  0
   -6.8987    4.6838  -34.8586 C   0  0  0  0  0  0  0  0  0  0  0  0
   -7.4132    4.5440  -33.4626 C   0  0  0  0  0  0  0  0  0  0  0  0
   -6.9290    3.5583  -35.6069 N   0  0  0  0  0  0  0  0  0  0  0  0
   -6.4195    7.0496  -34.4958 N   0  0  0  0  0  0  0  0  0  0  0  0
   -5.5308    4.8810  -38.7018 O   0  0  0  0  0  0  0  0  0  0  0  0
   -5.5878    6.9160  -37.0218 H   0  0  0  0  0  0  0  0  0  0  0  0
   -6.5027    2.7492  -37.4520 H   0  0  0  0  0  0  0  0  0  0  0  0
   -8.4892    4.7496  -33.4330 H   0  0  0  0  0  0  0  0  0  0  0  0
   -7.2391    3.5325  -33.0764 H   0  0  0  0  0  0  0  0  0  0  0  0
   -6.9049    5.2381  -32.7824 H   0  0  0  0  0  0  0  0  0  0  0  0
   -6.8018    6.9967  -33.5712 H   0  0  0  0  0  0  0  0  0  0  0  0
   -6.1170    7.9249  -34.8783 H   0  0  0  0  0  0  0  0  0  0  0  0
   -5.2250    5.7757  -38.9286 H   0  0  0  0  0  0  0  0  0  0  0  0
  1  3  2  0  0  0  0
  1  4  1  0  0  0  0
  2  4  2  0  0  0  0
  2  7  1  0  0  0  0
  3  5  1  0  0  0  0
  3  8  1  0  0  0  0
  4  9  1  0  0  0  0
  5  6  1  0  0  0  0
  5  7  2  0  0  0  0
  1 10  1  0  0  0  0
  2 11  1  0  0  0  0
  6 12  1  0  0  0  0
  6 13  1  0  0  0  0
  6 14  1  0  0  0  0
  8 15  1  0  0  0  0
  8 16  1  0  0  0  0
  9 17  1  0  0  0  0
M  END
> <id>
EN300-20833110

> <smiles>
CC=1N=CC(O)=CC1N

> <MDLNUMBER>
MFCD28724101

> <IUPAC Name>
5-amino-6-methylpyridin-3-ol

> <CAS>
1805429-39-3

> <URL>
https://www.enaminestore.com/catalog/EN300-20833110

> <ROCS_ShapeQuery>
_hit0

> <ROCS_TanimotoCombo>
1.101 

> <ROCS_ShapeTanimoto>
0.474 

> <ROCS_ColorTanimoto>
0.627 

> <ROCS_RefTversky>
1.311 

> <ROCS_RefColorTversky>
0.940 

> <ROCS_RefTverskyCombo>
2.251 

> <ROCS_FitTversky>
0.426 

> <ROCS_FitColorTversky>
0.653 

> <ROCS_FitTverskyCombo>
1.079 

> <ROCS_ColorScore>
-3.855

> <ROCS_Overlap>
160.741

> <ROCS_Rank>
36                  

$$$$
untitled-dbase-2803_0
  -OEChem-06232314393D

 13 13  0     0  0  0  0  0  0999 V2000
   -6.5864    4.4454  -35.9403 C   0  0  0  0  0  0  0  0  0  0  0  0
   -5.1960    7.1331  -38.0505 C   0  0  0  0  0  0  0  0  0  0  0  0
   -6.0958    5.6783  -36.4769 C   0  0  0  0  0  0  0  0  0  0  0  0
   -5.6024    5.8403  -37.8038 C   0  0  0  0  0  0  0  0  0  0  0  0
   -6.0474    6.8538  -35.7600 C   0  0  0  0  0  0  0  0  0  0  0  0
   -6.9842    3.4458  -35.5051 N   0  0  0  0  0  0  0  0  0  0  0  0
   -6.4373    7.0511  -34.4734 N   0  0  0  0  0  0  0  0  0  0  0  0
   -5.5231    4.8771  -38.7397 O   0  0  0  0  0  0  0  0  0  0  0  0
   -5.4095    8.1453  -36.6859 S   0  0  0  0  0  0  0  0  0  0  0  0
   -4.7835    7.5353  -38.9655 H   0  0  0  0  0  0  0  0  0  0  0  0
   -6.8653    6.3017  -33.9183 H   0  0  0  0  0  0  0  0  0  0  0  0
   -6.4065    7.9794  -34.0370 H   0  0  0  0  0  0  0  0  0  0  0  0
   -5.1520    5.2253  -39.5727 H   0  0  0  0  0  0  0  0  0  0  0  0
  1  3  1  0  0  0  0
  1  6  3  0  0  0  0
  2  4  2  0  0  0  0
  2  9  1  0  0  0  0
  3  4  1  0  0  0  0
  3  5  2  0  0  0  0
  4  8  1  0  0  0  0
  5  7  1  0  0  0  0
  5  9  1  0  0  0  0
  2 10  1  0  0  0  0
  7 11  1  0  0  0  0
  7 12  1  0  0  0  0
  8 13  1  0  0  0  0
M  END
> <id>
EN300-117834

> <smiles>
NC=1SC=C(O)C1C#N

> <MDLNUMBER>
MFCD19204858

> <IUPAC Name>
2-amino-4-hydroxythiophene-3-carbonitrile

> <CAS>
99580-50-4

> <Purity>
95

> <URL>
https://www.enaminestore.com/catalog/EN300-117834

> <ROCS_ShapeQuery>
_hit0

> <ROCS_TanimotoCombo>
1.100 

> <ROCS_ShapeTanimoto>
0.484 

> <ROCS_ColorTanimoto>
0.616 

> <ROCS_RefTversky>
1.293 

> <ROCS_RefColorTversky>
0.930 

> <ROCS_RefTverskyCombo>
2.223 

> <ROCS_FitTversky>
0.436 

> <ROCS_FitColorTversky>
0.646 

> <ROCS_FitTverskyCombo>
1.082 

> <ROCS_ColorScore>
-3.811

> <ROCS_Overlap>
157.434

> <ROCS_Rank>
37                  

$$$$
untitled-dbase-37523_0
  -OEChem-06232314393D

 16 16  0     0  0  0  0  0  0999 V2000
   -6.4376    3.7866  -36.8122 C   0  0  0  0  0  0  0  0  0  0  0  0
   -6.8395    4.9747  -34.8873 C   0  0  0  0  0  0  0  0  0  0  0  0
   -5.9304    6.1099  -36.7691 C   0  0  0  0  0  0  0  0  0  0  0  0
   -5.9575    4.9085  -37.4685 C   0  0  0  0  0  0  0  0  0  0  0  0
   -6.3779    6.1521  -35.4534 C   0  0  0  0  0  0  0  0  0  0  0  0
   -5.4208    7.3466  -37.4413 C   0  0  0  0  0  0  0  0  0  0  0  0
   -6.8809    3.7888  -35.5351 N   0  0  0  0  0  0  0  0  0  0  0  0
   -5.5154    4.8141  -38.8003 N   0  0  0  0  0  0  0  0  0  0  0  0
   -6.3747    7.5993  -34.5240 Cl  0  0  0  0  0  0  0  0  0  0  0  0
   -6.4818    2.8200  -37.3049 H   0  0  0  0  0  0  0  0  0  0  0  0
   -7.2016    4.9390  -33.8642 H   0  0  0  0  0  0  0  0  0  0  0  0
   -6.2433    7.8704  -37.9393 H   0  0  0  0  0  0  0  0  0  0  0  0
   -4.9580    8.0255  -36.7164 H   0  0  0  0  0  0  0  0  0  0  0  0
   -4.6560    7.1016  -38.1870 H   0  0  0  0  0  0  0  0  0  0  0  0
   -5.2148    5.6416  -39.2786 H   0  0  0  0  0  0  0  0  0  0  0  0
   -5.5949    3.9403  -39.2840 H   0  0  0  0  0  0  0  0  0  0  0  0
  1  4  1  0  0  0  0
  1  7  2  0  0  0  0
  2  5  2  0  0  0  0
  2  7  1  0  0  0  0
  3  4  2  0  0  0  0
  3  5  1  0  0  0  0
  3  6  1  0  0  0  0
  4  8  1  0  0  0  0
  5  9  1  0  0  0  0
  1 10  1  0  0  0  0
  2 11  1  0  0  0  0
  6 12  1  0  0  0  0
  6 13  1  0  0  0  0
  6 14  1  0  0  0  0
  8 15  1  0  0  0  0
  8 16  1  0  0  0  0
M  END
> <id>
EN300-114017

> <smiles>
CC=1C(N)=CN=CC1Cl

> <MDLNUMBER>
MFCD07439975

> <IUPAC Name>
5-chloro-4-methylpyridin-3-amine

> <CAS>
890092-47-4

> <URL>
https://www.enaminestore.com/catalog/EN300-114017

> <MP>
87-90

> <ROCS_ShapeQuery>
_hit0

> <ROCS_TanimotoCombo>
1.099 

> <ROCS_ShapeTanimoto>
0.500 

> <ROCS_ColorTanimoto>
0.600 

> <ROCS_RefTversky>
1.335 

> <ROCS_RefColorTversky>
0.750 

> <ROCS_RefTverskyCombo>
2.085 

> <ROCS_FitTversky>
0.444 

> <ROCS_FitColorTversky>
0.750 

> <ROCS_FitTverskyCombo>
1.194 

> <ROCS_ColorScore>
-3.000

> <ROCS_Overlap>
163.032

> <ROCS_Rank>
38                  

$$$$
untitled-dbase-40919_3
  -OEChem-06232314393D

 15 15  0     1  0  0  0  0  0999 V2000
   -6.4107    6.2191  -35.6723 C   0  0  0  0  0  0  0  0  0  0  0  0
   -5.5922    6.0112  -36.7125 C   0  0  0  0  0  0  0  0  0  0  0  0
   -7.2604    5.1229  -35.1021 C   0  0  0  0  0  0  0  0  0  0  0  0
   -6.6918    3.7862  -36.9738 C   0  0  0  0  0  0  0  0  0  0  0  0
   -5.5124    4.6693  -37.3775 C   0  0  1  0  0  0  0  0  0  0  0  0
   -6.8638    3.8236  -35.5586 O   0  0  0  0  0  0  0  0  0  0  0  0
   -5.5262    4.8170  -38.7917 O   0  0  0  0  0  0  0  0  0  0  0  0
   -6.4765    7.2068  -35.2253 H   0  0  0  0  0  0  0  0  0  0  0  0
   -4.9621    6.8126  -37.0779 H   0  0  0  0  0  0  0  0  0  0  0  0
   -7.2310    5.1467  -34.0065 H   0  0  0  0  0  0  0  0  0  0  0  0
   -8.3008    5.2680  -35.4119 H   0  0  0  0  0  0  0  0  0  0  0  0
   -7.6216    4.1490  -37.4257 H   0  0  0  0  0  0  0  0  0  0  0  0
   -6.5430    2.7459  -37.2908 H   0  0  0  0  0  0  0  0  0  0  0  0
   -4.5780    4.1644  -37.1010 H   0  0  0  0  0  0  0  0  0  0  0  0
   -5.4728    3.9229  -39.1638 H   0  0  0  0  0  0  0  0  0  0  0  0
  1  2  2  0  0  0  0
  1  3  1  0  0  0  0
  2  5  1  0  0  0  0
  3  6  1  0  0  0  0
  4  5  1  0  0  0  0
  4  6  1  0  0  0  0
  5  7  1  0  0  0  0
  1  8  1  0  0  0  0
  2  9  1  0  0  0  0
  3 10  1  0  0  0  0
  3 11  1  0  0  0  0
  4 12  1  0  0  0  0
  4 13  1  0  0  0  0
  5 14  1  0  0  0  0
  7 15  1  0  0  0  0
M  END
> <id>
EN300-83175

> <smiles>
OC1COCC=C1

> <MDLNUMBER>
MFCD24394456

> <IUPAC Name>
3,6-dihydro-2H-pyran-3-ol

> <CAS>
445378-38-1

> <Purity>
95

> <URL>
https://www.enaminestore.com/catalog/EN300-83175

> <ROCS_ShapeQuery>
_hit0

> <ROCS_TanimotoCombo>
1.099 

> <ROCS_ShapeTanimoto>
0.500 

> <ROCS_ColorTanimoto>
0.599 

> <ROCS_RefTversky>
1.129 

> <ROCS_RefColorTversky>
0.750 

> <ROCS_RefTverskyCombo>
1.879 

> <ROCS_FitTversky>
0.473 

> <ROCS_FitColorTversky>
0.750 

> <ROCS_FitTverskyCombo>
1.222 

> <ROCS_ColorScore>
-2.998

> <ROCS_Overlap>
132.668

> <ROCS_Rank>
39                  

$$$$
untitled-dbase-44897_0
  -OEChem-06232314393D

 10 10  0     0  0  0  0  0  0999 V2000
   -6.4737    3.6522  -36.8630 C   0  0  0  0  0  0  0  0  0  0  0  0
   -5.9687    4.7489  -37.5295 C   0  0  0  0  0  0  0  0  0  0  0  0
   -6.6557    5.1294  -35.2523 C   0  0  0  0  0  0  0  0  0  0  0  0
   -6.8678    3.8684  -35.5570 N   0  0  0  0  0  0  0  0  0  0  0  0
   -5.5156    4.8072  -38.8039 N   0  0  0  0  0  0  0  0  0  0  0  0
   -5.9850    6.1121  -36.4889 S   0  0  0  0  0  0  0  0  0  0  0  0
   -7.0156    5.7994  -33.7166 Cl  0  0  0  0  0  0  0  0  0  0  0  0
   -6.5788    2.6601  -37.2825 H   0  0  0  0  0  0  0  0  0  0  0  0
   -5.4674    3.9725  -39.4033 H   0  0  0  0  0  0  0  0  0  0  0  0
   -5.1117    5.6668  -39.1991 H   0  0  0  0  0  0  0  0  0  0  0  0
  1  2  2  0  0  0  0
  1  4  1  0  0  0  0
  2  5  1  0  0  0  0
  2  6  1  0  0  0  0
  3  4  2  0  0  0  0
  3  6  1  0  0  0  0
  3  7  1  0  0  0  0
  1  8  1  0  0  0  0
  5  9  1  0  0  0  0
  5 10  1  0  0  0  0
M  END
> <id>
EN300-4265952

> <smiles>
NC1=CN=C(Cl)S1

> <MDLNUMBER>
MFCD13193449

> <IUPAC Name>
2-chloro-1,3-thiazol-5-amine

> <CAS>
1257854-72-0

> <URL>
https://www.enaminestore.com/catalog/EN300-4265952

> <ROCS_ShapeQuery>
_hit0

> <ROCS_TanimotoCombo>
1.098 

> <ROCS_ShapeTanimoto>
0.499 

> <ROCS_ColorTanimoto>
0.599 

> <ROCS_RefTversky>
1.096 

> <ROCS_RefColorTversky>
0.749 

> <ROCS_RefTverskyCombo>
1.845 

> <ROCS_FitTversky>
0.478 

> <ROCS_FitColorTversky>
0.749 

> <ROCS_FitTverskyCombo>
1.227 

> <ROCS_ColorScore>
-2.995

> <ROCS_Overlap>
128.055

> <ROCS_Rank>
40                  

$$$$
untitled-dbase-24076_0
  -OEChem-06232314393D

  9  9  0     0  0  0  0  0  0999 V2000
   -6.4727    3.6364  -36.8745 C   0  0  0  0  0  0  0  0  0  0  0  0
   -5.9734    4.7294  -37.5513 C   0  0  0  0  0  0  0  0  0  0  0  0
   -6.6669    5.1290  -35.2793 C   0  0  0  0  0  0  0  0  0  0  0  0
   -6.8706    3.8635  -35.5714 N   0  0  0  0  0  0  0  0  0  0  0  0
   -5.5210    4.8078  -38.7969 O   0  0  0  0  0  0  0  0  0  0  0  0
   -6.0001    6.1031  -36.5248 S   0  0  0  0  0  0  0  0  0  0  0  0
   -7.0332    5.8120  -33.7509 Cl  0  0  0  0  0  0  0  0  0  0  0  0
   -6.5692    2.6411  -37.2875 H   0  0  0  0  0  0  0  0  0  0  0  0
   -5.2223    5.7156  -39.0255 H   0  0  0  0  0  0  0  0  0  0  0  0
  1  2  2  0  0  0  0
  1  4  1  0  0  0  0
  2  5  1  0  0  0  0
  2  6  1  0  0  0  0
  3  4  2  0  0  0  0
  3  6  1  0  0  0  0
  3  7  1  0  0  0  0
  1  8  1  0  0  0  0
  5  9  1  0  0  0  0
M  END
> <id>
EN300-1994773

> <smiles>
OC1=CN=C(Cl)S1

> <MDLNUMBER>
MFCD32774823

> <IUPAC Name>
2-chloro-1,3-thiazol-5-ol

> <CAS>
2228746-69-6

> <URL>
https://www.enaminestore.com/catalog/EN300-1994773

> <ROCS_ShapeQuery>
_hit0

> <ROCS_TanimotoCombo>
1.097 

> <ROCS_ShapeTanimoto>
0.498 

> <ROCS_ColorTanimoto>
0.599 

> <ROCS_RefTversky>
1.097 

> <ROCS_RefColorTversky>
0.749 

> <ROCS_RefTverskyCombo>
1.845 

> <ROCS_FitTversky>
0.478 

> <ROCS_FitColorTversky>
0.749 

> <ROCS_FitTverskyCombo>
1.226 

> <ROCS_ColorScore>
-2.995

> <ROCS_Overlap>
128.169

> <ROCS_Rank>
41                  

$$$$
untitled-dbase-37766_0
  -OEChem-06232314393D

 13 13  0     0  0  0  0  0  0999 V2000
   -6.4405    3.7812  -36.8104 C   0  0  0  0  0  0  0  0  0  0  0  0
   -6.8457    4.9788  -34.8922 C   0  0  0  0  0  0  0  0  0  0  0  0
   -5.9613    4.9002  -37.4722 C   0  0  0  0  0  0  0  0  0  0  0  0
   -5.9365    6.1053  -36.7791 C   0  0  0  0  0  0  0  0  0  0  0  0
   -6.3853    6.1539  -35.4640 C   0  0  0  0  0  0  0  0  0  0  0  0
   -6.8849    3.7894  -35.5337 N   0  0  0  0  0  0  0  0  0  0  0  0
   -5.5146    4.8169  -38.8012 N   0  0  0  0  0  0  0  0  0  0  0  0
   -5.4797    7.2146  -37.3799 F   0  0  0  0  0  0  0  0  0  0  0  0
   -6.3731    7.6195  -34.5726 Cl  0  0  0  0  0  0  0  0  0  0  0  0
   -6.4833    2.8120  -37.2984 H   0  0  0  0  0  0  0  0  0  0  0  0
   -7.2106    4.9510  -33.8698 H   0  0  0  0  0  0  0  0  0  0  0  0
   -5.2163    5.6489  -39.2749 H   0  0  0  0  0  0  0  0  0  0  0  0
   -5.5869    3.9456  -39.2925 H   0  0  0  0  0  0  0  0  0  0  0  0
  1  3  2  0  0  0  0
  1  6  1  0  0  0  0
  2  5  1  0  0  0  0
  2  6  2  0  0  0  0
  3  4  1  0  0  0  0
  3  7  1  0  0  0  0
  4  5  2  0  0  0  0
  4  8  1  0  0  0  0
  5  9  1  0  0  0  0
  1 10  1  0  0  0  0
  2 11  1  0  0  0  0
  7 12  1  0  0  0  0
  7 13  1  0  0  0  0
M  END
> <id>
EN300-1295178

> <smiles>
NC=1C=NC=C(Cl)C1F

> <MDLNUMBER>
MFCD18257909

> <IUPAC Name>
5-chloro-4-fluoropyridin-3-amine

> <CAS>
1256834-58-8

> <URL>
https://www.enaminestore.com/catalog/EN300-1295178

> <ROCS_ShapeQuery>
_hit0

> <ROCS_TanimotoCombo>
1.097 

> <ROCS_ShapeTanimoto>
0.497 

> <ROCS_ColorTanimoto>
0.600 

> <ROCS_RefTversky>
1.343 

> <ROCS_RefColorTversky>
0.750 

> <ROCS_RefTverskyCombo>
2.093 

> <ROCS_FitTversky>
0.441 

> <ROCS_FitColorTversky>
0.750 

> <ROCS_FitTverskyCombo>
1.191 

> <ROCS_ColorScore>
-3.000

> <ROCS_Overlap>
164.369

> <ROCS_Rank>
42                  

$$$$
untitled-dbase-11679_0
  -OEChem-06232314393D

 19 19  0     0  0  0  0  0  0999 V2000
   -6.8530    4.9803  -34.8908 C   0  0  0  0  0  0  0  0  0  0  0  0
   -6.4361    3.7883  -36.8101 C   0  0  0  0  0  0  0  0  0  0  0  0
   -6.3987    6.1591  -35.4599 C   0  0  0  0  0  0  0  0  0  0  0  0
   -5.9467    6.1155  -36.7741 C   0  0  0  0  0  0  0  0  0  0  0  0
   -5.9625    4.9113  -37.4692 C   0  0  0  0  0  0  0  0  0  0  0  0
   -6.4044    7.4201  -34.6673 C   0  0  0  0  0  0  0  0  0  0  0  0
   -5.4454    7.3608  -37.4337 C   0  0  0  0  0  0  0  0  0  0  0  0
   -6.8834    3.7918  -35.5344 N   0  0  0  0  0  0  0  0  0  0  0  0
   -5.5146    4.8163  -38.7988 N   0  0  0  0  0  0  0  0  0  0  0  0
   -7.2177    4.9517  -33.8684 H   0  0  0  0  0  0  0  0  0  0  0  0
   -6.4723    2.8194  -37.2992 H   0  0  0  0  0  0  0  0  0  0  0  0
   -5.4552    7.5398  -34.1295 H   0  0  0  0  0  0  0  0  0  0  0  0
   -6.5503    8.2975  -35.3119 H   0  0  0  0  0  0  0  0  0  0  0  0
   -7.2218    7.4280  -33.9333 H   0  0  0  0  0  0  0  0  0  0  0  0
   -4.3684    7.4693  -37.2665 H   0  0  0  0  0  0  0  0  0  0  0  0
   -5.6329    7.3376  -38.5135 H   0  0  0  0  0  0  0  0  0  0  0  0
   -5.9538    8.2480  -37.0385 H   0  0  0  0  0  0  0  0  0  0  0  0
   -5.4968    3.9215  -39.2492 H   0  0  0  0  0  0  0  0  0  0  0  0
   -5.1310    5.6259  -39.2476 H   0  0  0  0  0  0  0  0  0  0  0  0
  1  3  2  0  0  0  0
  1  8  1  0  0  0  0
  2  5  1  0  0  0  0
  2  8  2  0  0  0  0
  3  4  1  0  0  0  0
  3  6  1  0  0  0  0
  4  5  2  0  0  0  0
  4  7  1  0  0  0  0
  5  9  1  0  0  0  0
  1 10  1  0  0  0  0
  2 11  1  0  0  0  0
  6 12  1  0  0  0  0
  6 13  1  0  0  0  0
  6 14  1  0  0  0  0
  7 15  1  0  0  0  0
  7 16  1  0  0  0  0
  7 17  1  0  0  0  0
  9 18  1  0  0  0  0
  9 19  1  0  0  0  0
M  END
> <id>
EN300-643074

> <smiles>
CC=1C=NC=C(N)C1C

> <MDLNUMBER>
MFCD22397757

> <IUPAC Name>
4,5-dimethylpyridin-3-amine

> <CAS>
1335056-01-3

> <Purity>
95

> <URL>
https://www.enaminestore.com/catalog/EN300-643074

> <ROCS_ShapeQuery>
_hit0

> <ROCS_TanimotoCombo>
1.096 

> <ROCS_ShapeTanimoto>
0.496 

> <ROCS_ColorTanimoto>
0.600 

> <ROCS_RefTversky>
1.343 

> <ROCS_RefColorTversky>
0.750 

> <ROCS_RefTverskyCombo>
2.093 

> <ROCS_FitTversky>
0.440 

> <ROCS_FitColorTversky>
0.750 

> <ROCS_FitTverskyCombo>
1.190 

> <ROCS_ColorScore>
-3.000

> <ROCS_Overlap>
164.459

> <ROCS_Rank>
43                  

$$$$
untitled-dbase-43531_0
  -OEChem-06232314393D

 19 19  0     0  0  0  0  0  0999 V2000
   -6.8530    4.9803  -34.8908 C   0  0  0  0  0  0  0  0  0  0  0  0
   -6.4361    3.7883  -36.8101 C   0  0  0  0  0  0  0  0  0  0  0  0
   -6.3987    6.1591  -35.4599 C   0  0  0  0  0  0  0  0  0  0  0  0
   -5.9467    6.1155  -36.7741 C   0  0  0  0  0  0  0  0  0  0  0  0
   -5.9625    4.9113  -37.4692 C   0  0  0  0  0  0  0  0  0  0  0  0
   -6.4044    7.4201  -34.6673 C   0  0  0  0  0  0  0  0  0  0  0  0
   -5.4454    7.3608  -37.4337 C   0  0  0  0  0  0  0  0  0  0  0  0
   -6.8834    3.7918  -35.5344 N   0  0  0  0  0  0  0  0  0  0  0  0
   -5.5146    4.8163  -38.7988 N   0  0  0  0  0  0  0  0  0  0  0  0
   -7.2177    4.9517  -33.8684 H   0  0  0  0  0  0  0  0  0  0  0  0
   -6.4723    2.8194  -37.2992 H   0  0  0  0  0  0  0  0  0  0  0  0
   -5.4552    7.5398  -34.1295 H   0  0  0  0  0  0  0  0  0  0  0  0
   -6.5503    8.2975  -35.3119 H   0  0  0  0  0  0  0  0  0  0  0  0
   -7.2218    7.4280  -33.9333 H   0  0  0  0  0  0  0  0  0  0  0  0
   -4.3684    7.4693  -37.2665 H   0  0  0  0  0  0  0  0  0  0  0  0
   -5.6329    7.3376  -38.5135 H   0  0  0  0  0  0  0  0  0  0  0  0
   -5.9538    8.2480  -37.0385 H   0  0  0  0  0  0  0  0  0  0  0  0
   -5.4968    3.9215  -39.2492 H   0  0  0  0  0  0  0  0  0  0  0  0
   -5.1310    5.6259  -39.2476 H   0  0  0  0  0  0  0  0  0  0  0  0
  1  3  2  0  0  0  0
  1  8  1  0  0  0  0
  2  5  1  0  0  0  0
  2  8  2  0  0  0  0
  3  4  1  0  0  0  0
  3  6  1  0  0  0  0
  4  5  2  0  0  0  0
  4  7  1  0  0  0  0
  5  9  1  0  0  0  0
  1 10  1  0  0  0  0
  2 11  1  0  0  0  0
  6 12  1  0  0  0  0
  6 13  1  0  0  0  0
  6 14  1  0  0  0  0
  7 15  1  0  0  0  0
  7 16  1  0  0  0  0
  7 17  1  0  0  0  0
  9 18  1  0  0  0  0
  9 19  1  0  0  0  0
M  END
> <id>
EN300-28243685

> <smiles>
Cl.CC=1C=NC=C(N)C1C

> <MDLNUMBER>
MFCD34168283

> <IUPAC Name>
4,5-dimethylpyridin-3-amine hydrochloride

> <CAS>
2648949-07-7

> <Purity>
95

> <URL>
https://www.enaminestore.com/catalog/EN300-28243685

> <Saltdate>
Cl

> <ROCS_ShapeQuery>
_hit0

> <ROCS_TanimotoCombo>
1.096 

> <ROCS_ShapeTanimoto>
0.496 

> <ROCS_ColorTanimoto>
0.600 

> <ROCS_RefTversky>
1.343 

> <ROCS_RefColorTversky>
0.750 

> <ROCS_RefTverskyCombo>
2.093 

> <ROCS_FitTversky>
0.440 

> <ROCS_FitColorTversky>
0.750 

> <ROCS_FitTverskyCombo>
1.190 

> <ROCS_ColorScore>
-3.000

> <ROCS_Overlap>
164.459

> <ROCS_Rank>
44                  

$$$$
untitled-dbase-3852_0
  -OEChem-06232314393D

 13 13  0     0  0  0  0  0  0999 V2000
   -6.0377    5.6811  -36.6180 C   0  0  0  0  0  0  0  0  0  0  0  0
   -6.5847    5.1336  -35.4224 C   0  0  0  0  0  0  0  0  0  0  0  0
   -5.9563    4.7080  -37.5902 C   0  0  0  0  0  0  0  0  0  0  0  0
   -6.8149    5.8913  -34.1744 C   0  0  0  0  0  0  0  0  0  0  0  0
   -6.9111    3.8434  -35.4369 N   0  0  0  0  0  0  0  0  0  0  0  0
   -5.4952    4.8260  -38.8575 N   0  0  0  0  0  0  0  0  0  0  0  0
   -6.5536    3.2389  -36.9432 S   0  0  0  0  0  0  0  0  0  0  0  0
   -5.7274    6.7095  -36.7533 H   0  0  0  0  0  0  0  0  0  0  0  0
   -7.8225    6.3365  -34.1624 H   0  0  0  0  0  0  0  0  0  0  0  0
   -6.7183    5.2523  -33.2809 H   0  0  0  0  0  0  0  0  0  0  0  0
   -6.0844    6.7076  -34.0476 H   0  0  0  0  0  0  0  0  0  0  0  0
   -5.1851    5.7282  -39.2424 H   0  0  0  0  0  0  0  0  0  0  0  0
   -5.5221    4.0408  -39.5218 H   0  0  0  0  0  0  0  0  0  0  0  0
  1  2  1  0  0  0  0
  1  3  2  0  0  0  0
  2  4  1  0  0  0  0
  2  5  2  0  0  0  0
  3  6  1  0  0  0  0
  3  7  1  0  0  0  0
  5  7  1  0  0  0  0
  1  8  1  0  0  0  0
  4  9  1  0  0  0  0
  4 10  1  0  0  0  0
  4 11  1  0  0  0  0
  6 12  1  0  0  0  0
  6 13  1  0  0  0  0
M  END
> <id>
EN300-57685

> <smiles>
CC=1C=C(N)SN1

> <MDLNUMBER>
MFCD00044520

> <IUPAC Name>
3-methyl-1,2-thiazol-5-amine

> <CAS>
24340-76-9

> <Purity>
95

> <URL>
https://www.enaminestore.com/catalog/EN300-57685

> <MP>
52-53

> <ROCS_ShapeQuery>
_hit0

> <ROCS_TanimotoCombo>
1.095 

> <ROCS_ShapeTanimoto>
0.502 

> <ROCS_ColorTanimoto>
0.594 

> <ROCS_RefTversky>
1.115 

> <ROCS_RefColorTversky>
0.745 

> <ROCS_RefTverskyCombo>
1.860 

> <ROCS_FitTversky>
0.477 

> <ROCS_FitColorTversky>
0.745 

> <ROCS_FitTverskyCombo>
1.222 

> <ROCS_ColorScore>
-2.980

> <ROCS_Overlap>
130.628

> <ROCS_Rank>
45                  

$$$$
untitled-dbase-593_0
  -OEChem-06232314393D

 13 13  0     0  0  0  0  0  0999 V2000
   -6.0377    5.6811  -36.6180 C   0  0  0  0  0  0  0  0  0  0  0  0
   -6.5847    5.1336  -35.4224 C   0  0  0  0  0  0  0  0  0  0  0  0
   -5.9563    4.7080  -37.5902 C   0  0  0  0  0  0  0  0  0  0  0  0
   -6.8149    5.8913  -34.1744 C   0  0  0  0  0  0  0  0  0  0  0  0
   -6.9111    3.8434  -35.4369 N   0  0  0  0  0  0  0  0  0  0  0  0
   -5.4952    4.8260  -38.8575 N   0  0  0  0  0  0  0  0  0  0  0  0
   -6.5536    3.2389  -36.9432 S   0  0  0  0  0  0  0  0  0  0  0  0
   -5.7274    6.7095  -36.7533 H   0  0  0  0  0  0  0  0  0  0  0  0
   -7.8225    6.3365  -34.1624 H   0  0  0  0  0  0  0  0  0  0  0  0
   -6.7183    5.2523  -33.2809 H   0  0  0  0  0  0  0  0  0  0  0  0
   -6.0844    6.7076  -34.0476 H   0  0  0  0  0  0  0  0  0  0  0  0
   -5.1851    5.7282  -39.2424 H   0  0  0  0  0  0  0  0  0  0  0  0
   -5.5221    4.0408  -39.5218 H   0  0  0  0  0  0  0  0  0  0  0  0
  1  2  1  0  0  0  0
  1  3  2  0  0  0  0
  2  4  1  0  0  0  0
  2  5  2  0  0  0  0
  3  6  1  0  0  0  0
  3  7  1  0  0  0  0
  5  7  1  0  0  0  0
  1  8  1  0  0  0  0
  4  9  1  0  0  0  0
  4 10  1  0  0  0  0
  4 11  1  0  0  0  0
  6 12  1  0  0  0  0
  6 13  1  0  0  0  0
M  END
> <id>
EN300-25458

> <smiles>
Cl.CC=1C=C(N)SN1

> <MDLNUMBER>
MFCD00012716

> <IUPAC Name>
3-methyl-1,2-thiazol-5-amine hydrochloride

> <CAS>
52547-00-9

> <Purity>
91

> <URL>
https://www.enaminestore.com/catalog/EN300-25458

> <Saltdate>
Cl

> <MP>
238-240

> <ROCS_ShapeQuery>
_hit0

> <ROCS_TanimotoCombo>
1.095 

> <ROCS_ShapeTanimoto>
0.502 

> <ROCS_ColorTanimoto>
0.594 

> <ROCS_RefTversky>
1.115 

> <ROCS_RefColorTversky>
0.745 

> <ROCS_RefTverskyCombo>
1.860 

> <ROCS_FitTversky>
0.477 

> <ROCS_FitColorTversky>
0.745 

> <ROCS_FitTverskyCombo>
1.222 

> <ROCS_ColorScore>
-2.980

> <ROCS_Overlap>
130.628

> <ROCS_Rank>
46                  

$$$$
untitled-dbase-29705_0
  -OEChem-06232314393D

 13 13  0     0  0  0  0  0  0999 V2000
   -6.4253    3.7948  -36.8088 C   0  0  0  0  0  0  0  0  0  0  0  0
   -6.8752    4.9896  -34.8988 C   0  0  0  0  0  0  0  0  0  0  0  0
   -5.9668    4.9223  -37.4708 C   0  0  0  0  0  0  0  0  0  0  0  0
   -6.4376    6.1731  -35.4712 C   0  0  0  0  0  0  0  0  0  0  0  0
   -5.9763    6.1302  -36.7822 C   0  0  0  0  0  0  0  0  0  0  0  0
   -6.8808    3.7973  -35.5360 N   0  0  0  0  0  0  0  0  0  0  0  0
   -5.5142    4.8174  -38.7990 N   0  0  0  0  0  0  0  0  0  0  0  0
   -6.4648    7.3138  -34.7705 F   0  0  0  0  0  0  0  0  0  0  0  0
   -5.4231    7.5895  -37.5213 Cl  0  0  0  0  0  0  0  0  0  0  0  0
   -6.4433    2.8229  -37.2927 H   0  0  0  0  0  0  0  0  0  0  0  0
   -7.2439    4.9702  -33.8785 H   0  0  0  0  0  0  0  0  0  0  0  0
   -5.4839    3.9177  -39.2380 H   0  0  0  0  0  0  0  0  0  0  0  0
   -5.1403    5.6266  -39.2556 H   0  0  0  0  0  0  0  0  0  0  0  0
  1  3  2  0  0  0  0
  1  6  1  0  0  0  0
  2  4  1  0  0  0  0
  2  6  2  0  0  0  0
  3  5  1  0  0  0  0
  3  7  1  0  0  0  0
  4  5  2  0  0  0  0
  4  8  1  0  0  0  0
  5  9  1  0  0  0  0
  1 10  1  0  0  0  0
  2 11  1  0  0  0  0
  7 12  1  0  0  0  0
  7 13  1  0  0  0  0
M  END
> <id>
EN300-6479948

> <smiles>
NC=1C=NC=C(F)C1Cl

> <MDLNUMBER>
MFCD22547082

> <IUPAC Name>
4-chloro-5-fluoropyridin-3-amine

> <CAS>
1393570-52-9

> <Purity>
95

> <URL>
https://www.enaminestore.com/catalog/EN300-6479948

> <ROCS_ShapeQuery>
_hit0

> <ROCS_TanimotoCombo>
1.092 

> <ROCS_ShapeTanimoto>
0.492 

> <ROCS_ColorTanimoto>
0.600 

> <ROCS_RefTversky>
1.333 

> <ROCS_RefColorTversky>
0.750 

> <ROCS_RefTverskyCombo>
2.083 

> <ROCS_FitTversky>
0.438 

> <ROCS_FitColorTversky>
0.750 

> <ROCS_FitTverskyCombo>
1.188 

> <ROCS_ColorScore>
-3.000

> <ROCS_Overlap>
163.017

> <ROCS_Rank>
47                  

$$$$
untitled-dbase-6885_0
  -OEChem-06232314393D

 13 13  0     0  0  0  0  0  0999 V2000
   -6.4675    3.6478  -36.8568 C   0  0  0  0  0  0  0  0  0  0  0  0
   -5.9784    4.7494  -37.5271 C   0  0  0  0  0  0  0  0  0  0  0  0
   -6.6869    5.1316  -35.2567 C   0  0  0  0  0  0  0  0  0  0  0  0
   -7.0048    5.7388  -33.9461 C   0  0  0  0  0  0  0  0  0  0  0  0
   -6.8739    3.8649  -35.5547 N   0  0  0  0  0  0  0  0  0  0  0  0
   -5.5170    4.8077  -38.7988 N   0  0  0  0  0  0  0  0  0  0  0  0
   -6.0263    6.1186  -36.4954 S   0  0  0  0  0  0  0  0  0  0  0  0
   -6.5500    2.6512  -37.2709 H   0  0  0  0  0  0  0  0  0  0  0  0
   -6.1408    5.6827  -33.2656 H   0  0  0  0  0  0  0  0  0  0  0  0
   -7.2901    6.7991  -34.0430 H   0  0  0  0  0  0  0  0  0  0  0  0
   -7.8543    5.2358  -33.4556 H   0  0  0  0  0  0  0  0  0  0  0  0
   -5.4488    3.9701  -39.3919 H   0  0  0  0  0  0  0  0  0  0  0  0
   -5.1266    5.6722  -39.1967 H   0  0  0  0  0  0  0  0  0  0  0  0
  1  2  2  0  0  0  0
  1  5  1  0  0  0  0
  2  6  1  0  0  0  0
  2  7  1  0  0  0  0
  3  4  1  0  0  0  0
  3  5  2  0  0  0  0
  3  7  1  0  0  0  0
  1  8  1  0  0  0  0
  4  9  1  0  0  0  0
  4 10  1  0  0  0  0
  4 11  1  0  0  0  0
  6 12  1  0  0  0  0
  6 13  1  0  0  0  0
M  END
> <id>
EN300-94702

> <smiles>
CC1=NC=C(N)S1

> <MDLNUMBER>
MFCD11847087

> <IUPAC Name>
2-methyl-1,3-thiazol-5-amine

> <CAS>
89281-44-7

> <Purity>
95

> <URL>
https://www.enaminestore.com/catalog/EN300-94702

> <MP>
107-112

> <ROCS_ShapeQuery>
_hit0

> <ROCS_TanimotoCombo>
1.092 

> <ROCS_ShapeTanimoto>
0.493 

> <ROCS_ColorTanimoto>
0.599 

> <ROCS_RefTversky>
1.101 

> <ROCS_RefColorTversky>
0.749 

> <ROCS_RefTverskyCombo>
1.851 

> <ROCS_FitTversky>
0.472 

> <ROCS_FitColorTversky>
0.749 

> <ROCS_FitTverskyCombo>
1.221 

> <ROCS_ColorScore>
-2.996

> <ROCS_Overlap>
129.032

> <ROCS_Rank>
48                  

$$$$
untitled-dbase-44095_0
  -OEChem-06232314393D

 13 13  0     0  0  0  0  0  0999 V2000
   -6.4847    3.6646  -36.8258 C   0  0  0  0  0  0  0  0  0  0  0  0
   -5.9613    4.8058  -37.4982 C   0  0  0  0  0  0  0  0  0  0  0  0
   -5.9650    5.8953  -36.6544 C   0  0  0  0  0  0  0  0  0  0  0  0
   -5.5295    7.2884  -36.8756 C   0  0  0  0  0  0  0  0  0  0  0  0
   -6.8703    3.8256  -35.5622 N   0  0  0  0  0  0  0  0  0  0  0  0
   -5.5261    4.8138  -38.7780 N   0  0  0  0  0  0  0  0  0  0  0  0
   -6.6027    5.4107  -35.1404 S   0  0  0  0  0  0  0  0  0  0  0  0
   -6.5975    2.6755  -37.2499 H   0  0  0  0  0  0  0  0  0  0  0  0
   -6.3583    7.9079  -37.2554 H   0  0  0  0  0  0  0  0  0  0  0  0
   -5.1575    7.7575  -35.9490 H   0  0  0  0  0  0  0  0  0  0  0  0
   -4.7023    7.3525  -37.6031 H   0  0  0  0  0  0  0  0  0  0  0  0
   -5.1989    5.6749  -39.2385 H   0  0  0  0  0  0  0  0  0  0  0  0
   -5.5892    3.9819  -39.3816 H   0  0  0  0  0  0  0  0  0  0  0  0
  1  2  1  0  0  0  0
  1  5  2  0  0  0  0
  2  3  2  0  0  0  0
  2  6  1  0  0  0  0
  3  4  1  0  0  0  0
  3  7  1  0  0  0  0
  5  7  1  0  0  0  0
  1  8  1  0  0  0  0
  4  9  1  0  0  0  0
  4 10  1  0  0  0  0
  4 11  1  0  0  0  0
  6 12  1  0  0  0  0
  6 13  1  0  0  0  0
M  END
> <id>
EN300-27748550

> <smiles>
Cl.CC=1SN=CC1N

> <MDLNUMBER>
MFCD33550327

> <IUPAC Name>
5-methyl-1,2-thiazol-4-amine hydrochloride

> <CAS>
2624121-64-6

> <Purity>
95

> <URL>
https://www.enaminestore.com/catalog/EN300-27748550

> <ROCS_ShapeQuery>
_hit0

> <ROCS_TanimotoCombo>
1.091 

> <ROCS_ShapeTanimoto>
0.492 

> <ROCS_ColorTanimoto>
0.599 

> <ROCS_RefTversky>
1.102 

> <ROCS_RefColorTversky>
0.749 

> <ROCS_RefTverskyCombo>
1.851 

> <ROCS_FitTversky>
0.471 

> <ROCS_FitColorTversky>
0.749 

> <ROCS_FitTverskyCombo>
1.220 

> <ROCS_ColorScore>
-2.998

> <ROCS_Overlap>
129.075

> <ROCS_Rank>
49                  

$$$$
untitled-dbase-44178_0
  -OEChem-06232314393D

 13 13  0     0  0  0  0  0  0999 V2000
   -6.4847    3.6646  -36.8258 C   0  0  0  0  0  0  0  0  0  0  0  0
   -5.9613    4.8058  -37.4982 C   0  0  0  0  0  0  0  0  0  0  0  0
   -5.9650    5.8953  -36.6544 C   0  0  0  0  0  0  0  0  0  0  0  0
   -5.5295    7.2884  -36.8756 C   0  0  0  0  0  0  0  0  0  0  0  0
   -6.8703    3.8256  -35.5622 N   0  0  0  0  0  0  0  0  0  0  0  0
   -5.5261    4.8138  -38.7780 N   0  0  0  0  0  0  0  0  0  0  0  0
   -6.6027    5.4107  -35.1404 S   0  0  0  0  0  0  0  0  0  0  0  0
   -6.5975    2.6755  -37.2499 H   0  0  0  0  0  0  0  0  0  0  0  0
   -6.3583    7.9079  -37.2554 H   0  0  0  0  0  0  0  0  0  0  0  0
   -5.1575    7.7575  -35.9490 H   0  0  0  0  0  0  0  0  0  0  0  0
   -4.7023    7.3525  -37.6031 H   0  0  0  0  0  0  0  0  0  0  0  0
   -5.1989    5.6749  -39.2385 H   0  0  0  0  0  0  0  0  0  0  0  0
   -5.5892    3.9819  -39.3816 H   0  0  0  0  0  0  0  0  0  0  0  0
  1  2  1  0  0  0  0
  1  5  2  0  0  0  0
  2  3  2  0  0  0  0
  2  6  1  0  0  0  0
  3  4  1  0  0  0  0
  3  7  1  0  0  0  0
  5  7  1  0  0  0  0
  1  8  1  0  0  0  0
  4  9  1  0  0  0  0
  4 10  1  0  0  0  0
  4 11  1  0  0  0  0
  6 12  1  0  0  0  0
  6 13  1  0  0  0  0
M  END
> <id>
EN300-199947

> <smiles>
CC=1SN=CC1N

> <MDLNUMBER>
MFCD16038722

> <IUPAC Name>
5-methyl-1,2-thiazol-4-amine

> <CAS>
89281-43-6

> <URL>
https://www.enaminestore.com/catalog/EN300-199947

> <ROCS_ShapeQuery>
_hit0

> <ROCS_TanimotoCombo>
1.091 

> <ROCS_ShapeTanimoto>
0.492 

> <ROCS_ColorTanimoto>
0.599 

> <ROCS_RefTversky>
1.102 

> <ROCS_RefColorTversky>
0.749 

> <ROCS_RefTverskyCombo>
1.851 

> <ROCS_FitTversky>
0.471 

> <ROCS_FitColorTversky>
0.749 

> <ROCS_FitTverskyCombo>
1.220 

> <ROCS_ColorScore>
-2.998

> <ROCS_Overlap>
129.075

> <ROCS_Rank>
50                  

$$$$
untitled-dbase-9449_0
  -OEChem-06232314393D

 10 10  0     0  0  0  0  0  0999 V2000
   -6.0455    5.6659  -36.6051 C   0  0  0  0  0  0  0  0  0  0  0  0
   -6.5955    5.1054  -35.4169 C   0  0  0  0  0  0  0  0  0  0  0  0
   -5.9615    4.7033  -37.5876 C   0  0  0  0  0  0  0  0  0  0  0  0
   -6.9217    3.8155  -35.4461 N   0  0  0  0  0  0  0  0  0  0  0  0
   -5.4953    4.8345  -38.8515 N   0  0  0  0  0  0  0  0  0  0  0  0
   -6.5603    3.2273  -36.9579 S   0  0  0  0  0  0  0  0  0  0  0  0
   -5.7363    6.6960  -36.7245 H   0  0  0  0  0  0  0  0  0  0  0  0
   -6.7712    5.6387  -34.4926 H   0  0  0  0  0  0  0  0  0  0  0  0
   -5.1825    5.7405  -39.2254 H   0  0  0  0  0  0  0  0  0  0  0  0
   -5.5206    4.0567  -39.5247 H   0  0  0  0  0  0  0  0  0  0  0  0
  1  2  1  0  0  0  0
  1  3  2  0  0  0  0
  2  4  2  0  0  0  0
  3  5  1  0  0  0  0
  3  6  1  0  0  0  0
  4  6  1  0  0  0  0
  1  7  1  0  0  0  0
  2  8  1  0  0  0  0
  5  9  1  0  0  0  0
  5 10  1  0  0  0  0
M  END
> <id>
EN300-321353

> <smiles>
Cl.NC1=CC=NS1

> <MDLNUMBER>
MFCD29761129

> <IUPAC Name>
1,2-thiazol-5-amine hydrochloride

> <CAS>
92815-50-4

> <Purity>
95

> <URL>
https://www.enaminestore.com/catalog/EN300-321353

> <Saltdate>
Cl

> <MP>
129-130

> <ROCS_ShapeQuery>
_hit0

> <ROCS_TanimotoCombo>
1.091 

> <ROCS_ShapeTanimoto>
0.497 

> <ROCS_ColorTanimoto>
0.595 

> <ROCS_RefTversky>
1.000 

> <ROCS_RefColorTversky>
0.746 

> <ROCS_RefTverskyCombo>
1.746 

> <ROCS_FitTversky>
0.495 

> <ROCS_FitColorTversky>
0.746 

> <ROCS_FitTverskyCombo>
1.241 

> <ROCS_ColorScore>
-2.983

> <ROCS_Overlap>
115.651

> <ROCS_Rank>
51                  

$$$$
untitled-dbase-25977_0
  -OEChem-06232314393D

 10 10  0     0  0  0  0  0  0999 V2000
   -6.0455    5.6659  -36.6051 C   0  0  0  0  0  0  0  0  0  0  0  0
   -6.5955    5.1054  -35.4169 C   0  0  0  0  0  0  0  0  0  0  0  0
   -5.9615    4.7033  -37.5876 C   0  0  0  0  0  0  0  0  0  0  0  0
   -6.9217    3.8155  -35.4461 N   0  0  0  0  0  0  0  0  0  0  0  0
   -5.4953    4.8345  -38.8515 N   0  0  0  0  0  0  0  0  0  0  0  0
   -6.5603    3.2273  -36.9579 S   0  0  0  0  0  0  0  0  0  0  0  0
   -5.7363    6.6960  -36.7245 H   0  0  0  0  0  0  0  0  0  0  0  0
   -6.7712    5.6387  -34.4926 H   0  0  0  0  0  0  0  0  0  0  0  0
   -5.1825    5.7405  -39.2254 H   0  0  0  0  0  0  0  0  0  0  0  0
   -5.5206    4.0567  -39.5247 H   0  0  0  0  0  0  0  0  0  0  0  0
  1  2  1  0  0  0  0
  1  3  2  0  0  0  0
  2  4  2  0  0  0  0
  3  5  1  0  0  0  0
  3  6  1  0  0  0  0
  4  6  1  0  0  0  0
  1  7  1  0  0  0  0
  2  8  1  0  0  0  0
  5  9  1  0  0  0  0
  5 10  1  0  0  0  0
M  END
> <id>
EN300-120928

> <smiles>
NC1=CC=NS1

> <MDLNUMBER>
MFCD18821782

> <IUPAC Name>
1,2-thiazol-5-amine

> <CAS>
82357-92-4

> <URL>
https://www.enaminestore.com/catalog/EN300-120928

> <ROCS_ShapeQuery>
_hit0

> <ROCS_TanimotoCombo>
1.091 

> <ROCS_ShapeTanimoto>
0.497 

> <ROCS_ColorTanimoto>
0.595 

> <ROCS_RefTversky>
1.000 

> <ROCS_RefColorTversky>
0.746 

> <ROCS_RefTverskyCombo>
1.746 

> <ROCS_FitTversky>
0.495 

> <ROCS_FitColorTversky>
0.746 

> <ROCS_FitTverskyCombo>
1.241 

> <ROCS_ColorScore>
-2.983

> <ROCS_Overlap>
115.651

> <ROCS_Rank>
52                  

$$$$
untitled-dbase-50356_0
  -OEChem-06232314393D

 17 18  0     0  0  0  0  0  0999 V2000
   -7.2396    5.1217  -33.5171 C   0  0  0  0  0  0  0  0  0  0  0  0
   -5.9029    6.0864  -36.7150 C   0  0  0  0  0  0  0  0  0  0  0  0
   -6.4627    3.7597  -36.8170 C   0  0  0  0  0  0  0  0  0  0  0  0
   -6.9804    6.4536  -33.2804 C   0  0  0  0  0  0  0  0  0  0  0  0
   -6.8541    4.8498  -34.8530 C   0  0  0  0  0  0  0  0  0  0  0  0
   -6.3647    6.0340  -35.4007 C   0  0  0  0  0  0  0  0  0  0  0  0
   -5.9610    4.8972  -37.4349 C   0  0  0  0  0  0  0  0  0  0  0  0
   -6.9162    3.6837  -35.5452 N   0  0  0  0  0  0  0  0  0  0  0  0
   -6.4522    6.9958  -34.4241 N   0  0  0  0  0  0  0  0  0  0  0  0
   -5.5167    4.8494  -38.7696 N   0  0  0  0  0  0  0  0  0  0  0  0
   -7.6594    4.4263  -32.8038 H   0  0  0  0  0  0  0  0  0  0  0  0
   -5.5215    7.0053  -37.1469 H   0  0  0  0  0  0  0  0  0  0  0  0
   -6.5179    2.8188  -37.3597 H   0  0  0  0  0  0  0  0  0  0  0  0
   -7.1243    7.0650  -32.4007 H   0  0  0  0  0  0  0  0  0  0  0  0
   -6.1692    7.9602  -34.5315 H   0  0  0  0  0  0  0  0  0  0  0  0
   -5.2018    5.6905  -39.2124 H   0  0  0  0  0  0  0  0  0  0  0  0
   -5.6095    3.9973  -39.2873 H   0  0  0  0  0  0  0  0  0  0  0  0
  1  4  2  0  0  0  0
  1  5  1  0  0  0  0
  2  6  2  0  0  0  0
  2  7  1  0  0  0  0
  3  7  2  0  0  0  0
  3  8  1  0  0  0  0
  4  9  1  0  0  0  0
  5  6  1  0  0  0  0
  5  8  2  0  0  0  0
  6  9  1  0  0  0  0
  7 10  1  0  0  0  0
  1 11  1  0  0  0  0
  2 12  1  0  0  0  0
  3 13  1  0  0  0  0
  4 14  1  0  0  0  0
  9 15  1  0  0  0  0
 10 16  1  0  0  0  0
 10 17  1  0  0  0  0
M  END
> <id>
EN300-2983347

> <smiles>
NC=1C=NC=2C=CNC2C1

> <MDLNUMBER>
MFCD09859118

> <IUPAC Name>
1H-pyrrolo[3,2-b]pyridin-6-amine

> <CAS>
1015609-67-2

> <Purity>
95

> <URL>
https://www.enaminestore.com/catalog/EN300-2983347

> <ROCS_ShapeQuery>
_hit0

> <ROCS_TanimotoCombo>
1.090 

> <ROCS_ShapeTanimoto>
0.437 

> <ROCS_ColorTanimoto>
0.654 

> <ROCS_RefTversky>
1.379 

> <ROCS_RefColorTversky>
0.966 

> <ROCS_RefTverskyCombo>
2.345 

> <ROCS_FitTversky>
0.390 

> <ROCS_FitColorTversky>
0.669 

> <ROCS_FitTverskyCombo>
1.059 

> <ROCS_ColorScore>
-3.962

> <ROCS_Overlap>
174.140

> <ROCS_Rank>
53                  

$$$$
untitled-dbase-32578_0
  -OEChem-06232314393D

 13 13  0     0  0  0  0  0  0999 V2000
   -5.9426    6.1124  -36.7895 C   0  0  0  0  0  0  0  0  0  0  0  0
   -6.4378    3.7863  -36.8112 C   0  0  0  0  0  0  0  0  0  0  0  0
   -5.9621    4.9042  -37.4774 C   0  0  0  0  0  0  0  0  0  0  0  0
   -6.3931    6.1651  -35.4751 C   0  0  0  0  0  0  0  0  0  0  0  0
   -6.8497    4.9907  -34.8987 C   0  0  0  0  0  0  0  0  0  0  0  0
   -6.8837    3.7984  -35.5350 N   0  0  0  0  0  0  0  0  0  0  0  0
   -5.5136    4.8198  -38.8055 N   0  0  0  0  0  0  0  0  0  0  0  0
   -6.3612    7.6702  -34.6393 Cl  0  0  0  0  0  0  0  0  0  0  0  0
   -7.4366    4.9046  -33.2816 Cl  0  0  0  0  0  0  0  0  0  0  0  0
   -5.5753    7.0096  -37.2829 H   0  0  0  0  0  0  0  0  0  0  0  0
   -6.4775    2.8152  -37.2956 H   0  0  0  0  0  0  0  0  0  0  0  0
   -5.2181    5.6519  -39.2809 H   0  0  0  0  0  0  0  0  0  0  0  0
   -5.5818    3.9471  -39.2950 H   0  0  0  0  0  0  0  0  0  0  0  0
  1  3  1  0  0  0  0
  1  4  2  0  0  0  0
  2  3  2  0  0  0  0
  2  6  1  0  0  0  0
  3  7  1  0  0  0  0
  4  5  1  0  0  0  0
  4  8  1  0  0  0  0
  5  6  2  0  0  0  0
  5  9  1  0  0  0  0
  1 10  1  0  0  0  0
  2 11  1  0  0  0  0
  7 12  1  0  0  0  0
  7 13  1  0  0  0  0
M  END
> <id>
EN300-93603

> <smiles>
NC=1C=NC(Cl)=C(Cl)C1

> <MDLNUMBER>
MFCD03840434

> <IUPAC Name>
5,6-dichloropyridin-3-amine

> <CAS>
98121-41-6

> <Purity>
95

> <URL>
https://www.enaminestore.com/catalog/EN300-93603

> <MP>
107-112

> <ROCS_ShapeQuery>
_hit0

> <ROCS_TanimotoCombo>
1.089 

> <ROCS_ShapeTanimoto>
0.490 

> <ROCS_ColorTanimoto>
0.600 

> <ROCS_RefTversky>
1.301 

> <ROCS_RefColorTversky>
0.750 

> <ROCS_RefTverskyCombo>
2.051 

> <ROCS_FitTversky>
0.440 

> <ROCS_FitColorTversky>
0.750 

> <ROCS_FitTverskyCombo>
1.190 

> <ROCS_ColorScore>
-3.000

> <ROCS_Overlap>
158.389

> <ROCS_Rank>
54                  

$$$$
untitled-dbase-3661_0
  -OEChem-06232314393D

 12 11  0     0  0  0  0  0  0999 V2000
   -6.4257    4.9612  -35.5429 C   0  0  0  0  0  0  0  0  0  0  0  0
   -6.2710    4.4716  -36.6286 C   0  0  0  0  0  0  0  0  0  0  0  0
   -6.6139    5.5552  -34.2199 C   0  0  0  0  0  0  0  0  0  0  0  0
   -6.0842    3.8738  -37.9501 C   0  0  0  0  0  0  0  0  0  0  0  0
   -6.5116    6.9692  -34.3107 O   0  0  0  0  0  0  0  0  0  0  0  0
   -5.5007    4.8258  -38.8284 O   0  0  0  0  0  0  0  0  0  0  0  0
   -5.8511    5.1964  -33.5223 H   0  0  0  0  0  0  0  0  0  0  0  0
   -7.6007    5.3039  -33.8194 H   0  0  0  0  0  0  0  0  0  0  0  0
   -7.0432    3.5563  -38.3705 H   0  0  0  0  0  0  0  0  0  0  0  0
   -5.4223    3.0043  -37.8919 H   0  0  0  0  0  0  0  0  0  0  0  0
   -5.6236    7.1652  -34.6514 H   0  0  0  0  0  0  0  0  0  0  0  0
   -6.1140    5.5772  -38.8756 H   0  0  0  0  0  0  0  0  0  0  0  0
  1  2  3  0  0  0  0
  1  3  1  0  0  0  0
  2  4  1  0  0  0  0
  3  5  1  0  0  0  0
  4  6  1  0  0  0  0
  3  7  1  0  0  0  0
  3  8  1  0  0  0  0
  4  9  1  0  0  0  0
  4 10  1  0  0  0  0
  5 11  1  0  0  0  0
  6 12  1  0  0  0  0
M  END
> <id>
EN300-19323

> <smiles>
OCC#CCO

> <MDLNUMBER>
MFCD00002915

> <IUPAC Name>
but-2-yne-1,4-diol

> <CAS>
110-65-6

> <Purity>
95

> <URL>
https://www.enaminestore.com/catalog/EN300-19323

> <MP>
54-58

> <ROCS_ShapeQuery>
_hit0

> <ROCS_TanimotoCombo>
1.089 

> <ROCS_ShapeTanimoto>
0.491 

> <ROCS_ColorTanimoto>
0.598 

> <ROCS_RefTversky>
0.951 

> <ROCS_RefColorTversky>
0.749 

> <ROCS_RefTverskyCombo>
1.699 

> <ROCS_FitTversky>
0.504 

> <ROCS_FitColorTversky>
0.749 

> <ROCS_FitTverskyCombo>
1.252 

> <ROCS_ColorScore>
-2.994

> <ROCS_Overlap>
108.433

> <ROCS_Rank>
55                  

$$$$
untitled-dbase-29024_0
  -OEChem-06232314393D

 12 12  0     0  0  0  0  0  0999 V2000
   -5.9717    6.1267  -36.8432 C   0  0  0  0  0  0  0  0  0  0  0  0
   -6.4122    3.7895  -36.8291 C   0  0  0  0  0  0  0  0  0  0  0  0
   -5.9589    4.9072  -37.5111 C   0  0  0  0  0  0  0  0  0  0  0  0
   -6.4308    6.1903  -35.5323 C   0  0  0  0  0  0  0  0  0  0  0  0
   -6.8632    5.0152  -34.9390 C   0  0  0  0  0  0  0  0  0  0  0  0
   -6.8656    3.8122  -35.5557 N   0  0  0  0  0  0  0  0  0  0  0  0
   -5.5167    4.8148  -38.7896 O   0  0  0  0  0  0  0  0  0  0  0  0
   -6.4390    7.7094  -34.7218 Cl  0  0  0  0  0  0  0  0  0  0  0  0
   -7.4573    4.9420  -33.3240 Cl  0  0  0  0  0  0  0  0  0  0  0  0
   -5.6218    7.0211  -37.3532 H   0  0  0  0  0  0  0  0  0  0  0  0
   -6.4246    2.8121  -37.3010 H   0  0  0  0  0  0  0  0  0  0  0  0
   -5.2365    5.6861  -39.1177 H   0  0  0  0  0  0  0  0  0  0  0  0
  1  3  1  0  0  0  0
  1  4  2  0  0  0  0
  2  3  2  0  0  0  0
  2  6  1  0  0  0  0
  3  7  1  0  0  0  0
  4  5  1  0  0  0  0
  4  8  1  0  0  0  0
  5  6  2  0  0  0  0
  5  9  1  0  0  0  0
  1 10  1  0  0  0  0
  2 11  1  0  0  0  0
  7 12  1  0  0  0  0
M  END
> <id>
EN300-179790

> <smiles>
OC=1C=NC(Cl)=C(Cl)C1

> <MDLNUMBER>
MFCD09835219

> <IUPAC Name>
5,6-dichloropyridin-3-ol

> <CAS>
110860-92-9

> <Purity>
95

> <URL>
https://www.enaminestore.com/catalog/EN300-179790

> <ROCS_ShapeQuery>
_hit0

> <ROCS_TanimotoCombo>
1.088 

> <ROCS_ShapeTanimoto>
0.489 

> <ROCS_ColorTanimoto>
0.600 

> <ROCS_RefTversky>
1.304 

> <ROCS_RefColorTversky>
0.750 

> <ROCS_RefTverskyCombo>
2.053 

> <ROCS_FitTversky>
0.439 

> <ROCS_FitColorTversky>
0.750 

> <ROCS_FitTverskyCombo>
1.189 

> <ROCS_ColorScore>
-2.999

> <ROCS_Overlap>
158.772

> <ROCS_Rank>
56                  

$$$$
untitled-dbase-24270_0
  -OEChem-06232314393D

 16 17  0     0  0  0  0  0  0999 V2000
   -7.2333    5.1171  -33.5400 C   0  0  0  0  0  0  0  0  0  0  0  0
   -5.8966    6.0852  -36.7369 C   0  0  0  0  0  0  0  0  0  0  0  0
   -6.4540    3.7581  -36.8406 C   0  0  0  0  0  0  0  0  0  0  0  0
   -6.9755    6.4492  -33.3025 C   0  0  0  0  0  0  0  0  0  0  0  0
   -6.8472    4.8465  -34.8760 C   0  0  0  0  0  0  0  0  0  0  0  0
   -6.3587    6.0315  -35.4228 C   0  0  0  0  0  0  0  0  0  0  0  0
   -5.9533    4.8964  -37.4576 C   0  0  0  0  0  0  0  0  0  0  0  0
   -6.9078    3.6807  -35.5689 N   0  0  0  0  0  0  0  0  0  0  0  0
   -6.4475    6.9926  -34.4456 N   0  0  0  0  0  0  0  0  0  0  0  0
   -5.5246    4.8519  -38.7459 O   0  0  0  0  0  0  0  0  0  0  0  0
   -7.6531    4.4207  -32.8276 H   0  0  0  0  0  0  0  0  0  0  0  0
   -5.5152    7.0024  -37.1710 H   0  0  0  0  0  0  0  0  0  0  0  0
   -6.5065    2.8199  -37.3877 H   0  0  0  0  0  0  0  0  0  0  0  0
   -7.1202    7.0595  -32.4222 H   0  0  0  0  0  0  0  0  0  0  0  0
   -6.1652    7.9572  -34.5525 H   0  0  0  0  0  0  0  0  0  0  0  0
   -5.2059    5.7253  -39.0275 H   0  0  0  0  0  0  0  0  0  0  0  0
  1  4  2  0  0  0  0
  1  5  1  0  0  0  0
  2  6  2  0  0  0  0
  2  7  1  0  0  0  0
  3  7  2  0  0  0  0
  3  8  1  0  0  0  0
  4  9  1  0  0  0  0
  5  6  1  0  0  0  0
  5  8  2  0  0  0  0
  6  9  1  0  0  0  0
  7 10  1  0  0  0  0
  1 11  1  0  0  0  0
  2 12  1  0  0  0  0
  3 13  1  0  0  0  0
  4 14  1  0  0  0  0
  9 15  1  0  0  0  0
 10 16  1  0  0  0  0
M  END
> <id>
EN300-380914

> <smiles>
OC=1C=NC=2C=CNC2C1

> <MDLNUMBER>
MFCD09859113

> <IUPAC Name>
1H-pyrrolo[3,2-b]pyridin-6-ol

> <CAS>
1015609-35-4

> <Purity>
95

> <URL>
https://www.enaminestore.com/catalog/EN300-380914

> <ROCS_ShapeQuery>
_hit0

> <ROCS_TanimotoCombo>
1.088 

> <ROCS_ShapeTanimoto>
0.437 

> <ROCS_ColorTanimoto>
0.651 

> <ROCS_RefTversky>
1.384 

> <ROCS_RefColorTversky>
0.964 

> <ROCS_RefTverskyCombo>
2.347 

> <ROCS_FitTversky>
0.390 

> <ROCS_FitColorTversky>
0.668 

> <ROCS_FitTverskyCombo>
1.057 

> <ROCS_ColorScore>
-3.952

> <ROCS_Overlap>
174.799

> <ROCS_Rank>
57                  

$$$$
untitled-dbase-4174_3
  -OEChem-06232314393D

 14 14  0     1  0  0  0  0  0999 V2000
   -6.1157    5.8309  -36.6616 C   0  0  0  0  0  0  0  0  0  0  0  0
   -6.5127    5.2236  -35.3348 C   0  0  0  0  0  0  0  0  0  0  0  0
   -6.4176    3.5190  -36.9184 C   0  0  0  0  0  0  0  0  0  0  0  0
   -5.5134    4.6454  -37.3739 C   0  0  1  0  0  0  0  0  0  0  0  0
   -6.8587    3.8549  -35.5956 O   0  0  0  0  0  0  0  0  0  0  0  0
   -5.5297    4.8121  -38.7749 O   0  0  0  0  0  0  0  0  0  0  0  0
   -6.9676    6.2811  -37.1764 H   0  0  0  0  0  0  0  0  0  0  0  0
   -5.3489    6.5962  -36.5006 H   0  0  0  0  0  0  0  0  0  0  0  0
   -5.7088    5.2644  -34.5953 H   0  0  0  0  0  0  0  0  0  0  0  0
   -7.3961    5.7172  -34.9170 H   0  0  0  0  0  0  0  0  0  0  0  0
   -7.2937    3.3781  -37.5580 H   0  0  0  0  0  0  0  0  0  0  0  0
   -5.8673    2.5752  -36.8462 H   0  0  0  0  0  0  0  0  0  0  0  0
   -4.4507    4.4700  -37.0664 H   0  0  0  0  0  0  0  0  0  0  0  0
   -5.0099    5.6088  -38.9662 H   0  0  0  0  0  0  0  0  0  0  0  0
  1  2  1  0  0  0  0
  1  4  1  0  0  0  0
  2  5  1  0  0  0  0
  3  4  1  0  0  0  0
  3  5  1  0  0  0  0
  4  6  1  1  0  0  0
  1  7  1  0  0  0  0
  1  8  1  0  0  0  0
  2  9  1  0  0  0  0
  2 10  1  0  0  0  0
  3 11  1  0  0  0  0
  3 12  1  0  0  0  0
  4 13  1  0  0  0  0
  6 14  1  0  0  0  0
M  END
> <id>
EN300-172677

> <smiles>
O[C@H]1CCOC1

> <MDLNUMBER>
MFCD00064327

> <IUPAC Name>
(3S)-oxolan-3-ol

> <CAS>
86087-23-2

> <Purity>
95

> <URL>
https://www.enaminestore.com/catalog/EN300-172677

> <ROCS_ShapeQuery>
_hit0

> <ROCS_TanimotoCombo>
1.088 

> <ROCS_ShapeTanimoto>
0.491 

> <ROCS_ColorTanimoto>
0.597 

> <ROCS_RefTversky>
1.012 

> <ROCS_RefColorTversky>
0.748 

> <ROCS_RefTverskyCombo>
1.760 

> <ROCS_FitTversky>
0.488 

> <ROCS_FitColorTversky>
0.748 

> <ROCS_FitTverskyCombo>
1.236 

> <ROCS_ColorScore>
-2.992

> <ROCS_Overlap>
116.725

> <ROCS_Rank>
58                  

$$$$
untitled-dbase-28589_3
  -OEChem-06232314393D

 14 14  0     1  0  0  0  0  0999 V2000
   -5.8195    5.7566  -36.5470 C   0  0  0  0  0  0  0  0  0  0  0  0
   -6.5886    5.2448  -35.3499 C   0  0  0  0  0  0  0  0  0  0  0  0
   -6.5677    3.5745  -36.9724 C   0  0  0  0  0  0  0  0  0  0  0  0
   -6.3869    4.9111  -37.6605 C   0  0  2  0  0  0  0  0  0  0  0  0
   -6.8569    3.8562  -35.5960 O   0  0  0  0  0  0  0  0  0  0  0  0
   -5.5134    4.8112  -38.7642 O   0  0  0  0  0  0  0  0  0  0  0  0
   -6.0651    6.8098  -36.7187 H   0  0  0  0  0  0  0  0  0  0  0  0
   -4.7403    5.6581  -36.4114 H   0  0  0  0  0  0  0  0  0  0  0  0
   -5.9943    5.3120  -34.4331 H   0  0  0  0  0  0  0  0  0  0  0  0
   -7.5295    5.7791  -35.1950 H   0  0  0  0  0  0  0  0  0  0  0  0
   -7.4288    3.0343  -37.3801 H   0  0  0  0  0  0  0  0  0  0  0  0
   -5.6827    2.9336  -37.0230 H   0  0  0  0  0  0  0  0  0  0  0  0
   -7.3627    5.3120  -38.0371 H   0  0  0  0  0  0  0  0  0  0  0  0
   -5.3690    5.7147  -39.0871 H   0  0  0  0  0  0  0  0  0  0  0  0
  1  2  1  0  0  0  0
  1  4  1  0  0  0  0
  2  5  1  0  0  0  0
  3  4  1  0  0  0  0
  3  5  1  0  0  0  0
  4  6  1  6  0  0  0
  1  7  1  0  0  0  0
  1  8  1  0  0  0  0
  2  9  1  0  0  0  0
  2 10  1  0  0  0  0
  3 11  1  0  0  0  0
  3 12  1  0  0  0  0
  4 13  1  0  0  0  0
  6 14  1  0  0  0  0
M  END
> <id>
EN300-94223

> <smiles>
O[C@@H]1CCOC1

> <MDLNUMBER>
MFCD00067101

> <IUPAC Name>
(3R)-oxolan-3-ol

> <CAS>
86087-24-3

> <Purity>
95

> <URL>
https://www.enaminestore.com/catalog/EN300-94223

> <ROCS_ShapeQuery>
_hit0

> <ROCS_TanimotoCombo>
1.088 

> <ROCS_ShapeTanimoto>
0.491 

> <ROCS_ColorTanimoto>
0.597 

> <ROCS_RefTversky>
1.012 

> <ROCS_RefColorTversky>
0.748 

> <ROCS_RefTverskyCombo>
1.760 

> <ROCS_FitTversky>
0.488 

> <ROCS_FitColorTversky>
0.748 

> <ROCS_FitTverskyCombo>
1.235 

> <ROCS_ColorScore>
-2.991

> <ROCS_Overlap>
116.749

> <ROCS_Rank>
59                  

$$$$
untitled-dbase-6929_3
  -OEChem-06232314393D

 14 14  0     1  0  0  0  0  0999 V2000
   -5.8196    5.7568  -36.5472 C   0  0  0  0  0  0  0  0  0  0  0  0
   -6.5884    5.2449  -35.3500 C   0  0  0  0  0  0  0  0  0  0  0  0
   -6.5673    3.5745  -36.9724 C   0  0  0  0  0  0  0  0  0  0  0  0
   -6.3869    4.9110  -37.6606 C   0  0  2  0  0  0  0  0  0  0  0  0
   -6.8569    3.8562  -35.5960 O   0  0  0  0  0  0  0  0  0  0  0  0
   -5.5134    4.8112  -38.7642 O   0  0  0  0  0  0  0  0  0  0  0  0
   -6.0654    6.8100  -36.7190 H   0  0  0  0  0  0  0  0  0  0  0  0
   -4.7403    5.6586  -36.4118 H   0  0  0  0  0  0  0  0  0  0  0  0
   -5.9939    5.3120  -34.4333 H   0  0  0  0  0  0  0  0  0  0  0  0
   -7.5293    5.7791  -35.1946 H   0  0  0  0  0  0  0  0  0  0  0  0
   -7.4281    3.0337  -37.3801 H   0  0  0  0  0  0  0  0  0  0  0  0
   -5.6819    2.9340  -37.0226 H   0  0  0  0  0  0  0  0  0  0  0  0
   -7.3629    5.3116  -38.0372 H   0  0  0  0  0  0  0  0  0  0  0  0
   -5.3692    5.7147  -39.0872 H   0  0  0  0  0  0  0  0  0  0  0  0
  1  2  1  0  0  0  0
  1  4  1  0  0  0  0
  2  5  1  0  0  0  0
  3  4  1  0  0  0  0
  3  5  1  0  0  0  0
  4  6  1  0  0  0  0
  1  7  1  0  0  0  0
  1  8  1  0  0  0  0
  2  9  1  0  0  0  0
  2 10  1  0  0  0  0
  3 11  1  0  0  0  0
  3 12  1  0  0  0  0
  4 13  1  0  0  0  0
  6 14  1  0  0  0  0
M  END
> <id>
EN300-70362

> <smiles>
OC1CCOC1

> <MDLNUMBER>
MFCD00005374

> <IUPAC Name>
oxolan-3-ol

> <CAS>
453-20-3

> <Purity>
95

> <URL>
https://www.enaminestore.com/catalog/EN300-70362

> <ROCS_ShapeQuery>
_hit0

> <ROCS_TanimotoCombo>
1.088 

> <ROCS_ShapeTanimoto>
0.491 

> <ROCS_ColorTanimoto>
0.597 

> <ROCS_RefTversky>
1.012 

> <ROCS_RefColorTversky>
0.748 

> <ROCS_RefTverskyCombo>
1.760 

> <ROCS_FitTversky>
0.488 

> <ROCS_FitColorTversky>
0.748 

> <ROCS_FitTverskyCombo>
1.235 

> <ROCS_ColorScore>
-2.991

> <ROCS_Overlap>
116.751

> <ROCS_Rank>
60                  

$$$$
untitled-dbase-51857_0
  -OEChem-06232314393D

 15 15  0     0  0  0  0  0  0999 V2000
   -6.4215    3.7853  -36.8350 C   0  0  0  0  0  0  0  0  0  0  0  0
   -6.8615    4.9865  -34.9267 C   0  0  0  0  0  0  0  0  0  0  0  0
   -5.9611    6.1186  -36.8145 C   0  0  0  0  0  0  0  0  0  0  0  0
   -5.9589    4.9092  -37.5005 C   0  0  0  0  0  0  0  0  0  0  0  0
   -6.4194    6.1666  -35.5026 C   0  0  0  0  0  0  0  0  0  0  0  0
   -5.4764    7.3681  -37.4714 C   0  0  0  0  0  0  0  0  0  0  0  0
   -6.8743    3.7928  -35.5613 N   0  0  0  0  0  0  0  0  0  0  0  0
   -5.5209    4.8152  -38.7817 O   0  0  0  0  0  0  0  0  0  0  0  0
   -6.4367    7.3120  -34.8102 F   0  0  0  0  0  0  0  0  0  0  0  0
   -6.4426    2.8149  -37.3212 H   0  0  0  0  0  0  0  0  0  0  0  0
   -7.2288    4.9708  -33.9059 H   0  0  0  0  0  0  0  0  0  0  0  0
   -6.3043    7.8776  -37.9785 H   0  0  0  0  0  0  0  0  0  0  0  0
   -5.0384    8.0579  -36.7390 H   0  0  0  0  0  0  0  0  0  0  0  0
   -4.6952    7.1507  -38.2109 H   0  0  0  0  0  0  0  0  0  0  0  0
   -5.5913    3.8993  -39.0989 H   0  0  0  0  0  0  0  0  0  0  0  0
  1  4  1  0  0  0  0
  1  7  2  0  0  0  0
  2  5  2  0  0  0  0
  2  7  1  0  0  0  0
  3  4  2  0  0  0  0
  3  5  1  0  0  0  0
  3  6  1  0  0  0  0
  4  8  1  0  0  0  0
  5  9  1  0  0  0  0
  1 10  1  0  0  0  0
  2 11  1  0  0  0  0
  6 12  1  0  0  0  0
  6 13  1  0  0  0  0
  6 14  1  0  0  0  0
  8 15  1  0  0  0  0
M  END
> <id>
EN300-6746610

> <smiles>
CC=1C(O)=CN=CC1F

> <MDLNUMBER>
MFCD28361169

> <IUPAC Name>
5-fluoro-4-methylpyridin-3-ol

> <URL>
https://www.enaminestore.com/catalog/EN300-6746610

> <ROCS_ShapeQuery>
_hit0

> <ROCS_TanimotoCombo>
1.087 

> <ROCS_ShapeTanimoto>
0.488 

> <ROCS_ColorTanimoto>
0.599 

> <ROCS_RefTversky>
1.344 

> <ROCS_RefColorTversky>
0.750 

> <ROCS_RefTverskyCombo>
2.093 

> <ROCS_FitTversky>
0.433 

> <ROCS_FitColorTversky>
0.750 

> <ROCS_FitTverskyCombo>
1.183 

> <ROCS_ColorScore>
-2.998

> <ROCS_Overlap>
164.964

> <ROCS_Rank>
61                  

$$$$
untitled-dbase-2128_0
  -OEChem-06232314393D

 16 16  0     0  0  0  0  0  0999 V2000
   -5.9410    6.1162  -36.7949 C   0  0  0  0  0  0  0  0  0  0  0  0
   -6.4339    3.7895  -36.8094 C   0  0  0  0  0  0  0  0  0  0  0  0
   -6.3913    6.1725  -35.4806 C   0  0  0  0  0  0  0  0  0  0  0  0
   -5.9594    4.9059  -37.4791 C   0  0  0  0  0  0  0  0  0  0  0  0
   -6.8466    4.9995  -34.9005 C   0  0  0  0  0  0  0  0  0  0  0  0
   -6.3697    7.4718  -34.7512 C   0  0  0  0  0  0  0  0  0  0  0  0
   -6.8796    3.8052  -35.5332 N   0  0  0  0  0  0  0  0  0  0  0  0
   -5.5110    4.8180  -38.8070 N   0  0  0  0  0  0  0  0  0  0  0  0
   -7.4284    4.9409  -33.2829 Cl  0  0  0  0  0  0  0  0  0  0  0  0
   -5.5758    7.0155  -37.2855 H   0  0  0  0  0  0  0  0  0  0  0  0
   -6.4726    2.8170  -37.2908 H   0  0  0  0  0  0  0  0  0  0  0  0
   -7.3149    8.0094  -34.8982 H   0  0  0  0  0  0  0  0  0  0  0  0
   -6.2192    7.3228  -33.6737 H   0  0  0  0  0  0  0  0  0  0  0  0
   -5.5484    8.1122  -35.0999 H   0  0  0  0  0  0  0  0  0  0  0  0
   -5.4901    3.9250  -39.2632 H   0  0  0  0  0  0  0  0  0  0  0  0
   -5.1284    5.6304  -39.2537 H   0  0  0  0  0  0  0  0  0  0  0  0
  1  3  2  0  0  0  0
  1  4  1  0  0  0  0
  2  4  2  0  0  0  0
  2  7  1  0  0  0  0
  3  5  1  0  0  0  0
  3  6  1  0  0  0  0
  4  8  1  0  0  0  0
  5  7  2  0  0  0  0
  5  9  1  0  0  0  0
  1 10  1  0  0  0  0
  2 11  1  0  0  0  0
  6 12  1  0  0  0  0
  6 13  1  0  0  0  0
  6 14  1  0  0  0  0
  8 15  1  0  0  0  0
  8 16  1  0  0  0  0
M  END
> <id>
EN300-88328

> <smiles>
CC=1C=C(N)C=NC1Cl

> <MDLNUMBER>
MFCD03095087

> <IUPAC Name>
6-chloro-5-methylpyridin-3-amine

> <CAS>
38186-82-2

> <Purity>
95

> <URL>
https://www.enaminestore.com/catalog/EN300-88328

> <MP>
93-98

> <ROCS_ShapeQuery>
_hit0

> <ROCS_TanimotoCombo>
1.087 

> <ROCS_ShapeTanimoto>
0.487 

> <ROCS_ColorTanimoto>
0.600 

> <ROCS_RefTversky>
1.311 

> <ROCS_RefColorTversky>
0.750 

> <ROCS_RefTverskyCombo>
2.061 

> <ROCS_FitTversky>
0.436 

> <ROCS_FitColorTversky>
0.750 

> <ROCS_FitTverskyCombo>
1.186 

> <ROCS_ColorScore>
-3.000

> <ROCS_Overlap>
159.976

> <ROCS_Rank>
62                  

$$$$
untitled-dbase-17518_0
  -OEChem-06232314393D

 16 16  0     0  0  0  0  0  0999 V2000
   -5.9515    6.1172  -36.7990 C   0  0  0  0  0  0  0  0  0  0  0  0
   -6.4313    3.7877  -36.8093 C   0  0  0  0  0  0  0  0  0  0  0  0
   -5.9620    4.9053  -37.4806 C   0  0  0  0  0  0  0  0  0  0  0  0
   -6.4043    6.1736  -35.4856 C   0  0  0  0  0  0  0  0  0  0  0  0
   -6.8539    4.9993  -34.9037 C   0  0  0  0  0  0  0  0  0  0  0  0
   -7.3535    4.9840  -33.4955 C   0  0  0  0  0  0  0  0  0  0  0  0
   -6.8791    3.8035  -35.5339 N   0  0  0  0  0  0  0  0  0  0  0  0
   -5.5106    4.8167  -38.8073 N   0  0  0  0  0  0  0  0  0  0  0  0
   -6.3899    7.6744  -34.6443 Cl  0  0  0  0  0  0  0  0  0  0  0  0
   -5.5897    7.0145  -37.2958 H   0  0  0  0  0  0  0  0  0  0  0  0
   -6.4639    2.8137  -37.2887 H   0  0  0  0  0  0  0  0  0  0  0  0
   -8.4318    5.1782  -33.4737 H   0  0  0  0  0  0  0  0  0  0  0  0
   -7.1624    4.0151  -33.0185 H   0  0  0  0  0  0  0  0  0  0  0  0
   -6.8481    5.7448  -32.8882 H   0  0  0  0  0  0  0  0  0  0  0  0
   -5.2195    5.6482  -39.2867 H   0  0  0  0  0  0  0  0  0  0  0  0
   -5.5722    3.9410  -39.2924 H   0  0  0  0  0  0  0  0  0  0  0  0
  1  3  1  0  0  0  0
  1  4  2  0  0  0  0
  2  3  2  0  0  0  0
  2  7  1  0  0  0  0
  3  8  1  0  0  0  0
  4  5  1  0  0  0  0
  4  9  1  0  0  0  0
  5  6  1  0  0  0  0
  5  7  2  0  0  0  0
  1 10  1  0  0  0  0
  2 11  1  0  0  0  0
  6 12  1  0  0  0  0
  6 13  1  0  0  0  0
  6 14  1  0  0  0  0
  8 15  1  0  0  0  0
  8 16  1  0  0  0  0
M  END
> <id>
EN300-222444

> <smiles>
CC=1N=CC(N)=CC1Cl

> <MDLNUMBER>
MFCD11040270

> <IUPAC Name>
5-chloro-6-methylpyridin-3-amine

> <CAS>
896161-13-0

> <Purity>
95

> <URL>
https://www.enaminestore.com/catalog/EN300-222444

> <ROCS_ShapeQuery>
_hit0

> <ROCS_TanimotoCombo>
1.085 

> <ROCS_ShapeTanimoto>
0.486 

> <ROCS_ColorTanimoto>
0.600 

> <ROCS_RefTversky>
1.309 

> <ROCS_RefColorTversky>
0.750 

> <ROCS_RefTverskyCombo>
2.059 

> <ROCS_FitTversky>
0.436 

> <ROCS_FitColorTversky>
0.750 

> <ROCS_FitTverskyCombo>
1.186 

> <ROCS_ColorScore>
-3.000

> <ROCS_Overlap>
159.776

> <ROCS_Rank>
63                  

$$$$
untitled-dbase-37769_0
  -OEChem-06232314393D

 10 10  0     0  0  0  0  0  0999 V2000
   -6.4932    3.6549  -36.8708 C   0  0  0  0  0  0  0  0  0  0  0  0
   -5.9593    4.7455  -37.5249 C   0  0  0  0  0  0  0  0  0  0  0  0
   -6.6106    5.1108  -35.2347 C   0  0  0  0  0  0  0  0  0  0  0  0
   -6.8668    3.8624  -35.5574 N   0  0  0  0  0  0  0  0  0  0  0  0
   -5.5173    4.8099  -38.8032 N   0  0  0  0  0  0  0  0  0  0  0  0
   -6.8743    5.5932  -34.0122 F   0  0  0  0  0  0  0  0  0  0  0  0
   -5.9205    6.0913  -36.4625 S   0  0  0  0  0  0  0  0  0  0  0  0
   -6.6346    2.6740  -37.3057 H   0  0  0  0  0  0  0  0  0  0  0  0
   -5.5026    3.9840  -39.4162 H   0  0  0  0  0  0  0  0  0  0  0  0
   -5.0896    5.6623  -39.1886 H   0  0  0  0  0  0  0  0  0  0  0  0
  1  2  2  0  0  0  0
  1  4  1  0  0  0  0
  2  5  1  0  0  0  0
  2  7  1  0  0  0  0
  3  4  2  0  0  0  0
  3  6  1  0  0  0  0
  3  7  1  0  0  0  0
  1  8  1  0  0  0  0
  5  9  1  0  0  0  0
  5 10  1  0  0  0  0
M  END
> <id>
EN300-1294565

> <smiles>
NC1=CN=C(F)S1

> <MDLNUMBER>
MFCD22648277

> <IUPAC Name>
2-fluoro-1,3-thiazol-5-amine

> <CAS>
1210907-99-5

> <URL>
https://www.enaminestore.com/catalog/EN300-1294565

> <ROCS_ShapeQuery>
_hit0

> <ROCS_TanimotoCombo>
1.085 

> <ROCS_ShapeTanimoto>
0.486 

> <ROCS_ColorTanimoto>
0.599 

> <ROCS_RefTversky>
1.101 

> <ROCS_RefColorTversky>
0.749 

> <ROCS_RefTverskyCombo>
1.850 

> <ROCS_FitTversky>
0.465 

> <ROCS_FitColorTversky>
0.749 

> <ROCS_FitTverskyCombo>
1.214 

> <ROCS_ColorScore>
-2.996

> <ROCS_Overlap>
129.248

> <ROCS_Rank>
64                  

$$$$
untitled-dbase-18734_0
  -OEChem-06232314393D

 15 15  0     0  0  0  0  0  0999 V2000
   -5.8838    6.1051  -36.8113 C   0  0  0  0  0  0  0  0  0  0  0  0
   -6.4320    3.7910  -36.8374 C   0  0  0  0  0  0  0  0  0  0  0  0
   -6.3241    6.1634  -35.4937 C   0  0  0  0  0  0  0  0  0  0  0  0
   -5.9355    4.9001  -37.5030 C   0  0  0  0  0  0  0  0  0  0  0  0
   -6.8034    4.9977  -34.9181 C   0  0  0  0  0  0  0  0  0  0  0  0
   -6.2669    7.4571  -34.7560 C   0  0  0  0  0  0  0  0  0  0  0  0
   -6.8689    3.8088  -35.5582 N   0  0  0  0  0  0  0  0  0  0  0  0
   -5.5135    4.8136  -38.7887 O   0  0  0  0  0  0  0  0  0  0  0  0
   -7.3762    4.9431  -33.2973 Cl  0  0  0  0  0  0  0  0  0  0  0  0
   -5.5003    6.9961  -37.3020 H   0  0  0  0  0  0  0  0  0  0  0  0
   -6.4959    2.8250  -37.3283 H   0  0  0  0  0  0  0  0  0  0  0  0
   -7.2001    8.0178  -34.8932 H   0  0  0  0  0  0  0  0  0  0  0  0
   -6.1130    7.2973  -33.6805 H   0  0  0  0  0  0  0  0  0  0  0  0
   -5.4330    8.0800  -35.1061 H   0  0  0  0  0  0  0  0  0  0  0  0
   -5.1973    5.6776  -39.1032 H   0  0  0  0  0  0  0  0  0  0  0  0
  1  3  2  0  0  0  0
  1  4  1  0  0  0  0
  2  4  2  0  0  0  0
  2  7  1  0  0  0  0
  3  5  1  0  0  0  0
  3  6  1  0  0  0  0
  4  8  1  0  0  0  0
  5  7  2  0  0  0  0
  5  9  1  0  0  0  0
  1 10  1  0  0  0  0
  2 11  1  0  0  0  0
  6 12  1  0  0  0  0
  6 13  1  0  0  0  0
  6 14  1  0  0  0  0
  8 15  1  0  0  0  0
M  END
> <id>
EN300-316792

> <smiles>
CC=1C=C(O)C=NC1Cl

> <MDLNUMBER>
MFCD11519295

> <IUPAC Name>
6-chloro-5-methylpyridin-3-ol

> <CAS>
54232-03-0

> <Purity>
95

> <URL>
https://www.enaminestore.com/catalog/EN300-316792

> <MP>
128-130

> <ROCS_ShapeQuery>
_hit0

> <ROCS_TanimotoCombo>
1.085 

> <ROCS_ShapeTanimoto>
0.485 

> <ROCS_ColorTanimoto>
0.600 

> <ROCS_RefTversky>
1.312 

> <ROCS_RefColorTversky>
0.750 

> <ROCS_RefTverskyCombo>
2.061 

> <ROCS_FitTversky>
0.435 

> <ROCS_FitColorTversky>
0.750 

> <ROCS_FitTverskyCombo>
1.185 

> <ROCS_ColorScore>
-2.999

> <ROCS_Overlap>
160.191

> <ROCS_Rank>
65                  

$$$$
untitled-dbase-44845_0
  -OEChem-06232314393D

 13 13  0     0  0  0  0  0  0999 V2000
   -6.4959    3.5316  -36.8660 C   0  0  0  0  0  0  0  0  0  0  0  0
   -5.9971    4.6221  -37.5343 C   0  0  0  0  0  0  0  0  0  0  0  0
   -6.5516    5.1634  -35.5404 C   0  0  0  0  0  0  0  0  0  0  0  0
   -6.7065    6.0991  -34.4164 C   0  0  0  0  0  0  0  0  0  0  0  0
   -6.8493    3.8846  -35.5887 N   0  0  0  0  0  0  0  0  0  0  0  0
   -5.5209    4.8070  -38.7799 N   0  0  0  0  0  0  0  0  0  0  0  0
   -6.0288    5.6855  -36.6836 O   0  0  0  0  0  0  0  0  0  0  0  0
   -6.6169    2.5212  -37.2281 H   0  0  0  0  0  0  0  0  0  0  0  0
   -5.8014    6.1225  -33.7843 H   0  0  0  0  0  0  0  0  0  0  0  0
   -6.8996    7.1334  -34.7556 H   0  0  0  0  0  0  0  0  0  0  0  0
   -7.5586    5.8333  -33.7641 H   0  0  0  0  0  0  0  0  0  0  0  0
   -5.4260    4.0316  -39.4553 H   0  0  0  0  0  0  0  0  0  0  0  0
   -5.1378    5.7128  -39.0952 H   0  0  0  0  0  0  0  0  0  0  0  0
  1  2  2  0  0  0  0
  1  5  1  0  0  0  0
  2  6  1  0  0  0  0
  2  7  1  0  0  0  0
  3  4  1  0  0  0  0
  3  5  2  0  0  0  0
  3  7  1  0  0  0  0
  1  8  1  0  0  0  0
  4  9  1  0  0  0  0
  4 10  1  0  0  0  0
  4 11  1  0  0  0  0
  6 12  1  0  0  0  0
  6 13  1  0  0  0  0
M  END
> <id>
EN300-7169100

> <smiles>
CC1=NC=C(N)O1

> <MDLNUMBER>
MFCD11878423

> <IUPAC Name>
2-methyl-1,3-oxazol-5-amine

> <CAS>
153138-07-9

> <URL>
https://www.enaminestore.com/catalog/EN300-7169100

> <ROCS_ShapeQuery>
_hit0

> <ROCS_TanimotoCombo>
1.085 

> <ROCS_ShapeTanimoto>
0.488 

> <ROCS_ColorTanimoto>
0.596 

> <ROCS_RefTversky>
1.156 

> <ROCS_RefColorTversky>
0.747 

> <ROCS_RefTverskyCombo>
1.904 

> <ROCS_FitTversky>
0.458 

> <ROCS_FitColorTversky>
0.747 

> <ROCS_FitTverskyCombo>
1.205 

> <ROCS_ColorScore>
-2.989

> <ROCS_Overlap>
137.028

> <ROCS_Rank>
66                  

$$$$
untitled-dbase-46962_0
  -OEChem-06232314393D

 13 13  0     0  0  0  0  0  0999 V2000
   -5.9674    6.1069  -36.8050 C   0  0  0  0  0  0  0  0  0  0  0  0
   -6.8718    5.0009  -34.9036 C   0  0  0  0  0  0  0  0  0  0  0  0
   -5.9725    4.8898  -37.4774 C   0  0  0  0  0  0  0  0  0  0  0  0
   -6.4239    6.1720  -35.4933 C   0  0  0  0  0  0  0  0  0  0  0  0
   -6.4403    3.7761  -36.7988 C   0  0  0  0  0  0  0  0  0  0  0  0
   -6.8918    3.8003  -35.5247 N   0  0  0  0  0  0  0  0  0  0  0  0
   -5.5110    4.8213  -38.8048 N   0  0  0  0  0  0  0  0  0  0  0  0
   -6.4343    7.6553  -34.6324 Cl  0  0  0  0  0  0  0  0  0  0  0  0
   -6.4970    2.2129  -37.5177 Cl  0  0  0  0  0  0  0  0  0  0  0  0
   -5.6072    7.0036  -37.3048 H   0  0  0  0  0  0  0  0  0  0  0  0
   -7.2410    4.9859  -33.8827 H   0  0  0  0  0  0  0  0  0  0  0  0
   -5.2262    5.6615  -39.2699 H   0  0  0  0  0  0  0  0  0  0  0  0
   -5.5617    3.9510  -39.2980 H   0  0  0  0  0  0  0  0  0  0  0  0
  1  3  2  0  0  0  0
  1  4  1  0  0  0  0
  2  4  2  0  0  0  0
  2  6  1  0  0  0  0
  3  5  1  0  0  0  0
  3  7  1  0  0  0  0
  4  8  1  0  0  0  0
  5  6  2  0  0  0  0
  5  9  1  0  0  0  0
  1 10  1  0  0  0  0
  2 11  1  0  0  0  0
  7 12  1  0  0  0  0
  7 13  1  0  0  0  0
M  END
> <id>
EN300-233341

> <smiles>
Cl.NC=1C=C(Cl)C=NC1Cl

> <MDLNUMBER>
MFCD26521928

> <IUPAC Name>
2,5-dichloropyridin-3-amine hydrochloride

> <CAS>
1955557-10-4

> <URL>
https://www.enaminestore.com/catalog/EN300-233341

> <Saltdate>
Cl

> <ROCS_ShapeQuery>
_hit0

> <ROCS_TanimotoCombo>
1.084 

> <ROCS_ShapeTanimoto>
0.484 

> <ROCS_ColorTanimoto>
0.600 

> <ROCS_RefTversky>
1.293 

> <ROCS_RefColorTversky>
0.750 

> <ROCS_RefTverskyCombo>
2.042 

> <ROCS_FitTversky>
0.436 

> <ROCS_FitColorTversky>
0.750 

> <ROCS_FitTverskyCombo>
1.186 

> <ROCS_ColorScore>
-2.999

> <ROCS_Overlap>
157.349

> <ROCS_Rank>
67                  

$$$$
untitled-dbase-5929_0
  -OEChem-06232314393D

 13 13  0     0  0  0  0  0  0999 V2000
   -5.9674    6.1069  -36.8050 C   0  0  0  0  0  0  0  0  0  0  0  0
   -6.8718    5.0009  -34.9036 C   0  0  0  0  0  0  0  0  0  0  0  0
   -5.9725    4.8898  -37.4774 C   0  0  0  0  0  0  0  0  0  0  0  0
   -6.4239    6.1720  -35.4933 C   0  0  0  0  0  0  0  0  0  0  0  0
   -6.4403    3.7761  -36.7988 C   0  0  0  0  0  0  0  0  0  0  0  0
   -6.8918    3.8003  -35.5247 N   0  0  0  0  0  0  0  0  0  0  0  0
   -5.5110    4.8213  -38.8048 N   0  0  0  0  0  0  0  0  0  0  0  0
   -6.4343    7.6553  -34.6324 Cl  0  0  0  0  0  0  0  0  0  0  0  0
   -6.4970    2.2129  -37.5177 Cl  0  0  0  0  0  0  0  0  0  0  0  0
   -5.6072    7.0036  -37.3048 H   0  0  0  0  0  0  0  0  0  0  0  0
   -7.2410    4.9859  -33.8827 H   0  0  0  0  0  0  0  0  0  0  0  0
   -5.2262    5.6615  -39.2699 H   0  0  0  0  0  0  0  0  0  0  0  0
   -5.5617    3.9510  -39.2980 H   0  0  0  0  0  0  0  0  0  0  0  0
  1  3  2  0  0  0  0
  1  4  1  0  0  0  0
  2  4  2  0  0  0  0
  2  6  1  0  0  0  0
  3  5  1  0  0  0  0
  3  7  1  0  0  0  0
  4  8  1  0  0  0  0
  5  6  2  0  0  0  0
  5  9  1  0  0  0  0
  1 10  1  0  0  0  0
  2 11  1  0  0  0  0
  7 12  1  0  0  0  0
  7 13  1  0  0  0  0
M  END
> <id>
EN300-170502

> <smiles>
NC=1C=C(Cl)C=NC1Cl

> <MDLNUMBER>
MFCD00204157

> <IUPAC Name>
2,5-dichloropyridin-3-amine

> <CAS>
78607-32-6

> <Purity>
95

> <URL>
https://www.enaminestore.com/catalog/EN300-170502

> <MP>
124-129

> <ROCS_ShapeQuery>
_hit0

> <ROCS_TanimotoCombo>
1.084 

> <ROCS_ShapeTanimoto>
0.484 

> <ROCS_ColorTanimoto>
0.600 

> <ROCS_RefTversky>
1.293 

> <ROCS_RefColorTversky>
0.750 

> <ROCS_RefTverskyCombo>
2.042 

> <ROCS_FitTversky>
0.436 

> <ROCS_FitColorTversky>
0.750 

> <ROCS_FitTverskyCombo>
1.186 

> <ROCS_ColorScore>
-2.999

> <ROCS_Overlap>
157.349

> <ROCS_Rank>
68                  

$$$$
untitled-dbase-11970_0
  -OEChem-06232314393D

 12 12  0     0  0  0  0  0  0999 V2000
   -6.5054    3.5127  -36.8756 C   0  0  0  0  0  0  0  0  0  0  0  0
   -5.9925    4.5886  -37.5568 C   0  0  0  0  0  0  0  0  0  0  0  0
   -6.5258    5.1572  -35.5647 C   0  0  0  0  0  0  0  0  0  0  0  0
   -6.6607    6.1063  -34.4492 C   0  0  0  0  0  0  0  0  0  0  0  0
   -6.8450    3.8832  -35.5995 N   0  0  0  0  0  0  0  0  0  0  0  0
   -6.0014    5.6601  -36.7158 O   0  0  0  0  0  0  0  0  0  0  0  0
   -5.5212    4.8048  -38.7703 O   0  0  0  0  0  0  0  0  0  0  0  0
   -6.6470    2.5026  -37.2300 H   0  0  0  0  0  0  0  0  0  0  0  0
   -5.7528    6.1205  -33.8208 H   0  0  0  0  0  0  0  0  0  0  0  0
   -6.8377    7.1402  -34.7978 H   0  0  0  0  0  0  0  0  0  0  0  0
   -7.5146    5.8610  -33.7914 H   0  0  0  0  0  0  0  0  0  0  0  0
   -5.2331    5.7380  -38.9030 H   0  0  0  0  0  0  0  0  0  0  0  0
  1  2  2  0  0  0  0
  1  5  1  0  0  0  0
  2  6  1  0  0  0  0
  2  7  1  0  0  0  0
  3  4  1  0  0  0  0
  3  5  2  0  0  0  0
  3  6  1  0  0  0  0
  1  8  1  0  0  0  0
  4  9  1  0  0  0  0
  4 10  1  0  0  0  0
  4 11  1  0  0  0  0
  7 12  1  0  0  0  0
M  END
> <id>
EN300-696264

> <smiles>
CC1=NC=C(O)O1

> <MDLNUMBER>
MFCD28661804

> <IUPAC Name>
2-methyl-1,3-oxazol-5-ol

> <CAS>
936332-31-9

> <Purity>
95

> <URL>
https://www.enaminestore.com/catalog/EN300-696264

> <MP>
33-35

> <ROCS_ShapeQuery>
_hit0

> <ROCS_TanimotoCombo>
1.083 

> <ROCS_ShapeTanimoto>
0.487 

> <ROCS_ColorTanimoto>
0.596 

> <ROCS_RefTversky>
1.157 

> <ROCS_RefColorTversky>
0.747 

> <ROCS_RefTverskyCombo>
1.904 

> <ROCS_FitTversky>
0.457 

> <ROCS_FitColorTversky>
0.747 

> <ROCS_FitTverskyCombo>
1.203 

> <ROCS_ColorScore>
-2.987

> <ROCS_Overlap>
137.150

> <ROCS_Rank>
69                  

$$$$
untitled-dbase-20433_0
  -OEChem-06232314393D

 13 13  0     0  0  0  0  0  0999 V2000
   -5.9433    6.1157  -36.7932 C   0  0  0  0  0  0  0  0  0  0  0  0
   -6.4348    3.7888  -36.8078 C   0  0  0  0  0  0  0  0  0  0  0  0
   -5.9607    4.9054  -37.4773 C   0  0  0  0  0  0  0  0  0  0  0  0
   -6.3941    6.1718  -35.4791 C   0  0  0  0  0  0  0  0  0  0  0  0
   -6.8489    4.9985  -34.8991 C   0  0  0  0  0  0  0  0  0  0  0  0
   -6.8810    3.8042  -35.5318 N   0  0  0  0  0  0  0  0  0  0  0  0
   -5.5114    4.8178  -38.8048 N   0  0  0  0  0  0  0  0  0  0  0  0
   -6.3832    7.3301  -34.8076 F   0  0  0  0  0  0  0  0  0  0  0  0
   -7.4241    4.9680  -33.2824 Cl  0  0  0  0  0  0  0  0  0  0  0  0
   -5.5806    7.0202  -37.2741 H   0  0  0  0  0  0  0  0  0  0  0  0
   -6.4728    2.8161  -37.2890 H   0  0  0  0  0  0  0  0  0  0  0  0
   -5.2168    5.6491  -39.2825 H   0  0  0  0  0  0  0  0  0  0  0  0
   -5.5779    3.9437  -39.2921 H   0  0  0  0  0  0  0  0  0  0  0  0
  1  3  1  0  0  0  0
  1  4  2  0  0  0  0
  2  3  2  0  0  0  0
  2  6  1  0  0  0  0
  3  7  1  0  0  0  0
  4  5  1  0  0  0  0
  4  8  1  0  0  0  0
  5  6  2  0  0  0  0
  5  9  1  0  0  0  0
  1 10  1  0  0  0  0
  2 11  1  0  0  0  0
  7 12  1  0  0  0  0
  7 13  1  0  0  0  0
M  END
> <id>
EN300-117894

> <smiles>
NC=1C=NC(Cl)=C(F)C1

> <MDLNUMBER>
MFCD18257897

> <IUPAC Name>
6-chloro-5-fluoropyridin-3-amine

> <CAS>
1256806-83-3

> <Purity>
95

> <URL>
https://www.enaminestore.com/catalog/EN300-117894

> <ROCS_ShapeQuery>
_hit0

> <ROCS_TanimotoCombo>
1.083 

> <ROCS_ShapeTanimoto>
0.483 

> <ROCS_ColorTanimoto>
0.600 

> <ROCS_RefTversky>
1.315 

> <ROCS_RefColorTversky>
0.750 

> <ROCS_RefTverskyCombo>
2.065 

> <ROCS_FitTversky>
0.433 

> <ROCS_FitColorTversky>
0.750 

> <ROCS_FitTverskyCombo>
1.183 

> <ROCS_ColorScore>
-3.000

> <ROCS_Overlap>
160.844

> <ROCS_Rank>
70                  

$$$$
untitled-dbase-38024_0
  -OEChem-06232314393D

 13 13  0     0  0  0  0  0  0999 V2000
   -5.9699    6.1186  -36.8110 C   0  0  0  0  0  0  0  0  0  0  0  0
   -6.4266    3.7845  -36.8108 C   0  0  0  0  0  0  0  0  0  0  0  0
   -5.9661    4.9032  -37.4863 C   0  0  0  0  0  0  0  0  0  0  0  0
   -6.4275    6.1774  -35.4994 C   0  0  0  0  0  0  0  0  0  0  0  0
   -6.8675    5.0018  -34.9128 C   0  0  0  0  0  0  0  0  0  0  0  0
   -6.8788    3.8025  -35.5369 N   0  0  0  0  0  0  0  0  0  0  0  0
   -5.5098    4.8125  -38.8114 N   0  0  0  0  0  0  0  0  0  0  0  0
   -7.3153    5.0288  -33.6467 F   0  0  0  0  0  0  0  0  0  0  0  0
   -6.4429    7.6645  -34.6429 Cl  0  0  0  0  0  0  0  0  0  0  0  0
   -5.6154    7.0178  -37.3100 H   0  0  0  0  0  0  0  0  0  0  0  0
   -6.4479    2.8080  -37.2853 H   0  0  0  0  0  0  0  0  0  0  0  0
   -5.2259    5.6445  -39.2940 H   0  0  0  0  0  0  0  0  0  0  0  0
   -5.5612    3.9338  -39.2921 H   0  0  0  0  0  0  0  0  0  0  0  0
  1  3  1  0  0  0  0
  1  4  2  0  0  0  0
  2  3  2  0  0  0  0
  2  6  1  0  0  0  0
  3  7  1  0  0  0  0
  4  5  1  0  0  0  0
  4  9  1  0  0  0  0
  5  6  2  0  0  0  0
  5  8  1  0  0  0  0
  1 10  1  0  0  0  0
  2 11  1  0  0  0  0
  7 12  1  0  0  0  0
  7 13  1  0  0  0  0
M  END
> <id>
EN300-398675

> <smiles>
NC=1C=NC(F)=C(Cl)C1

> <MDLNUMBER>
MFCD18257901

> <IUPAC Name>
5-chloro-6-fluoropyridin-3-amine

> <CAS>
1256790-26-7

> <Purity>
95

> <URL>
https://www.enaminestore.com/catalog/EN300-398675

> <MP>
97-98

> <ROCS_ShapeQuery>
_hit0

> <ROCS_TanimotoCombo>
1.083 

> <ROCS_ShapeTanimoto>
0.483 

> <ROCS_ColorTanimoto>
0.600 

> <ROCS_RefTversky>
1.316 

> <ROCS_RefColorTversky>
0.750 

> <ROCS_RefTverskyCombo>
2.066 

> <ROCS_FitTversky>
0.433 

> <ROCS_FitColorTversky>
0.750 

> <ROCS_FitTverskyCombo>
1.182 

> <ROCS_ColorScore>
-3.000

> <ROCS_Overlap>
160.937

> <ROCS_Rank>
71                  

$$$$
untitled-dbase-26693_0
  -OEChem-06232314393D

 13 13  0     0  0  0  0  0  0999 V2000
   -6.5113    5.0530  -35.3780 C   0  0  0  0  0  0  0  0  0  0  0  0
   -5.9447    5.6207  -36.5549 C   0  0  0  0  0  0  0  0  0  0  0  0
   -5.9482    4.6952  -37.5759 C   0  0  0  0  0  0  0  0  0  0  0  0
   -5.4312    7.0060  -36.6504 C   0  0  0  0  0  0  0  0  0  0  0  0
   -6.9297    3.7917  -35.4507 N   0  0  0  0  0  0  0  0  0  0  0  0
   -5.5011    4.8361  -38.8465 N   0  0  0  0  0  0  0  0  0  0  0  0
   -6.6395    3.2411  -36.9917 S   0  0  0  0  0  0  0  0  0  0  0  0
   -6.6322    5.5563  -34.4280 H   0  0  0  0  0  0  0  0  0  0  0  0
   -4.3639    7.0485  -36.3844 H   0  0  0  0  0  0  0  0  0  0  0  0
   -5.5435    7.4151  -37.6672 H   0  0  0  0  0  0  0  0  0  0  0  0
   -5.9750    7.6913  -35.9805 H   0  0  0  0  0  0  0  0  0  0  0  0
   -5.5112    4.0558  -39.5164 H   0  0  0  0  0  0  0  0  0  0  0  0
   -5.0456    5.6996  -39.1699 H   0  0  0  0  0  0  0  0  0  0  0  0
  1  2  1  0  0  0  0
  1  5  2  0  0  0  0
  2  3  2  0  0  0  0
  2  4  1  0  0  0  0
  3  6  1  0  0  0  0
  3  7  1  0  0  0  0
  5  7  1  0  0  0  0
  1  8  1  0  0  0  0
  4  9  1  0  0  0  0
  4 10  1  0  0  0  0
  4 11  1  0  0  0  0
  6 12  1  0  0  0  0
  6 13  1  0  0  0  0
M  END
> <id>
EN300-7117458

> <smiles>
CC=1C=NSC1N

> <MDLNUMBER>
MFCD32068715

> <IUPAC Name>
4-methyl-1,2-thiazol-5-amine

> <CAS>
685826-75-9

> <URL>
https://www.enaminestore.com/catalog/EN300-7117458

> <ROCS_ShapeQuery>
_hit0

> <ROCS_TanimotoCombo>
1.082 

> <ROCS_ShapeTanimoto>
0.487 

> <ROCS_ColorTanimoto>
0.595 

> <ROCS_RefTversky>
1.093 

> <ROCS_RefColorTversky>
0.746 

> <ROCS_RefTverskyCombo>
1.839 

> <ROCS_FitTversky>
0.468 

> <ROCS_FitColorTversky>
0.746 

> <ROCS_FitTverskyCombo>
1.214 

> <ROCS_ColorScore>
-2.984

> <ROCS_Overlap>
128.081

> <ROCS_Rank>
72                  

$$$$
untitled-dbase-29225_0
  -OEChem-06232314393D

 13 13  0     0  0  0  0  0  0999 V2000
   -6.5113    5.0530  -35.3780 C   0  0  0  0  0  0  0  0  0  0  0  0
   -5.9447    5.6207  -36.5549 C   0  0  0  0  0  0  0  0  0  0  0  0
   -5.9482    4.6952  -37.5759 C   0  0  0  0  0  0  0  0  0  0  0  0
   -5.4312    7.0060  -36.6504 C   0  0  0  0  0  0  0  0  0  0  0  0
   -6.9297    3.7917  -35.4507 N   0  0  0  0  0  0  0  0  0  0  0  0
   -5.5011    4.8361  -38.8465 N   0  0  0  0  0  0  0  0  0  0  0  0
   -6.6395    3.2411  -36.9917 S   0  0  0  0  0  0  0  0  0  0  0  0
   -6.6322    5.5563  -34.4280 H   0  0  0  0  0  0  0  0  0  0  0  0
   -4.3639    7.0485  -36.3844 H   0  0  0  0  0  0  0  0  0  0  0  0
   -5.5435    7.4151  -37.6672 H   0  0  0  0  0  0  0  0  0  0  0  0
   -5.9750    7.6913  -35.9805 H   0  0  0  0  0  0  0  0  0  0  0  0
   -5.5112    4.0558  -39.5164 H   0  0  0  0  0  0  0  0  0  0  0  0
   -5.0456    5.6996  -39.1699 H   0  0  0  0  0  0  0  0  0  0  0  0
  1  2  1  0  0  0  0
  1  5  2  0  0  0  0
  2  3  2  0  0  0  0
  2  4  1  0  0  0  0
  3  6  1  0  0  0  0
  3  7  1  0  0  0  0
  5  7  1  0  0  0  0
  1  8  1  0  0  0  0
  4  9  1  0  0  0  0
  4 10  1  0  0  0  0
  4 11  1  0  0  0  0
  6 12  1  0  0  0  0
  6 13  1  0  0  0  0
M  END
> <id>
EN300-7429811

> <smiles>
Cl.CC=1C=NSC1N

> <MDLNUMBER>
MFCD32069302

> <IUPAC Name>
4-methyl-1,2-thiazol-5-amine hydrochloride

> <CAS>
605663-20-5

> <Purity>
95

> <URL>
https://www.enaminestore.com/catalog/EN300-7429811

> <Saltdate>
Cl

> <ROCS_ShapeQuery>
_hit0

> <ROCS_TanimotoCombo>
1.082 

> <ROCS_ShapeTanimoto>
0.487 

> <ROCS_ColorTanimoto>
0.595 

> <ROCS_RefTversky>
1.093 

> <ROCS_RefColorTversky>
0.746 

> <ROCS_RefTverskyCombo>
1.839 

> <ROCS_FitTversky>
0.468 

> <ROCS_FitColorTversky>
0.746 

> <ROCS_FitTverskyCombo>
1.214 

> <ROCS_ColorScore>
-2.984

> <ROCS_Overlap>
128.081

> <ROCS_Rank>
73                  

$$$$
untitled-dbase-10382_0
  -OEChem-06232314393D

 19 19  0     0  0  0  0  0  0999 V2000
   -5.9370    6.1155  -36.7924 C   0  0  0  0  0  0  0  0  0  0  0  0
   -6.4351    3.7899  -36.8092 C   0  0  0  0  0  0  0  0  0  0  0  0
   -6.3865    6.1712  -35.4778 C   0  0  0  0  0  0  0  0  0  0  0  0
   -5.9585    4.9059  -37.4779 C   0  0  0  0  0  0  0  0  0  0  0  0
   -6.8442    4.9986  -34.8988 C   0  0  0  0  0  0  0  0  0  0  0  0
   -6.3661    7.4639  -34.7380 C   0  0  0  0  0  0  0  0  0  0  0  0
   -7.3391    4.9989  -33.4893 C   0  0  0  0  0  0  0  0  0  0  0  0
   -6.8801    3.8051  -35.5328 N   0  0  0  0  0  0  0  0  0  0  0  0
   -5.5115    4.8181  -38.8064 N   0  0  0  0  0  0  0  0  0  0  0  0
   -5.5708    7.0153  -37.2816 H   0  0  0  0  0  0  0  0  0  0  0  0
   -6.4757    2.8179  -37.2918 H   0  0  0  0  0  0  0  0  0  0  0  0
   -7.3113    8.0030  -34.8811 H   0  0  0  0  0  0  0  0  0  0  0  0
   -6.2166    7.3066  -33.6612 H   0  0  0  0  0  0  0  0  0  0  0  0
   -5.5446    8.1080  -35.0802 H   0  0  0  0  0  0  0  0  0  0  0  0
   -8.4153    5.2052  -33.4650 H   0  0  0  0  0  0  0  0  0  0  0  0
   -7.1572    4.0315  -33.0055 H   0  0  0  0  0  0  0  0  0  0  0  0
   -6.8235    5.7585  -32.8888 H   0  0  0  0  0  0  0  0  0  0  0  0
   -5.4930    3.9255  -39.2632 H   0  0  0  0  0  0  0  0  0  0  0  0
   -5.1276    5.6300  -39.2527 H   0  0  0  0  0  0  0  0  0  0  0  0
  1  3  2  0  0  0  0
  1  4  1  0  0  0  0
  2  4  2  0  0  0  0
  2  8  1  0  0  0  0
  3  5  1  0  0  0  0
  3  6  1  0  0  0  0
  4  9  1  0  0  0  0
  5  7  1  0  0  0  0
  5  8  2  0  0  0  0
  1 10  1  0  0  0  0
  2 11  1  0  0  0  0
  6 12  1  0  0  0  0
  6 13  1  0  0  0  0
  6 14  1  0  0  0  0
  7 15  1  0  0  0  0
  7 16  1  0  0  0  0
  7 17  1  0  0  0  0
  9 18  1  0  0  0  0
  9 19  1  0  0  0  0
M  END
> <id>
EN300-122786

> <smiles>
CC=1C=C(N)C=NC1C

> <MDLNUMBER>
MFCD07783763

> <IUPAC Name>
5,6-dimethylpyridin-3-amine

> <CAS>
66093-07-0

> <Purity>
95

> <URL>
https://www.enaminestore.com/catalog/EN300-122786

> <MP>
75-80

> <ROCS_ShapeQuery>
_hit0

> <ROCS_TanimotoCombo>
1.082 

> <ROCS_ShapeTanimoto>
0.482 

> <ROCS_ColorTanimoto>
0.600 

> <ROCS_RefTversky>
1.318 

> <ROCS_RefColorTversky>
0.750 

> <ROCS_RefTverskyCombo>
2.068 

> <ROCS_FitTversky>
0.432 

> <ROCS_FitColorTversky>
0.750 

> <ROCS_FitTverskyCombo>
1.182 

> <ROCS_ColorScore>
-3.000

> <ROCS_Overlap>
161.303

> <ROCS_Rank>
74                  

$$$$
untitled-dbase-10820_0
  -OEChem-06232314393D

 13 13  0     0  0  0  0  0  0999 V2000
   -6.0858    5.6819  -36.6162 C   0  0  0  0  0  0  0  0  0  0  0  0
   -6.6261    5.1180  -35.4252 C   0  0  0  0  0  0  0  0  0  0  0  0
   -5.9640    4.7111  -37.5866 C   0  0  0  0  0  0  0  0  0  0  0  0
   -6.8997    5.8522  -34.1693 C   0  0  0  0  0  0  0  0  0  0  0  0
   -6.9107    3.8180  -35.4414 N   0  0  0  0  0  0  0  0  0  0  0  0
   -5.4966    4.8285  -38.8527 N   0  0  0  0  0  0  0  0  0  0  0  0
   -6.5198    3.2241  -36.9435 S   0  0  0  0  0  0  0  0  0  0  0  0
   -5.6602    7.3289  -36.7840 Cl  0  0  0  0  0  0  0  0  0  0  0  0
   -7.9226    6.2590  -34.1667 H   0  0  0  0  0  0  0  0  0  0  0  0
   -6.7902    5.2051  -33.2844 H   0  0  0  0  0  0  0  0  0  0  0  0
   -6.2008    6.6919  -34.0254 H   0  0  0  0  0  0  0  0  0  0  0  0
   -5.2097    5.7349  -39.2444 H   0  0  0  0  0  0  0  0  0  0  0  0
   -5.4966    4.0357  -39.5076 H   0  0  0  0  0  0  0  0  0  0  0  0
  1  2  1  0  0  0  0
  1  3  2  0  0  0  0
  1  8  1  0  0  0  0
  2  4  1  0  0  0  0
  2  5  2  0  0  0  0
  3  6  1  0  0  0  0
  3  7  1  0  0  0  0
  5  7  1  0  0  0  0
  4  9  1  0  0  0  0
  4 10  1  0  0  0  0
  4 11  1  0  0  0  0
  6 12  1  0  0  0  0
  6 13  1  0  0  0  0
M  END
> <id>
EN300-134685

> <smiles>
CC1=NSC(N)=C1Cl

> <MDLNUMBER>
MFCD09909657

> <IUPAC Name>
4-chloro-3-methyl-1,2-thiazol-5-amine

> <CAS>
96841-04-2

> <Purity>
95

> <URL>
https://www.enaminestore.com/catalog/EN300-134685

> <MP>
69-71

> <ROCS_ShapeQuery>
_hit0

> <ROCS_TanimotoCombo>
1.082 

> <ROCS_ShapeTanimoto>
0.487 

> <ROCS_ColorTanimoto>
0.595 

> <ROCS_RefTversky>
1.177 

> <ROCS_RefColorTversky>
0.746 

> <ROCS_RefTverskyCombo>
1.923 

> <ROCS_FitTversky>
0.454 

> <ROCS_FitColorTversky>
0.746 

> <ROCS_FitTverskyCombo>
1.200 

> <ROCS_ColorScore>
-2.983

> <ROCS_Overlap>
140.024

> <ROCS_Rank>
75                  

$$$$
untitled-dbase-50393_0
  -OEChem-06232314393D

 12 12  0     0  0  0  0  0  0999 V2000
   -5.9347    6.1028  -36.8285 C   0  0  0  0  0  0  0  0  0  0  0  0
   -6.8442    5.0000  -34.9277 C   0  0  0  0  0  0  0  0  0  0  0  0
   -5.9565    4.8885  -37.5055 C   0  0  0  0  0  0  0  0  0  0  0  0
   -6.3853    6.1681  -35.5147 C   0  0  0  0  0  0  0  0  0  0  0  0
   -6.4344    3.7776  -36.8293 C   0  0  0  0  0  0  0  0  0  0  0  0
   -6.8805    3.8021  -35.5533 N   0  0  0  0  0  0  0  0  0  0  0  0
   -5.5198    4.8207  -38.7893 O   0  0  0  0  0  0  0  0  0  0  0  0
   -6.3735    7.6477  -34.6480 Cl  0  0  0  0  0  0  0  0  0  0  0  0
   -6.5067    2.2257  -37.5652 Cl  0  0  0  0  0  0  0  0  0  0  0  0
   -5.5673    6.9941  -37.3314 H   0  0  0  0  0  0  0  0  0  0  0  0
   -7.2099    4.9853  -33.9055 H   0  0  0  0  0  0  0  0  0  0  0  0
   -5.5956    3.9125  -39.1264 H   0  0  0  0  0  0  0  0  0  0  0  0
  1  3  2  0  0  0  0
  1  4  1  0  0  0  0
  2  4  2  0  0  0  0
  2  6  1  0  0  0  0
  3  5  1  0  0  0  0
  3  7  1  0  0  0  0
  4  8  1  0  0  0  0
  5  6  2  0  0  0  0
  5  9  1  0  0  0  0
  1 10  1  0  0  0  0
  2 11  1  0  0  0  0
  7 12  1  0  0  0  0
M  END
> <id>
EN300-118432

> <smiles>
OC=1C=C(Cl)C=NC1Cl

> <MDLNUMBER>
MFCD13185537

> <IUPAC Name>
2,5-dichloropyridin-3-ol

> <CAS>
53335-73-2

> <Purity>
93

> <URL>
https://www.enaminestore.com/catalog/EN300-118432

> <MP>
160-161

> <ROCS_ShapeQuery>
_hit0

> <ROCS_TanimotoCombo>
1.082 

> <ROCS_ShapeTanimoto>
0.482 

> <ROCS_ColorTanimoto>
0.600 

> <ROCS_RefTversky>
1.293 

> <ROCS_RefColorTversky>
0.750 

> <ROCS_RefTverskyCombo>
2.043 

> <ROCS_FitTversky>
0.435 

> <ROCS_FitColorTversky>
0.750 

> <ROCS_FitTverskyCombo>
1.184 

> <ROCS_ColorScore>
-2.999

> <ROCS_Overlap>
157.486

> <ROCS_Rank>
76                  

$$$$
untitled-dbase-52118_0
  -OEChem-06232314393D

 12 12  0     0  0  0  0  0  0999 V2000
   -5.9256    6.1151  -36.8288 C   0  0  0  0  0  0  0  0  0  0  0  0
   -6.4279    3.7905  -36.8375 C   0  0  0  0  0  0  0  0  0  0  0  0
   -5.9491    4.9032  -37.5100 C   0  0  0  0  0  0  0  0  0  0  0  0
   -6.3752    6.1764  -35.5145 C   0  0  0  0  0  0  0  0  0  0  0  0
   -6.8352    5.0067  -34.9314 C   0  0  0  0  0  0  0  0  0  0  0  0
   -6.8731    3.8110  -35.5612 N   0  0  0  0  0  0  0  0  0  0  0  0
   -5.5169    4.8134  -38.7921 O   0  0  0  0  0  0  0  0  0  0  0  0
   -7.2758    5.0363  -33.6628 F   0  0  0  0  0  0  0  0  0  0  0  0
   -6.3570    7.6593  -34.6511 Cl  0  0  0  0  0  0  0  0  0  0  0  0
   -5.5554    7.0067  -37.3291 H   0  0  0  0  0  0  0  0  0  0  0  0
   -6.4691    2.8190  -37.3201 H   0  0  0  0  0  0  0  0  0  0  0  0
   -5.2156    5.6806  -39.1124 H   0  0  0  0  0  0  0  0  0  0  0  0
  1  3  1  0  0  0  0
  1  4  2  0  0  0  0
  2  3  2  0  0  0  0
  2  6  1  0  0  0  0
  3  7  1  0  0  0  0
  4  5  1  0  0  0  0
  4  9  1  0  0  0  0
  5  6  2  0  0  0  0
  5  8  1  0  0  0  0
  1 10  1  0  0  0  0
  2 11  1  0  0  0  0
  7 12  1  0  0  0  0
M  END
> <id>
EN300-6428125

> <smiles>
OC=1C=NC(F)=C(Cl)C1

> <MDLNUMBER>
MFCD08061311

> <IUPAC Name>
5-chloro-6-fluoropyridin-3-ol

> <CAS>
209328-72-3

> <Purity>
95

> <URL>
https://www.enaminestore.com/catalog/EN300-6428125

> <ROCS_ShapeQuery>
_hit0

> <ROCS_TanimotoCombo>
1.082 

> <ROCS_ShapeTanimoto>
0.482 

> <ROCS_ColorTanimoto>
0.600 

> <ROCS_RefTversky>
1.318 

> <ROCS_RefColorTversky>
0.750 

> <ROCS_RefTverskyCombo>
2.067 

> <ROCS_FitTversky>
0.432 

> <ROCS_FitColorTversky>
0.750 

> <ROCS_FitTverskyCombo>
1.181 

> <ROCS_ColorScore>
-2.999

> <ROCS_Overlap>
161.289

> <ROCS_Rank>
77                  

$$$$
untitled-dbase-29121_0
  -OEChem-06232314393D

 18 18  0     0  0  0  0  0  0999 V2000
   -5.9177    6.1155  -36.8279 C   0  0  0  0  0  0  0  0  0  0  0  0
   -6.4300    3.7929  -36.8363 C   0  0  0  0  0  0  0  0  0  0  0  0
   -6.3636    6.1780  -35.5124 C   0  0  0  0  0  0  0  0  0  0  0  0
   -5.9482    4.9040  -37.5096 C   0  0  0  0  0  0  0  0  0  0  0  0
   -6.8270    5.0100  -34.9286 C   0  0  0  0  0  0  0  0  0  0  0  0
   -6.3335    7.4729  -34.7768 C   0  0  0  0  0  0  0  0  0  0  0  0
   -7.3187    5.0176  -33.5181 C   0  0  0  0  0  0  0  0  0  0  0  0
   -6.8717    3.8148  -35.5588 N   0  0  0  0  0  0  0  0  0  0  0  0
   -5.5168    4.8121  -38.7916 O   0  0  0  0  0  0  0  0  0  0  0  0
   -5.5444    7.0076  -37.3245 H   0  0  0  0  0  0  0  0  0  0  0  0
   -6.4752    2.8215  -37.3188 H   0  0  0  0  0  0  0  0  0  0  0  0
   -7.2758    8.0173  -34.9193 H   0  0  0  0  0  0  0  0  0  0  0  0
   -6.1823    7.3181  -33.6999 H   0  0  0  0  0  0  0  0  0  0  0  0
   -5.5090    8.1109  -35.1232 H   0  0  0  0  0  0  0  0  0  0  0  0
   -8.3936    5.2302  -33.4920 H   0  0  0  0  0  0  0  0  0  0  0  0
   -7.1414    4.0506  -33.0316 H   0  0  0  0  0  0  0  0  0  0  0  0
   -6.7973    5.7759  -32.9210 H   0  0  0  0  0  0  0  0  0  0  0  0
   -5.2105    5.6776  -39.1118 H   0  0  0  0  0  0  0  0  0  0  0  0
  1  3  2  0  0  0  0
  1  4  1  0  0  0  0
  2  4  2  0  0  0  0
  2  8  1  0  0  0  0
  3  5  1  0  0  0  0
  3  6  1  0  0  0  0
  4  9  1  0  0  0  0
  5  7  1  0  0  0  0
  5  8  2  0  0  0  0
  1 10  1  0  0  0  0
  2 11  1  0  0  0  0
  6 12  1  0  0  0  0
  6 13  1  0  0  0  0
  6 14  1  0  0  0  0
  7 15  1  0  0  0  0
  7 16  1  0  0  0  0
  7 17  1  0  0  0  0
  9 18  1  0  0  0  0
M  END
> <id>
EN300-313308

> <smiles>
CC=1C=C(O)C=NC1C

> <MDLNUMBER>
MFCD12405445

> <IUPAC Name>
5,6-dimethylpyridin-3-ol

> <CAS>
61893-00-3

> <Purity>
95

> <URL>
https://www.enaminestore.com/catalog/EN300-313308

> <MP>
147-149

> <ROCS_ShapeQuery>
_hit0

> <ROCS_TanimotoCombo>
1.081 

> <ROCS_ShapeTanimoto>
0.481 

> <ROCS_ColorTanimoto>
0.600 

> <ROCS_RefTversky>
1.319 

> <ROCS_RefColorTversky>
0.750 

> <ROCS_RefTverskyCombo>
2.069 

> <ROCS_FitTversky>
0.431 

> <ROCS_FitColorTversky>
0.750 

> <ROCS_FitTverskyCombo>
1.181 

> <ROCS_ColorScore>
-2.999

> <ROCS_Overlap>
161.603

> <ROCS_Rank>
78                  

$$$$
untitled-dbase-47423_0
  -OEChem-06232314393D

 12 12  0     0  0  0  0  0  0999 V2000
   -5.8870    6.1076  -36.8158 C   0  0  0  0  0  0  0  0  0  0  0  0
   -6.4339    3.7931  -36.8373 C   0  0  0  0  0  0  0  0  0  0  0  0
   -5.9383    4.9013  -37.5052 C   0  0  0  0  0  0  0  0  0  0  0  0
   -6.3266    6.1681  -35.4980 C   0  0  0  0  0  0  0  0  0  0  0  0
   -6.8050    5.0033  -34.9200 C   0  0  0  0  0  0  0  0  0  0  0  0
   -6.8701    3.8131  -35.5578 N   0  0  0  0  0  0  0  0  0  0  0  0
   -5.5175    4.8127  -38.7911 O   0  0  0  0  0  0  0  0  0  0  0  0
   -6.2835    7.3230  -34.8220 F   0  0  0  0  0  0  0  0  0  0  0  0
   -7.3705    4.9800  -33.2996 Cl  0  0  0  0  0  0  0  0  0  0  0  0
   -5.5065    7.0028  -37.2995 H   0  0  0  0  0  0  0  0  0  0  0  0
   -6.4975    2.8262  -37.3266 H   0  0  0  0  0  0  0  0  0  0  0  0
   -5.2023    5.6763  -39.1076 H   0  0  0  0  0  0  0  0  0  0  0  0
  1  3  1  0  0  0  0
  1  4  2  0  0  0  0
  2  3  2  0  0  0  0
  2  6  1  0  0  0  0
  3  7  1  0  0  0  0
  4  5  1  0  0  0  0
  4  8  1  0  0  0  0
  5  6  2  0  0  0  0
  5  9  1  0  0  0  0
  1 10  1  0  0  0  0
  2 11  1  0  0  0  0
  7 12  1  0  0  0  0
M  END
> <id>
EN300-71367

> <smiles>
OC=1C=NC(Cl)=C(F)C1

> <MDLNUMBER>
MFCD03411573

> <IUPAC Name>
6-chloro-5-fluoropyridin-3-ol

> <CAS>
870062-76-3

> <Purity>
95

> <URL>
https://www.enaminestore.com/catalog/EN300-71367

> <ROCS_ShapeQuery>
_hit0

> <ROCS_TanimotoCombo>
1.081 

> <ROCS_ShapeTanimoto>
0.481 

> <ROCS_ColorTanimoto>
0.600 

> <ROCS_RefTversky>
1.316 

> <ROCS_RefColorTversky>
0.750 

> <ROCS_RefTverskyCombo>
2.066 

> <ROCS_FitTversky>
0.431 

> <ROCS_FitColorTversky>
0.750 

> <ROCS_FitTverskyCombo>
1.181 

> <ROCS_ColorScore>
-2.999

> <ROCS_Overlap>
161.062

> <ROCS_Rank>
79                  

$$$$
untitled-dbase-32397_0
  -OEChem-06232314393D

 16 16  0     0  0  0  0  0  0999 V2000
   -5.9356    6.1020  -36.7965 C   0  0  0  0  0  0  0  0  0  0  0  0
   -6.8427    4.9991  -34.8946 C   0  0  0  0  0  0  0  0  0  0  0  0
   -6.3818    6.1666  -35.4812 C   0  0  0  0  0  0  0  0  0  0  0  0
   -5.9635    4.8889  -37.4754 C   0  0  0  0  0  0  0  0  0  0  0  0
   -6.4430    3.7785  -36.7995 C   0  0  0  0  0  0  0  0  0  0  0  0
   -6.3649    7.4488  -34.7277 C   0  0  0  0  0  0  0  0  0  0  0  0
   -6.8850    3.8024  -35.5221 N   0  0  0  0  0  0  0  0  0  0  0  0
   -5.5126    4.8211  -38.8063 N   0  0  0  0  0  0  0  0  0  0  0  0
   -6.5293    2.2206  -37.5267 Cl  0  0  0  0  0  0  0  0  0  0  0  0
   -5.5668    6.9983  -37.2897 H   0  0  0  0  0  0  0  0  0  0  0  0
   -7.2035    4.9882  -33.8707 H   0  0  0  0  0  0  0  0  0  0  0  0
   -7.3109    7.9897  -34.8648 H   0  0  0  0  0  0  0  0  0  0  0  0
   -6.2166    7.2814  -33.6515 H   0  0  0  0  0  0  0  0  0  0  0  0
   -5.5441    8.1003  -35.0602 H   0  0  0  0  0  0  0  0  0  0  0  0
   -5.2187    5.6596  -39.2689 H   0  0  0  0  0  0  0  0  0  0  0  0
   -5.5796    3.9545  -39.3041 H   0  0  0  0  0  0  0  0  0  0  0  0
  1  3  1  0  0  0  0
  1  4  2  0  0  0  0
  2  3  2  0  0  0  0
  2  7  1  0  0  0  0
  3  6  1  0  0  0  0
  4  5  1  0  0  0  0
  4  8  1  0  0  0  0
  5  7  2  0  0  0  0
  5  9  1  0  0  0  0
  1 10  1  0  0  0  0
  2 11  1  0  0  0  0
  6 12  1  0  0  0  0
  6 13  1  0  0  0  0
  6 14  1  0  0  0  0
  8 15  1  0  0  0  0
  8 16  1  0  0  0  0
M  END
> <id>
EN300-173329

> <smiles>
Cl.CC=1C=NC(Cl)=C(N)C1

> <MDLNUMBER>
MFCD26517135

> <IUPAC Name>
2-chloro-5-methylpyridin-3-amine hydrochloride

> <CAS>
1955494-45-7

> <URL>
https://www.enaminestore.com/catalog/EN300-173329

> <Saltdate>
Cl

> <ROCS_ShapeQuery>
_hit0

> <ROCS_TanimotoCombo>
1.081 

> <ROCS_ShapeTanimoto>
0.481 

> <ROCS_ColorTanimoto>
0.600 

> <ROCS_RefTversky>
1.300 

> <ROCS_RefColorTversky>
0.750 

> <ROCS_RefTverskyCombo>
2.050 

> <ROCS_FitTversky>
0.433 

> <ROCS_FitColorTversky>
0.750 

> <ROCS_FitTverskyCombo>
1.183 

> <ROCS_ColorScore>
-2.999

> <ROCS_Overlap>
158.706

> <ROCS_Rank>
80                  

$$$$
untitled-dbase-32445_0
  -OEChem-06232314393D

 16 16  0     0  0  0  0  0  0999 V2000
   -5.9356    6.1020  -36.7965 C   0  0  0  0  0  0  0  0  0  0  0  0
   -6.8427    4.9991  -34.8946 C   0  0  0  0  0  0  0  0  0  0  0  0
   -6.3818    6.1666  -35.4812 C   0  0  0  0  0  0  0  0  0  0  0  0
   -5.9635    4.8889  -37.4754 C   0  0  0  0  0  0  0  0  0  0  0  0
   -6.4430    3.7785  -36.7995 C   0  0  0  0  0  0  0  0  0  0  0  0
   -6.3649    7.4488  -34.7277 C   0  0  0  0  0  0  0  0  0  0  0  0
   -6.8850    3.8024  -35.5221 N   0  0  0  0  0  0  0  0  0  0  0  0
   -5.5126    4.8211  -38.8063 N   0  0  0  0  0  0  0  0  0  0  0  0
   -6.5293    2.2206  -37.5267 Cl  0  0  0  0  0  0  0  0  0  0  0  0
   -5.5668    6.9983  -37.2897 H   0  0  0  0  0  0  0  0  0  0  0  0
   -7.2035    4.9882  -33.8707 H   0  0  0  0  0  0  0  0  0  0  0  0
   -7.3109    7.9897  -34.8648 H   0  0  0  0  0  0  0  0  0  0  0  0
   -6.2166    7.2814  -33.6515 H   0  0  0  0  0  0  0  0  0  0  0  0
   -5.5441    8.1003  -35.0602 H   0  0  0  0  0  0  0  0  0  0  0  0
   -5.2187    5.6596  -39.2689 H   0  0  0  0  0  0  0  0  0  0  0  0
   -5.5796    3.9545  -39.3041 H   0  0  0  0  0  0  0  0  0  0  0  0
  1  3  1  0  0  0  0
  1  4  2  0  0  0  0
  2  3  2  0  0  0  0
  2  7  1  0  0  0  0
  3  6  1  0  0  0  0
  4  5  1  0  0  0  0
  4  8  1  0  0  0  0
  5  7  2  0  0  0  0
  5  9  1  0  0  0  0
  1 10  1  0  0  0  0
  2 11  1  0  0  0  0
  6 12  1  0  0  0  0
  6 13  1  0  0  0  0
  6 14  1  0  0  0  0
  8 15  1  0  0  0  0
  8 16  1  0  0  0  0
M  END
> <id>
EN300-92991

> <smiles>
CC=1C=NC(Cl)=C(N)C1

> <MDLNUMBER>
MFCD03427656

> <IUPAC Name>
2-chloro-5-methylpyridin-3-amine

> <CAS>
34552-13-1

> <Purity>
95

> <URL>
https://www.enaminestore.com/catalog/EN300-92991

> <MP>
87-91

> <ROCS_ShapeQuery>
_hit0

> <ROCS_TanimotoCombo>
1.081 

> <ROCS_ShapeTanimoto>
0.481 

> <ROCS_ColorTanimoto>
0.600 

> <ROCS_RefTversky>
1.300 

> <ROCS_RefColorTversky>
0.750 

> <ROCS_RefTverskyCombo>
2.050 

> <ROCS_FitTversky>
0.433 

> <ROCS_FitColorTversky>
0.750 

> <ROCS_FitTverskyCombo>
1.183 

> <ROCS_ColorScore>
-2.999

> <ROCS_Overlap>
158.706

> <ROCS_Rank>
81                  

$$$$
untitled-dbase-15941_0
  -OEChem-06232314393D

 16 16  0     0  0  0  0  0  0999 V2000
   -5.9317    6.1160  -36.7952 C   0  0  0  0  0  0  0  0  0  0  0  0
   -6.4355    3.7916  -36.8101 C   0  0  0  0  0  0  0  0  0  0  0  0
   -6.3798    6.1736  -35.4802 C   0  0  0  0  0  0  0  0  0  0  0  0
   -5.9568    4.9061  -37.4799 C   0  0  0  0  0  0  0  0  0  0  0  0
   -6.8397    5.0024  -34.9000 C   0  0  0  0  0  0  0  0  0  0  0  0
   -6.3630    7.4552  -34.7247 C   0  0  0  0  0  0  0  0  0  0  0  0
   -6.8791    3.8087  -35.5332 N   0  0  0  0  0  0  0  0  0  0  0  0
   -5.5104    4.8166  -38.8084 N   0  0  0  0  0  0  0  0  0  0  0  0
   -7.2782    5.0340  -33.6311 F   0  0  0  0  0  0  0  0  0  0  0  0
   -5.5631    7.0143  -37.2845 H   0  0  0  0  0  0  0  0  0  0  0  0
   -6.4804    2.8196  -37.2918 H   0  0  0  0  0  0  0  0  0  0  0  0
   -7.3088    7.9960  -34.8618 H   0  0  0  0  0  0  0  0  0  0  0  0
   -6.2152    7.2859  -33.6489 H   0  0  0  0  0  0  0  0  0  0  0  0
   -5.5419    8.1065  -35.0562 H   0  0  0  0  0  0  0  0  0  0  0  0
   -5.2123    5.6465  -39.2863 H   0  0  0  0  0  0  0  0  0  0  0  0
   -5.5825    3.9430  -39.2957 H   0  0  0  0  0  0  0  0  0  0  0  0
  1  3  2  0  0  0  0
  1  4  1  0  0  0  0
  2  4  2  0  0  0  0
  2  7  1  0  0  0  0
  3  5  1  0  0  0  0
  3  6  1  0  0  0  0
  4  8  1  0  0  0  0
  5  7  2  0  0  0  0
  5  9  1  0  0  0  0
  1 10  1  0  0  0  0
  2 11  1  0  0  0  0
  6 12  1  0  0  0  0
  6 13  1  0  0  0  0
  6 14  1  0  0  0  0
  8 15  1  0  0  0  0
  8 16  1  0  0  0  0
M  END
> <id>
EN300-395379

> <smiles>
CC=1C=C(N)C=NC1F

> <MDLNUMBER>
MFCD03095088

> <IUPAC Name>
6-fluoro-5-methylpyridin-3-amine

> <CAS>
186593-48-6

> <Purity>
95

> <URL>
https://www.enaminestore.com/catalog/EN300-395379

> <ROCS_ShapeQuery>
_hit0

> <ROCS_TanimotoCombo>
1.079 

> <ROCS_ShapeTanimoto>
0.479 

> <ROCS_ColorTanimoto>
0.600 

> <ROCS_RefTversky>
1.324 

> <ROCS_RefColorTversky>
0.750 

> <ROCS_RefTverskyCombo>
2.073 

> <ROCS_FitTversky>
0.429 

> <ROCS_FitColorTversky>
0.750 

> <ROCS_FitTverskyCombo>
1.179 

> <ROCS_ColorScore>
-3.000

> <ROCS_Overlap>
162.358

> <ROCS_Rank>
82                  

$$$$
untitled-dbase-25490_0
  -OEChem-06232314393D

 15 15  0     0  0  0  0  0  0999 V2000
   -5.9427    6.1067  -36.8360 C   0  0  0  0  0  0  0  0  0  0  0  0
   -6.8503    5.0099  -34.9308 C   0  0  0  0  0  0  0  0  0  0  0  0
   -6.3955    6.1769  -35.5233 C   0  0  0  0  0  0  0  0  0  0  0  0
   -5.9581    4.8888  -37.5067 C   0  0  0  0  0  0  0  0  0  0  0  0
   -6.4322    3.7794  -36.8253 C   0  0  0  0  0  0  0  0  0  0  0  0
   -6.3916    7.4642  -34.7780 C   0  0  0  0  0  0  0  0  0  0  0  0
   -6.8804    3.8086  -35.5502 N   0  0  0  0  0  0  0  0  0  0  0  0
   -5.5160    4.8161  -38.7885 O   0  0  0  0  0  0  0  0  0  0  0  0
   -6.5000    2.2238  -37.5544 Cl  0  0  0  0  0  0  0  0  0  0  0  0
   -5.5779    6.9993  -37.3376 H   0  0  0  0  0  0  0  0  0  0  0  0
   -7.2161    5.0032  -33.9088 H   0  0  0  0  0  0  0  0  0  0  0  0
   -7.3409    7.9971  -34.9232 H   0  0  0  0  0  0  0  0  0  0  0  0
   -6.2472    7.3047  -33.7001 H   0  0  0  0  0  0  0  0  0  0  0  0
   -5.5741    8.1194  -35.1110 H   0  0  0  0  0  0  0  0  0  0  0  0
   -5.5876    3.9060  -39.1212 H   0  0  0  0  0  0  0  0  0  0  0  0
  1  3  1  0  0  0  0
  1  4  2  0  0  0  0
  2  3  2  0  0  0  0
  2  7  1  0  0  0  0
  3  6  1  0  0  0  0
  4  5  1  0  0  0  0
  4  8  1  0  0  0  0
  5  7  2  0  0  0  0
  5  9  1  0  0  0  0
  1 10  1  0  0  0  0
  2 11  1  0  0  0  0
  6 12  1  0  0  0  0
  6 13  1  0  0  0  0
  6 14  1  0  0  0  0
  8 15  1  0  0  0  0
M  END
> <id>
EN300-343361

> <smiles>
CC=1C=NC(Cl)=C(O)C1

> <MDLNUMBER>
MFCD09839272

> <IUPAC Name>
2-chloro-5-methylpyridin-3-ol

> <CAS>
910649-59-1

> <Purity>
95

> <URL>
https://www.enaminestore.com/catalog/EN300-343361

> <ROCS_ShapeQuery>
_hit0

> <ROCS_TanimotoCombo>
1.079 

> <ROCS_ShapeTanimoto>
0.479 

> <ROCS_ColorTanimoto>
0.600 

> <ROCS_RefTversky>
1.301 

> <ROCS_RefColorTversky>
0.750 

> <ROCS_RefTverskyCombo>
2.051 

> <ROCS_FitTversky>
0.431 

> <ROCS_FitColorTversky>
0.750 

> <ROCS_FitTverskyCombo>
1.181 

> <ROCS_ColorScore>
-2.999

> <ROCS_Overlap>
158.860

> <ROCS_Rank>
83                  

$$$$
untitled-dbase-20648_3
  -OEChem-06232314393D

 17 17  0     1  0  0  0  0  0999 V2000
   -6.6432    5.8383  -36.8982 C   0  0  0  0  0  0  0  0  0  0  0  0
   -6.2045    3.5365  -36.8216 C   0  0  0  0  0  0  0  0  0  0  0  0
   -5.6286    4.8243  -37.3686 C   0  0  1  0  0  0  0  0  0  0  0  0
   -7.0474    5.2958  -35.5364 C   0  0  2  0  0  0  0  0  0  0  0  0
   -6.2038    5.8551  -34.3991 C   0  0  0  0  0  0  0  0  0  0  0  0
   -6.8514    3.8704  -35.5869 O   0  0  0  0  0  0  0  0  0  0  0  0
   -5.5201    4.8065  -38.7756 O   0  0  0  0  0  0  0  0  0  0  0  0
   -6.1609    6.8214  -36.7955 H   0  0  0  0  0  0  0  0  0  0  0  0
   -7.5086    5.9446  -37.5648 H   0  0  0  0  0  0  0  0  0  0  0  0
   -6.9334    3.0670  -37.4872 H   0  0  0  0  0  0  0  0  0  0  0  0
   -5.4127    2.8187  -36.5867 H   0  0  0  0  0  0  0  0  0  0  0  0
   -4.6103    5.0308  -36.9537 H   0  0  0  0  0  0  0  0  0  0  0  0
   -8.0998    5.4775  -35.3370 H   0  0  0  0  0  0  0  0  0  0  0  0
   -5.1431    5.6773  -34.5903 H   0  0  0  0  0  0  0  0  0  0  0  0
   -6.4728    5.3752  -33.4554 H   0  0  0  0  0  0  0  0  0  0  0  0
   -6.3645    6.9312  -34.3011 H   0  0  0  0  0  0  0  0  0  0  0  0
   -5.2437    5.6969  -39.0445 H   0  0  0  0  0  0  0  0  0  0  0  0
  1  3  1  0  0  0  0
  1  4  1  0  0  0  0
  2  3  1  0  0  0  0
  2  6  1  0  0  0  0
  3  7  1  0  0  0  0
  4  5  1  0  0  0  0
  4  6  1  0  0  0  0
  1  8  1  0  0  0  0
  1  9  1  0  0  0  0
  2 10  1  0  0  0  0
  2 11  1  0  0  0  0
  3 12  1  0  0  0  0
  4 13  1  0  0  0  0
  5 14  1  0  0  0  0
  5 15  1  0  0  0  0
  5 16  1  0  0  0  0
  7 17  1  0  0  0  0
M  END
> <id>
EN300-3432057

> <smiles>
CC1CC(O)CO1

> <MDLNUMBER>
MFCD01725987

> <IUPAC Name>
5-methyloxolan-3-ol

> <CAS>
29848-43-9

> <URL>
https://www.enaminestore.com/catalog/EN300-3432057

> <ROCS_ShapeQuery>
_hit0

> <ROCS_TanimotoCombo>
1.078 

> <ROCS_ShapeTanimoto>
0.481 

> <ROCS_ColorTanimoto>
0.597 

> <ROCS_RefTversky>
1.096 

> <ROCS_RefColorTversky>
0.748 

> <ROCS_RefTverskyCombo>
1.844 

> <ROCS_FitTversky>
0.461 

> <ROCS_FitColorTversky>
0.748 

> <ROCS_FitTverskyCombo>
1.209 

> <ROCS_ColorScore>
-2.991

> <ROCS_Overlap>
128.678

> <ROCS_Rank>
84                  

$$$$
untitled-dbase-17435_0
  -OEChem-06232314393D

 16 16  0     0  0  0  0  0  0999 V2000
   -5.9616    6.1110  -36.8031 C   0  0  0  0  0  0  0  0  0  0  0  0
   -6.8614    5.0021  -34.9012 C   0  0  0  0  0  0  0  0  0  0  0  0
   -5.9695    4.8953  -37.4778 C   0  0  0  0  0  0  0  0  0  0  0  0
   -6.4145    6.1740  -35.4900 C   0  0  0  0  0  0  0  0  0  0  0  0
   -6.4362    3.7806  -36.8000 C   0  0  0  0  0  0  0  0  0  0  0  0
   -6.4691    2.4460  -37.4716 C   0  0  0  0  0  0  0  0  0  0  0  0
   -6.8840    3.8027  -35.5246 N   0  0  0  0  0  0  0  0  0  0  0  0
   -5.5119    4.8204  -38.8057 N   0  0  0  0  0  0  0  0  0  0  0  0
   -6.4194    7.6551  -34.6255 Cl  0  0  0  0  0  0  0  0  0  0  0  0
   -5.6036    7.0085  -37.3028 H   0  0  0  0  0  0  0  0  0  0  0  0
   -7.2260    4.9850  -33.8786 H   0  0  0  0  0  0  0  0  0  0  0  0
   -5.5255    1.9143  -37.3044 H   0  0  0  0  0  0  0  0  0  0  0  0
   -7.2911    1.8301  -37.0875 H   0  0  0  0  0  0  0  0  0  0  0  0
   -6.6256    2.5508  -38.5521 H   0  0  0  0  0  0  0  0  0  0  0  0
   -5.4785    3.9306  -39.2649 H   0  0  0  0  0  0  0  0  0  0  0  0
   -5.1373    5.6400  -39.2434 H   0  0  0  0  0  0  0  0  0  0  0  0
  1  3  2  0  0  0  0
  1  4  1  0  0  0  0
  2  4  2  0  0  0  0
  2  7  1  0  0  0  0
  3  5  1  0  0  0  0
  3  8  1  0  0  0  0
  4  9  1  0  0  0  0
  5  6  1  0  0  0  0
  5  7  2  0  0  0  0
  1 10  1  0  0  0  0
  2 11  1  0  0  0  0
  6 12  1  0  0  0  0
  6 13  1  0  0  0  0
  6 14  1  0  0  0  0
  8 15  1  0  0  0  0
  8 16  1  0  0  0  0
M  END
> <id>
EN300-171254

> <smiles>
CC=1N=CC(Cl)=CC1N

> <MDLNUMBER>
MFCD12196974

> <IUPAC Name>
5-chloro-2-methylpyridin-3-amine

> <CAS>
89639-36-1

> <Purity>
95

> <URL>
https://www.enaminestore.com/catalog/EN300-171254

> <ROCS_ShapeQuery>
_hit0

> <ROCS_TanimotoCombo>
1.078 

> <ROCS_ShapeTanimoto>
0.478 

> <ROCS_ColorTanimoto>
0.600 

> <ROCS_RefTversky>
1.296 

> <ROCS_RefColorTversky>
0.750 

> <ROCS_RefTverskyCombo>
2.046 

> <ROCS_FitTversky>
0.431 

> <ROCS_FitColorTversky>
0.750 

> <ROCS_FitTverskyCombo>
1.181 

> <ROCS_ColorScore>
-3.000

> <ROCS_Overlap>
158.219

> <ROCS_Rank>
85                  

$$$$
untitled-dbase-25798_3
  -OEChem-06232314393D

 17 17  0     1  0  0  0  0  0999 V2000
   -6.5668    5.2093  -35.3346 C   0  0  0  0  0  0  0  0  0  0  0  0
   -6.5949    3.5586  -36.9791 C   0  0  0  0  0  0  0  0  0  0  0  0
   -5.7738    5.7118  -36.5275 C   0  0  1  0  0  0  0  0  0  0  0  0
   -6.3867    4.9012  -37.6510 C   0  0  1  0  0  0  0  0  0  0  0  0
   -5.8563    7.2145  -36.7287 C   0  0  0  0  0  0  0  0  0  0  0  0
   -6.8558    3.8259  -35.5938 O   0  0  0  0  0  0  0  0  0  0  0  0
   -5.5237    4.8087  -38.7650 O   0  0  0  0  0  0  0  0  0  0  0  0
   -5.9679    5.2503  -34.4205 H   0  0  0  0  0  0  0  0  0  0  0  0
   -7.4987    5.7510  -35.1633 H   0  0  0  0  0  0  0  0  0  0  0  0
   -7.4733    3.0436  -37.3803 H   0  0  0  0  0  0  0  0  0  0  0  0
   -5.7270    2.8970  -37.0532 H   0  0  0  0  0  0  0  0  0  0  0  0
   -4.6924    5.4414  -36.3803 H   0  0  0  0  0  0  0  0  0  0  0  0
   -7.3582    5.3248  -38.0123 H   0  0  0  0  0  0  0  0  0  0  0  0
   -6.8937    7.5105  -36.8745 H   0  0  0  0  0  0  0  0  0  0  0  0
   -5.2767    7.5015  -37.6044 H   0  0  0  0  0  0  0  0  0  0  0  0
   -5.4586    7.7259  -35.8538 H   0  0  0  0  0  0  0  0  0  0  0  0
   -5.9413    4.1929  -39.3867 H   0  0  0  0  0  0  0  0  0  0  0  0
  1  3  1  0  0  0  0
  1  6  1  0  0  0  0
  2  4  1  0  0  0  0
  2  6  1  0  0  0  0
  3  4  1  0  0  0  0
  3  5  1  1  0  0  0
  4  7  1  6  0  0  0
  1  8  1  0  0  0  0
  1  9  1  0  0  0  0
  2 10  1  0  0  0  0
  2 11  1  0  0  0  0
  3 12  1  0  0  0  0
  4 13  1  0  0  0  0
  5 14  1  0  0  0  0
  5 15  1  0  0  0  0
  5 16  1  0  0  0  0
  7 17  1  0  0  0  0
M  END
> <id>
EN300-6732250

> <smiles>
C[C@H]1COC[C@@H]1O

> <MDLNUMBER>
MFCD30491115

> <IUPAC Name>
(3R,4S)-4-methyloxolan-3-ol

> <CAS>
1932478-75-5

> <Purity>
95

> <URL>
https://www.enaminestore.com/catalog/EN300-6732250

> <ROCS_ShapeQuery>
_hit0

> <ROCS_TanimotoCombo>
1.078 

> <ROCS_ShapeTanimoto>
0.480 

> <ROCS_ColorTanimoto>
0.598 

> <ROCS_RefTversky>
1.094 

> <ROCS_RefColorTversky>
0.748 

> <ROCS_RefTverskyCombo>
1.843 

> <ROCS_FitTversky>
0.461 

> <ROCS_FitColorTversky>
0.748 

> <ROCS_FitTverskyCombo>
1.209 

> <ROCS_ColorScore>
-2.993

> <ROCS_Overlap>
128.521

> <ROCS_Rank>
86                  

$$$$
untitled-dbase-3474_0
  -OEChem-06232314393D

 13 13  0     0  0  0  0  0  0999 V2000
   -6.4937    3.5958  -36.8438 C   0  0  0  0  0  0  0  0  0  0  0  0
   -6.0380    5.7344  -36.6125 C   0  0  0  0  0  0  0  0  0  0  0  0
   -5.9783    4.7127  -37.5284 C   0  0  0  0  0  0  0  0  0  0  0  0
   -6.8162    5.8749  -34.2341 C   0  0  0  0  0  0  0  0  0  0  0  0
   -6.8542    3.8810  -35.5897 N   0  0  0  0  0  0  0  0  0  0  0  0
   -6.5647    5.1887  -35.4790 N   0  0  0  0  0  0  0  0  0  0  0  0
   -5.5218    4.8045  -38.7824 O   0  0  0  0  0  0  0  0  0  0  0  0
   -6.6231    2.5855  -37.2054 H   0  0  0  0  0  0  0  0  0  0  0  0
   -5.7563    6.7771  -36.6692 H   0  0  0  0  0  0  0  0  0  0  0  0
   -7.8315    6.2785  -34.2706 H   0  0  0  0  0  0  0  0  0  0  0  0
   -6.7142    5.1711  -33.4034 H   0  0  0  0  0  0  0  0  0  0  0  0
   -6.0873    6.6810  -34.1122 H   0  0  0  0  0  0  0  0  0  0  0  0
   -5.5749    3.9453  -39.2485 H   0  0  0  0  0  0  0  0  0  0  0  0
  1  3  1  0  0  0  0
  1  5  2  0  0  0  0
  2  3  2  0  0  0  0
  2  6  1  0  0  0  0
  3  7  1  0  0  0  0
  4  6  1  0  0  0  0
  5  6  1  0  0  0  0
  1  8  1  0  0  0  0
  2  9  1  0  0  0  0
  4 10  1  0  0  0  0
  4 11  1  0  0  0  0
  4 12  1  0  0  0  0
  7 13  1  0  0  0  0
M  END
> <id>
EN300-152767

> <smiles>
Cl.CN1C=C(O)C=N1

> <MDLNUMBER>
MFCD27500778

> <IUPAC Name>
1-methyl-1H-pyrazol-4-ol hydrochloride

> <CAS>
1369488-73-2

> <Purity>
95

> <URL>
https://www.enaminestore.com/catalog/EN300-152767

> <Saltdate>
Cl

> <MP>
134-138

> <ROCS_ShapeQuery>
_hit0

> <ROCS_TanimotoCombo>
1.077 

> <ROCS_ShapeTanimoto>
0.480 

> <ROCS_ColorTanimoto>
0.597 

> <ROCS_RefTversky>
1.140 

> <ROCS_RefColorTversky>
0.747 

> <ROCS_RefTverskyCombo>
1.888 

> <ROCS_FitTversky>
0.453 

> <ROCS_FitColorTversky>
0.747 

> <ROCS_FitTverskyCombo>
1.201 

> <ROCS_ColorScore>
-2.990

> <ROCS_Overlap>
135.020

> <ROCS_Rank>
87                  

$$$$
untitled-dbase-2031_0
  -OEChem-06232314393D

 13 13  0     0  0  0  0  0  0999 V2000
   -6.4937    3.5958  -36.8438 C   0  0  0  0  0  0  0  0  0  0  0  0
   -6.0380    5.7344  -36.6125 C   0  0  0  0  0  0  0  0  0  0  0  0
   -5.9783    4.7127  -37.5284 C   0  0  0  0  0  0  0  0  0  0  0  0
   -6.8162    5.8749  -34.2341 C   0  0  0  0  0  0  0  0  0  0  0  0
   -6.8542    3.8810  -35.5897 N   0  0  0  0  0  0  0  0  0  0  0  0
   -6.5647    5.1887  -35.4790 N   0  0  0  0  0  0  0  0  0  0  0  0
   -5.5218    4.8045  -38.7824 O   0  0  0  0  0  0  0  0  0  0  0  0
   -6.6231    2.5855  -37.2054 H   0  0  0  0  0  0  0  0  0  0  0  0
   -5.7563    6.7771  -36.6692 H   0  0  0  0  0  0  0  0  0  0  0  0
   -7.8315    6.2785  -34.2706 H   0  0  0  0  0  0  0  0  0  0  0  0
   -6.7142    5.1711  -33.4034 H   0  0  0  0  0  0  0  0  0  0  0  0
   -6.0873    6.6810  -34.1122 H   0  0  0  0  0  0  0  0  0  0  0  0
   -5.5749    3.9453  -39.2485 H   0  0  0  0  0  0  0  0  0  0  0  0
  1  3  1  0  0  0  0
  1  5  2  0  0  0  0
  2  3  2  0  0  0  0
  2  6  1  0  0  0  0
  3  7  1  0  0  0  0
  4  6  1  0  0  0  0
  5  6  1  0  0  0  0
  1  8  1  0  0  0  0
  2  9  1  0  0  0  0
  4 10  1  0  0  0  0
  4 11  1  0  0  0  0
  4 12  1  0  0  0  0
  7 13  1  0  0  0  0
M  END
> <id>
EN300-85788

> <smiles>
CN1C=C(O)C=N1

> <MDLNUMBER>
MFCD22414500

> <IUPAC Name>
1-methyl-1H-pyrazol-4-ol

> <CAS>
78242-20-3

> <Purity>
95

> <URL>
https://www.enaminestore.com/catalog/EN300-85788

> <ROCS_ShapeQuery>
_hit0

> <ROCS_TanimotoCombo>
1.077 

> <ROCS_ShapeTanimoto>
0.480 

> <ROCS_ColorTanimoto>
0.597 

> <ROCS_RefTversky>
1.140 

> <ROCS_RefColorTversky>
0.747 

> <ROCS_RefTverskyCombo>
1.888 

> <ROCS_FitTversky>
0.453 

> <ROCS_FitColorTversky>
0.747 

> <ROCS_FitTverskyCombo>
1.201 

> <ROCS_ColorScore>
-2.990

> <ROCS_Overlap>
135.020

> <ROCS_Rank>
88                  

$$$$
untitled-dbase-25534_0
  -OEChem-06232314393D

 13 13  0     0  0  0  0  0  0999 V2000
   -5.9324    6.1027  -36.7976 C   0  0  0  0  0  0  0  0  0  0  0  0
   -6.8414    5.0018  -34.8954 C   0  0  0  0  0  0  0  0  0  0  0  0
   -5.9620    4.8894  -37.4761 C   0  0  0  0  0  0  0  0  0  0  0  0
   -6.3787    6.1685  -35.4824 C   0  0  0  0  0  0  0  0  0  0  0  0
   -6.4432    3.7799  -36.7997 C   0  0  0  0  0  0  0  0  0  0  0  0
   -6.8853    3.8049  -35.5224 N   0  0  0  0  0  0  0  0  0  0  0  0
   -5.5108    4.8206  -38.8068 N   0  0  0  0  0  0  0  0  0  0  0  0
   -6.3617    7.3222  -34.8056 F   0  0  0  0  0  0  0  0  0  0  0  0
   -6.5310    2.2219  -37.5266 Cl  0  0  0  0  0  0  0  0  0  0  0  0
   -5.5645    7.0029  -37.2819 H   0  0  0  0  0  0  0  0  0  0  0  0
   -7.2001    5.0004  -33.8715 H   0  0  0  0  0  0  0  0  0  0  0  0
   -5.2156    5.6585  -39.2695 H   0  0  0  0  0  0  0  0  0  0  0  0
   -5.5790    3.9539  -39.3044 H   0  0  0  0  0  0  0  0  0  0  0  0
  1  3  2  0  0  0  0
  1  4  1  0  0  0  0
  2  4  2  0  0  0  0
  2  6  1  0  0  0  0
  3  5  1  0  0  0  0
  3  7  1  0  0  0  0
  4  8  1  0  0  0  0
  5  6  2  0  0  0  0
  5  9  1  0  0  0  0
  1 10  1  0  0  0  0
  2 11  1  0  0  0  0
  7 12  1  0  0  0  0
  7 13  1  0  0  0  0
M  END
> <id>
EN300-6501575

> <smiles>
Cl.NC=1C=C(F)C=NC1Cl

> <MDLNUMBER>
MFCD31719770

> <IUPAC Name>
2-chloro-5-fluoropyridin-3-amine hydrochloride

> <CAS>
1607014-76-5

> <URL>
https://www.enaminestore.com/catalog/EN300-6501575

> <Saltdate>
Cl

> <ROCS_ShapeQuery>
_hit0

> <ROCS_TanimotoCombo>
1.077 

> <ROCS_ShapeTanimoto>
0.477 

> <ROCS_ColorTanimoto>
0.600 

> <ROCS_RefTversky>
1.304 

> <ROCS_RefColorTversky>
0.750 

> <ROCS_RefTverskyCombo>
2.053 

> <ROCS_FitTversky>
0.429 

> <ROCS_FitColorTversky>
0.750 

> <ROCS_FitTverskyCombo>
1.179 

> <ROCS_ColorScore>
-2.999

> <ROCS_Overlap>
159.431

> <ROCS_Rank>
89                  

$$$$
untitled-dbase-25485_0
  -OEChem-06232314393D

 13 13  0     0  0  0  0  0  0999 V2000
   -5.9324    6.1027  -36.7976 C   0  0  0  0  0  0  0  0  0  0  0  0
   -6.8414    5.0018  -34.8954 C   0  0  0  0  0  0  0  0  0  0  0  0
   -5.9620    4.8894  -37.4761 C   0  0  0  0  0  0  0  0  0  0  0  0
   -6.3787    6.1685  -35.4824 C   0  0  0  0  0  0  0  0  0  0  0  0
   -6.4432    3.7799  -36.7997 C   0  0  0  0  0  0  0  0  0  0  0  0
   -6.8853    3.8049  -35.5224 N   0  0  0  0  0  0  0  0  0  0  0  0
   -5.5108    4.8206  -38.8068 N   0  0  0  0  0  0  0  0  0  0  0  0
   -6.3617    7.3222  -34.8056 F   0  0  0  0  0  0  0  0  0  0  0  0
   -6.5310    2.2219  -37.5266 Cl  0  0  0  0  0  0  0  0  0  0  0  0
   -5.5645    7.0029  -37.2819 H   0  0  0  0  0  0  0  0  0  0  0  0
   -7.2001    5.0004  -33.8715 H   0  0  0  0  0  0  0  0  0  0  0  0
   -5.2156    5.6585  -39.2695 H   0  0  0  0  0  0  0  0  0  0  0  0
   -5.5790    3.9539  -39.3044 H   0  0  0  0  0  0  0  0  0  0  0  0
  1  3  2  0  0  0  0
  1  4  1  0  0  0  0
  2  4  2  0  0  0  0
  2  6  1  0  0  0  0
  3  5  1  0  0  0  0
  3  7  1  0  0  0  0
  4  8  1  0  0  0  0
  5  6  2  0  0  0  0
  5  9  1  0  0  0  0
  1 10  1  0  0  0  0
  2 11  1  0  0  0  0
  7 12  1  0  0  0  0
  7 13  1  0  0  0  0
M  END
> <id>
EN300-49685

> <smiles>
NC=1C=C(F)C=NC1Cl

> <MDLNUMBER>
MFCD08277275

> <IUPAC Name>
2-chloro-5-fluoropyridin-3-amine

> <CAS>
884495-37-8

> <URL>
https://www.enaminestore.com/catalog/EN300-49685

> <ROCS_ShapeQuery>
_hit0

> <ROCS_TanimotoCombo>
1.077 

> <ROCS_ShapeTanimoto>
0.477 

> <ROCS_ColorTanimoto>
0.600 

> <ROCS_RefTversky>
1.304 

> <ROCS_RefColorTversky>
0.750 

> <ROCS_RefTverskyCombo>
2.053 

> <ROCS_FitTversky>
0.429 

> <ROCS_FitColorTversky>
0.750 

> <ROCS_FitTverskyCombo>
1.179 

> <ROCS_ColorScore>
-2.999

> <ROCS_Overlap>
159.431

> <ROCS_Rank>
90                  

$$$$
untitled-dbase-10023_0
  -OEChem-06232314393D

 14 14  0     0  0  0  0  0  0999 V2000
   -6.4821    3.6023  -36.8421 C   0  0  0  0  0  0  0  0  0  0  0  0
   -6.0510    5.7444  -36.5964 C   0  0  0  0  0  0  0  0  0  0  0  0
   -5.9767    4.7289  -37.5181 C   0  0  0  0  0  0  0  0  0  0  0  0
   -6.8422    5.8624  -34.2213 C   0  0  0  0  0  0  0  0  0  0  0  0
   -6.8502    3.8759  -35.5876 N   0  0  0  0  0  0  0  0  0  0  0  0
   -6.5757    5.1860  -35.4681 N   0  0  0  0  0  0  0  0  0  0  0  0
   -5.5209    4.8023  -38.7827 N   0  0  0  0  0  0  0  0  0  0  0  0
   -6.5997    2.5921  -37.2081 H   0  0  0  0  0  0  0  0  0  0  0  0
   -5.7817    6.7910  -36.6444 H   0  0  0  0  0  0  0  0  0  0  0  0
   -7.8626    6.2526  -34.2606 H   0  0  0  0  0  0  0  0  0  0  0  0
   -6.7347    5.1559  -33.3935 H   0  0  0  0  0  0  0  0  0  0  0  0
   -6.1248    6.6776  -34.0918 H   0  0  0  0  0  0  0  0  0  0  0  0
   -5.4566    3.9734  -39.3953 H   0  0  0  0  0  0  0  0  0  0  0  0
   -5.1237    5.6705  -39.1766 H   0  0  0  0  0  0  0  0  0  0  0  0
  1  3  1  0  0  0  0
  1  5  2  0  0  0  0
  2  3  2  0  0  0  0
  2  6  1  0  0  0  0
  3  7  1  0  0  0  0
  4  6  1  0  0  0  0
  5  6  1  0  0  0  0
  1  8  1  0  0  0  0
  2  9  1  0  0  0  0
  4 10  1  0  0  0  0
  4 11  1  0  0  0  0
  4 12  1  0  0  0  0
  7 13  1  0  0  0  0
  7 14  1  0  0  0  0
M  END
> <id>
EN300-342623

> <smiles>
Cl.Cl.CN1C=C(N)C=N1

> <MDLNUMBER>
MFCD09025437

> <IUPAC Name>
1-methyl-1H-pyrazol-4-amine dihydrochloride

> <CAS>
1063734-49-5

> <Purity>
95

> <URL>
https://www.enaminestore.com/catalog/EN300-342623

> <Saltdate>
Cl

> <ROCS_ShapeQuery>
_hit0

> <ROCS_TanimotoCombo>
1.076 

> <ROCS_ShapeTanimoto>
0.479 

> <ROCS_ColorTanimoto>
0.597 

> <ROCS_RefTversky>
1.138 

> <ROCS_RefColorTversky>
0.748 

> <ROCS_RefTverskyCombo>
1.886 

> <ROCS_FitTversky>
0.453 

> <ROCS_FitColorTversky>
0.748 

> <ROCS_FitTverskyCombo>
1.201 

> <ROCS_ColorScore>
-2.991

> <ROCS_Overlap>
134.794

> <ROCS_Rank>
91                  

$$$$
untitled-dbase-7149_0
  -OEChem-06232314393D

 14 14  0     0  0  0  0  0  0999 V2000
   -6.4821    3.6023  -36.8421 C   0  0  0  0  0  0  0  0  0  0  0  0
   -6.0510    5.7444  -36.5964 C   0  0  0  0  0  0  0  0  0  0  0  0
   -5.9767    4.7289  -37.5181 C   0  0  0  0  0  0  0  0  0  0  0  0
   -6.8422    5.8624  -34.2213 C   0  0  0  0  0  0  0  0  0  0  0  0
   -6.8502    3.8759  -35.5876 N   0  0  0  0  0  0  0  0  0  0  0  0
   -6.5757    5.1860  -35.4681 N   0  0  0  0  0  0  0  0  0  0  0  0
   -5.5209    4.8023  -38.7827 N   0  0  0  0  0  0  0  0  0  0  0  0
   -6.5997    2.5921  -37.2081 H   0  0  0  0  0  0  0  0  0  0  0  0
   -5.7817    6.7910  -36.6444 H   0  0  0  0  0  0  0  0  0  0  0  0
   -7.8626    6.2526  -34.2606 H   0  0  0  0  0  0  0  0  0  0  0  0
   -6.7347    5.1559  -33.3935 H   0  0  0  0  0  0  0  0  0  0  0  0
   -6.1248    6.6776  -34.0918 H   0  0  0  0  0  0  0  0  0  0  0  0
   -5.4566    3.9734  -39.3953 H   0  0  0  0  0  0  0  0  0  0  0  0
   -5.1237    5.6705  -39.1766 H   0  0  0  0  0  0  0  0  0  0  0  0
  1  3  1  0  0  0  0
  1  5  2  0  0  0  0
  2  3  2  0  0  0  0
  2  6  1  0  0  0  0
  3  7  1  0  0  0  0
  4  6  1  0  0  0  0
  5  6  1  0  0  0  0
  1  8  1  0  0  0  0
  2  9  1  0  0  0  0
  4 10  1  0  0  0  0
  4 11  1  0  0  0  0
  4 12  1  0  0  0  0
  7 13  1  0  0  0  0
  7 14  1  0  0  0  0
M  END
> <id>
EN300-36073

> <smiles>
CN1C=C(N)C=N1

> <MDLNUMBER>
MFCD05667135

> <IUPAC Name>
1-methyl-1H-pyrazol-4-amine

> <CAS>
69843-13-6

> <Purity>
95

> <URL>
https://www.enaminestore.com/catalog/EN300-36073

> <ROCS_ShapeQuery>
_hit0

> <ROCS_TanimotoCombo>
1.076 

> <ROCS_ShapeTanimoto>
0.479 

> <ROCS_ColorTanimoto>
0.597 

> <ROCS_RefTversky>
1.138 

> <ROCS_RefColorTversky>
0.748 

> <ROCS_RefTverskyCombo>
1.886 

> <ROCS_FitTversky>
0.453 

> <ROCS_FitColorTversky>
0.748 

> <ROCS_FitTverskyCombo>
1.201 

> <ROCS_ColorScore>
-2.991

> <ROCS_Overlap>
134.794

> <ROCS_Rank>
92                  

$$$$
untitled-dbase-908_0
  -OEChem-06232314393D

 14 14  0     0  0  0  0  0  0999 V2000
   -6.4821    3.6023  -36.8421 C   0  0  0  0  0  0  0  0  0  0  0  0
   -6.0510    5.7444  -36.5964 C   0  0  0  0  0  0  0  0  0  0  0  0
   -5.9767    4.7289  -37.5181 C   0  0  0  0  0  0  0  0  0  0  0  0
   -6.8422    5.8624  -34.2213 C   0  0  0  0  0  0  0  0  0  0  0  0
   -6.8502    3.8759  -35.5876 N   0  0  0  0  0  0  0  0  0  0  0  0
   -6.5757    5.1860  -35.4681 N   0  0  0  0  0  0  0  0  0  0  0  0
   -5.5209    4.8023  -38.7827 N   0  0  0  0  0  0  0  0  0  0  0  0
   -6.5997    2.5921  -37.2081 H   0  0  0  0  0  0  0  0  0  0  0  0
   -5.7817    6.7910  -36.6444 H   0  0  0  0  0  0  0  0  0  0  0  0
   -7.8626    6.2526  -34.2606 H   0  0  0  0  0  0  0  0  0  0  0  0
   -6.7347    5.1559  -33.3935 H   0  0  0  0  0  0  0  0  0  0  0  0
   -6.1248    6.6776  -34.0918 H   0  0  0  0  0  0  0  0  0  0  0  0
   -5.4566    3.9734  -39.3953 H   0  0  0  0  0  0  0  0  0  0  0  0
   -5.1237    5.6705  -39.1766 H   0  0  0  0  0  0  0  0  0  0  0  0
  1  3  1  0  0  0  0
  1  5  2  0  0  0  0
  2  3  2  0  0  0  0
  2  6  1  0  0  0  0
  3  7  1  0  0  0  0
  4  6  1  0  0  0  0
  5  6  1  0  0  0  0
  1  8  1  0  0  0  0
  2  9  1  0  0  0  0
  4 10  1  0  0  0  0
  4 11  1  0  0  0  0
  4 12  1  0  0  0  0
  7 13  1  0  0  0  0
  7 14  1  0  0  0  0
M  END
> <id>
EN300-52973

> <smiles>
Cl.CN1C=C(N)C=N1

> <MDLNUMBER>
MFCD07626616

> <IUPAC Name>
1-methyl-1H-pyrazol-4-amine hydrochloride

> <CAS>
127107-23-7

> <Purity>
95

> <URL>
https://www.enaminestore.com/catalog/EN300-52973

> <Saltdate>
Cl

> <ROCS_ShapeQuery>
_hit0

> <ROCS_TanimotoCombo>
1.076 

> <ROCS_ShapeTanimoto>
0.479 

> <ROCS_ColorTanimoto>
0.597 

> <ROCS_RefTversky>
1.138 

> <ROCS_RefColorTversky>
0.748 

> <ROCS_RefTverskyCombo>
1.886 

> <ROCS_FitTversky>
0.453 

> <ROCS_FitColorTversky>
0.748 

> <ROCS_FitTverskyCombo>
1.201 

> <ROCS_ColorScore>
-2.991

> <ROCS_Overlap>
134.794

> <ROCS_Rank>
93                  

$$$$
untitled-dbase-3829_0
  -OEChem-06232314393D

 12 12  0     0  0  0  0  0  0999 V2000
   -5.8852    6.1343  -36.7109 C   0  0  0  0  0  0  0  0  0  0  0  0
   -6.4159    5.6954  -35.4856 C   0  0  0  0  0  0  0  0  0  0  0  0
   -5.9069    5.0120  -37.4959 C   0  0  0  0  0  0  0  0  0  0  0  0
   -6.7419    4.4000  -35.5089 N   0  0  0  0  0  0  0  0  0  0  0  0
   -6.5594    6.5375  -34.4311 N   0  0  0  0  0  0  0  0  0  0  0  0
   -5.5305    4.7855  -38.7700 N   0  0  0  0  0  0  0  0  0  0  0  0
   -6.4161    3.9703  -36.7897 O   0  0  0  0  0  0  0  0  0  0  0  0
   -5.5365    7.1193  -36.9877 H   0  0  0  0  0  0  0  0  0  0  0  0
   -6.2431    7.5138  -34.4713 H   0  0  0  0  0  0  0  0  0  0  0  0
   -6.9025    6.2100  -33.5202 H   0  0  0  0  0  0  0  0  0  0  0  0
   -5.1792    5.5382  -39.3824 H   0  0  0  0  0  0  0  0  0  0  0  0
   -5.6622    3.8703  -39.2283 H   0  0  0  0  0  0  0  0  0  0  0  0
  1  2  1  0  0  0  0
  1  3  2  0  0  0  0
  2  4  2  0  0  0  0
  2  5  1  0  0  0  0
  3  6  1  0  0  0  0
  3  7  1  0  0  0  0
  4  7  1  0  0  0  0
  1  8  1  0  0  0  0
  5  9  1  0  0  0  0
  5 10  1  0  0  0  0
  6 11  1  0  0  0  0
  6 12  1  0  0  0  0
M  END
> <id>
EN300-145612

> <smiles>
NC=1C=C(N)ON1

> <MDLNUMBER>
MFCD02181094

> <IUPAC Name>
1,2-oxazole-3,5-diamine

> <CAS>
412301-06-5

> <URL>
https://www.enaminestore.com/catalog/EN300-145612

> <ROCS_ShapeQuery>
_hit0

> <ROCS_TanimotoCombo>
1.076 

> <ROCS_ShapeTanimoto>
0.528 

> <ROCS_ColorTanimoto>
0.548 

> <ROCS_RefTversky>
1.219 

> <ROCS_RefColorTversky>
0.863 

> <ROCS_RefTverskyCombo>
2.083 

> <ROCS_FitTversky>
0.482 

> <ROCS_FitColorTversky>
0.599 

> <ROCS_FitTverskyCombo>
1.082 

> <ROCS_ColorScore>
-3.540

> <ROCS_Overlap>
144.477

> <ROCS_Rank>
94                  

$$$$
untitled-dbase-1087_0
  -OEChem-06232314393D

 12 12  0     0  0  0  0  0  0999 V2000
   -5.8852    6.1343  -36.7109 C   0  0  0  0  0  0  0  0  0  0  0  0
   -6.4159    5.6954  -35.4856 C   0  0  0  0  0  0  0  0  0  0  0  0
   -5.9069    5.0120  -37.4959 C   0  0  0  0  0  0  0  0  0  0  0  0
   -6.7419    4.4000  -35.5089 N   0  0  0  0  0  0  0  0  0  0  0  0
   -6.5594    6.5375  -34.4311 N   0  0  0  0  0  0  0  0  0  0  0  0
   -5.5305    4.7855  -38.7700 N   0  0  0  0  0  0  0  0  0  0  0  0
   -6.4161    3.9703  -36.7897 O   0  0  0  0  0  0  0  0  0  0  0  0
   -5.5365    7.1193  -36.9877 H   0  0  0  0  0  0  0  0  0  0  0  0
   -6.2431    7.5138  -34.4713 H   0  0  0  0  0  0  0  0  0  0  0  0
   -6.9025    6.2100  -33.5202 H   0  0  0  0  0  0  0  0  0  0  0  0
   -5.1792    5.5382  -39.3824 H   0  0  0  0  0  0  0  0  0  0  0  0
   -5.6622    3.8703  -39.2283 H   0  0  0  0  0  0  0  0  0  0  0  0
  1  2  1  0  0  0  0
  1  3  2  0  0  0  0
  2  4  2  0  0  0  0
  2  5  1  0  0  0  0
  3  6  1  0  0  0  0
  3  7  1  0  0  0  0
  4  7  1  0  0  0  0
  1  8  1  0  0  0  0
  5  9  1  0  0  0  0
  5 10  1  0  0  0  0
  6 11  1  0  0  0  0
  6 12  1  0  0  0  0
M  END
> <id>
EN300-60762

> <smiles>
Cl.NC=1C=C(N)ON1

> <MDLNUMBER>
MFCD16040004

> <IUPAC Name>
1,2-oxazole-3,5-diamine hydrochloride

> <CAS>
4264-07-7

> <Purity>
95

> <URL>
https://www.enaminestore.com/catalog/EN300-60762

> <Saltdate>
Cl

> <MP>
125-126

> <ROCS_ShapeQuery>
_hit0

> <ROCS_TanimotoCombo>
1.076 

> <ROCS_ShapeTanimoto>
0.528 

> <ROCS_ColorTanimoto>
0.548 

> <ROCS_RefTversky>
1.219 

> <ROCS_RefColorTversky>
0.863 

> <ROCS_RefTverskyCombo>
2.083 

> <ROCS_FitTversky>
0.482 

> <ROCS_FitColorTversky>
0.599 

> <ROCS_FitTverskyCombo>
1.082 

> <ROCS_ColorScore>
-3.540

> <ROCS_Overlap>
144.477

> <ROCS_Rank>
95                  

$$$$
untitled-dbase-9010_3
  -OEChem-06232314393D

 17 17  0     1  0  0  0  0  0999 V2000
   -6.6675    5.2352  -35.3731 C   0  0  0  0  0  0  0  0  0  0  0  0
   -6.3269    3.4974  -36.8876 C   0  0  0  0  0  0  0  0  0  0  0  0
   -6.3208    5.8396  -36.7219 C   0  0  2  0  0  0  0  0  0  0  0  0
   -5.5451    4.7063  -37.3614 C   0  0  2  0  0  0  0  0  0  0  0  0
   -5.5509    7.1450  -36.6283 C   0  0  0  0  0  0  0  0  0  0  0  0
   -6.8572    3.8286  -35.5961 O   0  0  0  0  0  0  0  0  0  0  0  0
   -5.5286    4.8083  -38.7699 O   0  0  0  0  0  0  0  0  0  0  0  0
   -5.8997    5.3830  -34.6119 H   0  0  0  0  0  0  0  0  0  0  0  0
   -7.6129    5.6346  -34.9959 H   0  0  0  0  0  0  0  0  0  0  0  0
   -7.1550    3.2296  -37.5498 H   0  0  0  0  0  0  0  0  0  0  0  0
   -5.6764    2.6272  -36.7570 H   0  0  0  0  0  0  0  0  0  0  0  0
   -7.2748    6.0400  -37.2826 H   0  0  0  0  0  0  0  0  0  0  0  0
   -4.4815    4.6580  -37.0151 H   0  0  0  0  0  0  0  0  0  0  0  0
   -4.6187    6.9854  -36.0893 H   0  0  0  0  0  0  0  0  0  0  0  0
   -6.1464    7.8871  -36.0994 H   0  0  0  0  0  0  0  0  0  0  0  0
   -5.3268    7.5133  -37.6280 H   0  0  0  0  0  0  0  0  0  0  0  0
   -5.1106    3.9981  -39.0999 H   0  0  0  0  0  0  0  0  0  0  0  0
  1  3  1  0  0  0  0
  1  6  1  0  0  0  0
  2  4  1  0  0  0  0
  2  6  1  0  0  0  0
  3  4  1  0  0  0  0
  3  5  1  6  0  0  0
  4  7  1  1  0  0  0
  1  8  1  0  0  0  0
  1  9  1  0  0  0  0
  2 10  1  0  0  0  0
  2 11  1  0  0  0  0
  3 12  1  0  0  0  0
  4 13  1  0  0  0  0
  5 14  1  0  0  0  0
  5 15  1  0  0  0  0
  5 16  1  0  0  0  0
  7 17  1  0  0  0  0
M  END
> <id>
EN300-310619

> <smiles>
C[C@@H]1COC[C@H]1O |&1:1,5,r|

> <MDLNUMBER>
MFCD27997511

> <IUPAC Name>
rac-(3R,4S)-4-methyloxolan-3-ol

> <CAS>
387357-58-6

> <Purity>
95

> <URL>
https://www.enaminestore.com/catalog/EN300-310619

> <ROCS_ShapeQuery>
_hit0

> <ROCS_TanimotoCombo>
1.075 

> <ROCS_ShapeTanimoto>
0.477 

> <ROCS_ColorTanimoto>
0.598 

> <ROCS_RefTversky>
1.090 

> <ROCS_RefColorTversky>
0.748 

> <ROCS_RefTverskyCombo>
1.839 

> <ROCS_FitTversky>
0.459 

> <ROCS_FitColorTversky>
0.748 

> <ROCS_FitTverskyCombo>
1.207 

> <ROCS_ColorScore>
-2.993

> <ROCS_Overlap>
128.044

> <ROCS_Rank>
96                  

$$$$
untitled-dbase-40588_3
  -OEChem-06232314393D

 17 17  0     1  0  0  0  0  0999 V2000
   -6.6675    5.2352  -35.3731 C   0  0  0  0  0  0  0  0  0  0  0  0
   -6.3269    3.4974  -36.8876 C   0  0  0  0  0  0  0  0  0  0  0  0
   -6.3208    5.8396  -36.7219 C   0  0  2  0  0  0  0  0  0  0  0  0
   -5.5451    4.7063  -37.3614 C   0  0  2  0  0  0  0  0  0  0  0  0
   -5.5509    7.1450  -36.6283 C   0  0  0  0  0  0  0  0  0  0  0  0
   -6.8572    3.8286  -35.5961 O   0  0  0  0  0  0  0  0  0  0  0  0
   -5.5286    4.8083  -38.7699 O   0  0  0  0  0  0  0  0  0  0  0  0
   -5.8997    5.3830  -34.6119 H   0  0  0  0  0  0  0  0  0  0  0  0
   -7.6129    5.6346  -34.9959 H   0  0  0  0  0  0  0  0  0  0  0  0
   -7.1550    3.2296  -37.5498 H   0  0  0  0  0  0  0  0  0  0  0  0
   -5.6764    2.6272  -36.7570 H   0  0  0  0  0  0  0  0  0  0  0  0
   -7.2748    6.0400  -37.2826 H   0  0  0  0  0  0  0  0  0  0  0  0
   -4.4815    4.6580  -37.0151 H   0  0  0  0  0  0  0  0  0  0  0  0
   -4.6187    6.9854  -36.0893 H   0  0  0  0  0  0  0  0  0  0  0  0
   -6.1464    7.8871  -36.0994 H   0  0  0  0  0  0  0  0  0  0  0  0
   -5.3268    7.5133  -37.6280 H   0  0  0  0  0  0  0  0  0  0  0  0
   -5.1106    3.9981  -39.0999 H   0  0  0  0  0  0  0  0  0  0  0  0
  1  3  1  0  0  0  0
  1  6  1  0  0  0  0
  2  4  1  0  0  0  0
  2  6  1  0  0  0  0
  3  4  1  0  0  0  0
  3  5  1  6  0  0  0
  4  7  1  1  0  0  0
  1  8  1  0  0  0  0
  1  9  1  0  0  0  0
  2 10  1  0  0  0  0
  2 11  1  0  0  0  0
  3 12  1  0  0  0  0
  4 13  1  0  0  0  0
  5 14  1  0  0  0  0
  5 15  1  0  0  0  0
  5 16  1  0  0  0  0
  7 17  1  0  0  0  0
M  END
> <id>
EN300-6731067

> <smiles>
C[C@@H]1COC[C@H]1O

> <MDLNUMBER>
MFCD30345250

> <IUPAC Name>
(3S,4R)-4-methyloxolan-3-ol

> <CAS>
1932424-95-7

> <Purity>
95

> <URL>
https://www.enaminestore.com/catalog/EN300-6731067

> <ROCS_ShapeQuery>
_hit0

> <ROCS_TanimotoCombo>
1.075 

> <ROCS_ShapeTanimoto>
0.477 

> <ROCS_ColorTanimoto>
0.598 

> <ROCS_RefTversky>
1.090 

> <ROCS_RefColorTversky>
0.748 

> <ROCS_RefTverskyCombo>
1.839 

> <ROCS_FitTversky>
0.459 

> <ROCS_FitColorTversky>
0.748 

> <ROCS_FitTverskyCombo>
1.207 

> <ROCS_ColorScore>
-2.993

> <ROCS_Overlap>
128.044

> <ROCS_Rank>
97                  

$$$$
untitled-dbase-8252_0
  -OEChem-06232314393D

 19 19  0     0  0  0  0  0  0999 V2000
   -5.9394    6.1107  -36.7936 C   0  0  0  0  0  0  0  0  0  0  0  0
   -6.8448    5.0030  -34.8937 C   0  0  0  0  0  0  0  0  0  0  0  0
   -6.3861    6.1724  -35.4783 C   0  0  0  0  0  0  0  0  0  0  0  0
   -5.9647    4.8986  -37.4744 C   0  0  0  0  0  0  0  0  0  0  0  0
   -6.4422    3.7862  -36.8003 C   0  0  0  0  0  0  0  0  0  0  0  0
   -6.3717    7.4537  -34.7228 C   0  0  0  0  0  0  0  0  0  0  0  0
   -6.4938    2.4558  -37.4787 C   0  0  0  0  0  0  0  0  0  0  0  0
   -6.8845    3.8072  -35.5230 N   0  0  0  0  0  0  0  0  0  0  0  0
   -5.5144    4.8253  -38.8047 N   0  0  0  0  0  0  0  0  0  0  0  0
   -5.5731    7.0083  -37.2862 H   0  0  0  0  0  0  0  0  0  0  0  0
   -7.2042    4.9898  -33.8693 H   0  0  0  0  0  0  0  0  0  0  0  0
   -7.3187    7.9928  -34.8594 H   0  0  0  0  0  0  0  0  0  0  0  0
   -6.2233    7.2847  -33.6469 H   0  0  0  0  0  0  0  0  0  0  0  0
   -5.5521    8.1070  -35.0543 H   0  0  0  0  0  0  0  0  0  0  0  0
   -5.5561    1.9118  -37.3183 H   0  0  0  0  0  0  0  0  0  0  0  0
   -7.3217    1.8477  -37.0946 H   0  0  0  0  0  0  0  0  0  0  0  0
   -6.6534    2.5681  -38.5581 H   0  0  0  0  0  0  0  0  0  0  0  0
   -5.4935    3.9376  -39.2687 H   0  0  0  0  0  0  0  0  0  0  0  0
   -5.1322    5.6427  -39.2401 H   0  0  0  0  0  0  0  0  0  0  0  0
  1  3  1  0  0  0  0
  1  4  2  0  0  0  0
  2  3  2  0  0  0  0
  2  8  1  0  0  0  0
  3  6  1  0  0  0  0
  4  5  1  0  0  0  0
  4  9  1  0  0  0  0
  5  7  1  0  0  0  0
  5  8  2  0  0  0  0
  1 10  1  0  0  0  0
  2 11  1  0  0  0  0
  6 12  1  0  0  0  0
  6 13  1  0  0  0  0
  6 14  1  0  0  0  0
  7 15  1  0  0  0  0
  7 16  1  0  0  0  0
  7 17  1  0  0  0  0
  9 18  1  0  0  0  0
  9 19  1  0  0  0  0
M  END
> <id>
EN300-157538

> <smiles>
CC=1C=NC(C)=C(N)C1

> <MDLNUMBER>
MFCD13175353

> <IUPAC Name>
2,5-dimethylpyridin-3-amine

> <CAS>
89943-02-2

> <Purity>
95

> <URL>
https://www.enaminestore.com/catalog/EN300-157538

> <ROCS_ShapeQuery>
_hit0

> <ROCS_TanimotoCombo>
1.075 

> <ROCS_ShapeTanimoto>
0.475 

> <ROCS_ColorTanimoto>
0.600 

> <ROCS_RefTversky>
1.304 

> <ROCS_RefColorTversky>
0.750 

> <ROCS_RefTverskyCombo>
2.054 

> <ROCS_FitTversky>
0.428 

> <ROCS_FitColorTversky>
0.750 

> <ROCS_FitTverskyCombo>
1.177 

> <ROCS_ColorScore>
-2.999

> <ROCS_Overlap>
159.631

> <ROCS_Rank>
98                  

$$$$
untitled-dbase-28186_0
  -OEChem-06232314393D

 19 19  0     0  0  0  0  0  0999 V2000
   -5.9394    6.1107  -36.7936 C   0  0  0  0  0  0  0  0  0  0  0  0
   -6.8448    5.0030  -34.8937 C   0  0  0  0  0  0  0  0  0  0  0  0
   -6.3861    6.1724  -35.4783 C   0  0  0  0  0  0  0  0  0  0  0  0
   -5.9647    4.8986  -37.4744 C   0  0  0  0  0  0  0  0  0  0  0  0
   -6.4422    3.7862  -36.8003 C   0  0  0  0  0  0  0  0  0  0  0  0
   -6.3717    7.4537  -34.7228 C   0  0  0  0  0  0  0  0  0  0  0  0
   -6.4938    2.4558  -37.4787 C   0  0  0  0  0  0  0  0  0  0  0  0
   -6.8845    3.8072  -35.5230 N   0  0  0  0  0  0  0  0  0  0  0  0
   -5.5144    4.8253  -38.8047 N   0  0  0  0  0  0  0  0  0  0  0  0
   -5.5731    7.0083  -37.2862 H   0  0  0  0  0  0  0  0  0  0  0  0
   -7.2042    4.9898  -33.8693 H   0  0  0  0  0  0  0  0  0  0  0  0
   -7.3187    7.9928  -34.8594 H   0  0  0  0  0  0  0  0  0  0  0  0
   -6.2233    7.2847  -33.6469 H   0  0  0  0  0  0  0  0  0  0  0  0
   -5.5521    8.1070  -35.0543 H   0  0  0  0  0  0  0  0  0  0  0  0
   -5.5561    1.9118  -37.3183 H   0  0  0  0  0  0  0  0  0  0  0  0
   -7.3217    1.8477  -37.0946 H   0  0  0  0  0  0  0  0  0  0  0  0
   -6.6534    2.5681  -38.5581 H   0  0  0  0  0  0  0  0  0  0  0  0
   -5.4935    3.9376  -39.2687 H   0  0  0  0  0  0  0  0  0  0  0  0
   -5.1322    5.6427  -39.2401 H   0  0  0  0  0  0  0  0  0  0  0  0
  1  3  1  0  0  0  0
  1  4  2  0  0  0  0
  2  3  2  0  0  0  0
  2  8  1  0  0  0  0
  3  6  1  0  0  0  0
  4  5  1  0  0  0  0
  4  9  1  0  0  0  0
  5  7  1  0  0  0  0
  5  8  2  0  0  0  0
  1 10  1  0  0  0  0
  2 11  1  0  0  0  0
  6 12  1  0  0  0  0
  6 13  1  0  0  0  0
  6 14  1  0  0  0  0
  7 15  1  0  0  0  0
  7 16  1  0  0  0  0
  7 17  1  0  0  0  0
  9 18  1  0  0  0  0
  9 19  1  0  0  0  0
M  END
> <id>
EN300-7459935

> <smiles>
Cl.CC=1C=NC(C)=C(N)C1

> <MDLNUMBER>
MFCD32203607

> <IUPAC Name>
2,5-dimethylpyridin-3-amine hydrochloride

> <CAS>
2377031-75-7

> <Purity>
95

> <URL>
https://www.enaminestore.com/catalog/EN300-7459935

> <Saltdate>
Cl

> <ROCS_ShapeQuery>
_hit0

> <ROCS_TanimotoCombo>
1.075 

> <ROCS_ShapeTanimoto>
0.475 

> <ROCS_ColorTanimoto>
0.600 

> <ROCS_RefTversky>
1.304 

> <ROCS_RefColorTversky>
0.750 

> <ROCS_RefTverskyCombo>
2.054 

> <ROCS_FitTversky>
0.428 

> <ROCS_FitColorTversky>
0.750 

> <ROCS_FitTverskyCombo>
1.177 

> <ROCS_ColorScore>
-2.999

> <ROCS_Overlap>
159.631

> <ROCS_Rank>
99                  

$$$$
untitled-dbase-12179_0
  -OEChem-06232314393D

 13 13  0     0  0  0  0  0  0999 V2000
   -5.9626    6.1236  -36.8043 C   0  0  0  0  0  0  0  0  0  0  0  0
   -6.4283    3.7913  -36.8068 C   0  0  0  0  0  0  0  0  0  0  0  0
   -5.9650    4.9093  -37.4816 C   0  0  0  0  0  0  0  0  0  0  0  0
   -6.4170    6.1820  -35.4916 C   0  0  0  0  0  0  0  0  0  0  0  0
   -6.8602    5.0071  -34.9060 C   0  0  0  0  0  0  0  0  0  0  0  0
   -6.8776    3.8090  -35.5319 N   0  0  0  0  0  0  0  0  0  0  0  0
   -5.5112    4.8194  -38.8075 N   0  0  0  0  0  0  0  0  0  0  0  0
   -6.4253    7.3368  -34.8162 F   0  0  0  0  0  0  0  0  0  0  0  0
   -7.3023    5.0496  -33.6397 F   0  0  0  0  0  0  0  0  0  0  0  0
   -5.6085    7.0292  -37.2894 H   0  0  0  0  0  0  0  0  0  0  0  0
   -6.4537    2.8156  -37.2826 H   0  0  0  0  0  0  0  0  0  0  0  0
   -5.2245    5.6512  -39.2890 H   0  0  0  0  0  0  0  0  0  0  0  0
   -5.5669    3.9418  -39.2900 H   0  0  0  0  0  0  0  0  0  0  0  0
  1  3  1  0  0  0  0
  1  4  2  0  0  0  0
  2  3  2  0  0  0  0
  2  6  1  0  0  0  0
  3  7  1  0  0  0  0
  4  5  1  0  0  0  0
  4  8  1  0  0  0  0
  5  6  2  0  0  0  0
  5  9  1  0  0  0  0
  1 10  1  0  0  0  0
  2 11  1  0  0  0  0
  7 12  1  0  0  0  0
  7 13  1  0  0  0  0
M  END
> <id>
EN300-104355

> <smiles>
NC=1C=NC(F)=C(F)C1

> <MDLNUMBER>
MFCD13185332

> <IUPAC Name>
5,6-difluoropyridin-3-amine

> <CAS>
1214344-65-6

> <Purity>
95

> <URL>
https://www.enaminestore.com/catalog/EN300-104355

> <ROCS_ShapeQuery>
_hit0

> <ROCS_TanimotoCombo>
1.075 

> <ROCS_ShapeTanimoto>
0.475 

> <ROCS_ColorTanimoto>
0.600 

> <ROCS_RefTversky>
1.326 

> <ROCS_RefColorTversky>
0.750 

> <ROCS_RefTverskyCombo>
2.076 

> <ROCS_FitTversky>
0.425 

> <ROCS_FitColorTversky>
0.750 

> <ROCS_FitTverskyCombo>
1.175 

> <ROCS_ColorScore>
-3.000

> <ROCS_Overlap>
163.061

> <ROCS_Rank>
100                 

$$$$
untitled-dbase-32178_0
  -OEChem-06232314393D

 13 12  0     1  0  0  0  0  0999 V2000
   -6.6140    4.5483  -36.5951 C   0  0  0  0  0  0  0  0  0  0  0  0
   -7.6634    5.8436  -38.4031 C   0  0  0  0  0  0  0  0  0  0  0  0
   -6.3504    5.4564  -37.7249 C   0  0  1  0  0  0  0  0  0  0  0  0
   -5.5939    6.6931  -37.2590 C   0  0  0  0  0  0  0  0  0  0  0  0
   -6.8207    3.8327  -35.7052 N   0  0  0  0  0  0  0  0  0  0  0  0
   -5.5525    4.7791  -38.6968 O   0  0  0  0  0  0  0  0  0  0  0  0
   -4.4037    6.3695  -36.7057 F   0  0  0  0  0  0  0  0  0  0  0  0
   -6.3002    7.3763  -36.3297 F   0  0  0  0  0  0  0  0  0  0  0  0
   -5.3519    7.5400  -38.2849 F   0  0  0  0  0  0  0  0  0  0  0  0
   -7.5017    6.5202  -39.2497 H   0  0  0  0  0  0  0  0  0  0  0  0
   -8.3384    6.3417  -37.6964 H   0  0  0  0  0  0  0  0  0  0  0  0
   -8.1951    4.9559  -38.7646 H   0  0  0  0  0  0  0  0  0  0  0  0
   -4.7296    4.5308  -38.2496 H   0  0  0  0  0  0  0  0  0  0  0  0
  1  3  1  0  0  0  0
  1  5  3  0  0  0  0
  2  3  1  0  0  0  0
  3  4  1  0  0  0  0
  3  6  1  0  0  0  0
  4  7  1  0  0  0  0
  4  8  1  0  0  0  0
  4  9  1  0  0  0  0
  2 10  1  0  0  0  0
  2 11  1  0  0  0  0
  2 12  1  0  0  0  0
  6 13  1  0  0  0  0
M  END
> <id>
EN300-188363

> <smiles>
CC(O)(C#N)C(F)(F)F

> <MDLNUMBER>
MFCD00040885

> <IUPAC Name>
3,3,3-trifluoro-2-hydroxy-2-methylpropanenitrile

> <CAS>
335-08-0

> <Purity>
95

> <URL>
https://www.enaminestore.com/catalog/EN300-188363

> <ROCS_ShapeQuery>
_hit0

> <ROCS_TanimotoCombo>
1.074 

> <ROCS_ShapeTanimoto>
0.349 

> <ROCS_ColorTanimoto>
0.725 

> <ROCS_RefTversky>
1.041 

> <ROCS_RefColorTversky>
0.745 

> <ROCS_RefTverskyCombo>
1.786 

> <ROCS_FitTversky>
0.344 

> <ROCS_FitColorTversky>
0.964 

> <ROCS_FitTverskyCombo>
1.309 

> <ROCS_ColorScore>
-2.941

> <ROCS_Overlap>
127.229

> <ROCS_Rank>
101                 

$$$$
untitled-dbase-49040_0
  -OEChem-06232314393D

 13 13  0     0  0  0  0  0  0999 V2000
   -5.9862    6.1231  -36.8029 C   0  0  0  0  0  0  0  0  0  0  0  0
   -6.8782    5.0023  -34.9043 C   0  0  0  0  0  0  0  0  0  0  0  0
   -5.9757    4.9075  -37.4777 C   0  0  0  0  0  0  0  0  0  0  0  0
   -6.4445    6.1800  -35.4914 C   0  0  0  0  0  0  0  0  0  0  0  0
   -6.4301    3.7867  -36.8016 C   0  0  0  0  0  0  0  0  0  0  0  0
   -6.8828    3.8028  -35.5278 N   0  0  0  0  0  0  0  0  0  0  0  0
   -5.5163    4.8234  -38.8023 N   0  0  0  0  0  0  0  0  0  0  0  0
   -6.4294    2.6007  -37.4322 F   0  0  0  0  0  0  0  0  0  0  0  0
   -6.4718    7.6614  -34.6274 Cl  0  0  0  0  0  0  0  0  0  0  0  0
   -5.6374    7.0247  -37.3017 H   0  0  0  0  0  0  0  0  0  0  0  0
   -7.2458    4.9808  -33.8828 H   0  0  0  0  0  0  0  0  0  0  0  0
   -5.2366    5.6585  -39.2818 H   0  0  0  0  0  0  0  0  0  0  0  0
   -5.5615    3.9458  -39.2855 H   0  0  0  0  0  0  0  0  0  0  0  0
  1  3  2  0  0  0  0
  1  4  1  0  0  0  0
  2  4  2  0  0  0  0
  2  6  1  0  0  0  0
  3  5  1  0  0  0  0
  3  7  1  0  0  0  0
  4  9  1  0  0  0  0
  5  6  2  0  0  0  0
  5  8  1  0  0  0  0
  1 10  1  0  0  0  0
  2 11  1  0  0  0  0
  7 12  1  0  0  0  0
  7 13  1  0  0  0  0
M  END
> <id>
EN300-1295865

> <smiles>
NC=1C=C(Cl)C=NC1F

> <MDLNUMBER>
MFCD06659521

> <IUPAC Name>
5-chloro-2-fluoropyridin-3-amine

> <CAS>
103999-78-6

> <URL>
https://www.enaminestore.com/catalog/EN300-1295865

> <ROCS_ShapeQuery>
_hit0

> <ROCS_TanimotoCombo>
1.074 

> <ROCS_ShapeTanimoto>
0.474 

> <ROCS_ColorTanimoto>
0.600 

> <ROCS_RefTversky>
1.300 

> <ROCS_RefColorTversky>
0.750 

> <ROCS_RefTverskyCombo>
2.050 

> <ROCS_FitTversky>
0.427 

> <ROCS_FitColorTversky>
0.750 

> <ROCS_FitTverskyCombo>
1.177 

> <ROCS_ColorScore>
-3.000

> <ROCS_Overlap>
159.108

> <ROCS_Rank>
102                 

$$$$
untitled-dbase-801_0
  -OEChem-06232314393D

 10 10  0     0  0  0  0  0  0999 V2000
   -6.5270    3.5929  -36.8601 C   0  0  0  0  0  0  0  0  0  0  0  0
   -5.9919    5.6867  -36.5484 C   0  0  0  0  0  0  0  0  0  0  0  0
   -5.9710    4.7095  -37.5080 C   0  0  0  0  0  0  0  0  0  0  0  0
   -6.8666    3.8573  -35.5954 N   0  0  0  0  0  0  0  0  0  0  0  0
   -5.5216    4.8045  -38.7726 N   0  0  0  0  0  0  0  0  0  0  0  0
   -6.5242    5.1903  -35.4024 O   0  0  0  0  0  0  0  0  0  0  0  0
   -6.7008    2.5997  -37.2485 H   0  0  0  0  0  0  0  0  0  0  0  0
   -5.6870    6.7224  -36.5147 H   0  0  0  0  0  0  0  0  0  0  0  0
   -5.1713    5.6917  -39.1696 H   0  0  0  0  0  0  0  0  0  0  0  0
   -5.5895    4.0216  -39.4434 H   0  0  0  0  0  0  0  0  0  0  0  0
  1  3  1  0  0  0  0
  1  4  2  0  0  0  0
  2  3  2  0  0  0  0
  2  6  1  0  0  0  0
  3  5  1  0  0  0  0
  4  6  1  0  0  0  0
  1  7  1  0  0  0  0
  2  8  1  0  0  0  0
  5  9  1  0  0  0  0
  5 10  1  0  0  0  0
M  END
> <id>
EN300-44060

> <smiles>
NC=1C=NOC1

> <MDLNUMBER>
MFCD08234629

> <IUPAC Name>
1,2-oxazol-4-amine

> <CAS>
108511-97-3

> <Purity>
95

> <URL>
https://www.enaminestore.com/catalog/EN300-44060

> <ROCS_ShapeQuery>
_hit0

> <ROCS_TanimotoCombo>
1.073 

> <ROCS_ShapeTanimoto>
0.476 

> <ROCS_ColorTanimoto>
0.597 

> <ROCS_RefTversky>
1.029 

> <ROCS_RefColorTversky>
0.748 

> <ROCS_RefTverskyCombo>
1.777 

> <ROCS_FitTversky>
0.470 

> <ROCS_FitColorTversky>
0.748 

> <ROCS_FitTverskyCombo>
1.218 

> <ROCS_ColorScore>
-2.992

> <ROCS_Overlap>
119.573

> <ROCS_Rank>
103                 

$$$$
untitled-dbase-28647_0
  -OEChem-06232314393D

 18 18  0     0  0  0  0  0  0999 V2000
   -5.9175    6.1074  -36.8278 C   0  0  0  0  0  0  0  0  0  0  0  0
   -6.8276    5.0075  -34.9256 C   0  0  0  0  0  0  0  0  0  0  0  0
   -6.3639    6.1737  -35.5126 C   0  0  0  0  0  0  0  0  0  0  0  0
   -5.9480    4.8940  -37.5061 C   0  0  0  0  0  0  0  0  0  0  0  0
   -6.4302    3.7850  -36.8297 C   0  0  0  0  0  0  0  0  0  0  0  0
   -6.3458    7.4560  -34.7594 C   0  0  0  0  0  0  0  0  0  0  0  0
   -6.4820    2.4575  -37.5119 C   0  0  0  0  0  0  0  0  0  0  0  0
   -6.8724    3.8106  -35.5525 N   0  0  0  0  0  0  0  0  0  0  0  0
   -5.5164    4.8183  -38.7909 O   0  0  0  0  0  0  0  0  0  0  0  0
   -5.5471    6.9997  -37.3262 H   0  0  0  0  0  0  0  0  0  0  0  0
   -7.1900    4.9984  -33.9024 H   0  0  0  0  0  0  0  0  0  0  0  0
   -7.2912    7.9979  -34.8969 H   0  0  0  0  0  0  0  0  0  0  0  0
   -6.1981    7.2887  -33.6831 H   0  0  0  0  0  0  0  0  0  0  0  0
   -5.5243    8.1065  -35.0918 H   0  0  0  0  0  0  0  0  0  0  0  0
   -5.5455    1.9109  -37.3510 H   0  0  0  0  0  0  0  0  0  0  0  0
   -7.3117    1.8487  -37.1321 H   0  0  0  0  0  0  0  0  0  0  0  0
   -6.6386    2.5725  -38.5917 H   0  0  0  0  0  0  0  0  0  0  0  0
   -5.2165    5.6892  -39.1006 H   0  0  0  0  0  0  0  0  0  0  0  0
  1  3  1  0  0  0  0
  1  4  2  0  0  0  0
  2  3  2  0  0  0  0
  2  8  1  0  0  0  0
  3  6  1  0  0  0  0
  4  5  1  0  0  0  0
  4  9  1  0  0  0  0
  5  7  1  0  0  0  0
  5  8  2  0  0  0  0
  1 10  1  0  0  0  0
  2 11  1  0  0  0  0
  6 12  1  0  0  0  0
  6 13  1  0  0  0  0
  6 14  1  0  0  0  0
  7 15  1  0  0  0  0
  7 16  1  0  0  0  0
  7 17  1  0  0  0  0
  9 18  1  0  0  0  0
M  END
> <id>
EN300-261819

> <smiles>
CC=1C=NC(C)=C(O)C1

> <MDLNUMBER>
MFCD12546432

> <IUPAC Name>
2,5-dimethylpyridin-3-ol

> <CAS>
175170-53-3

> <Purity>
95

> <URL>
https://www.enaminestore.com/catalog/EN300-261819

> <ROCS_ShapeQuery>
_hit0

> <ROCS_TanimotoCombo>
1.073 

> <ROCS_ShapeTanimoto>
0.473 

> <ROCS_ColorTanimoto>
0.600 

> <ROCS_RefTversky>
1.304 

> <ROCS_RefColorTversky>
0.750 

> <ROCS_RefTverskyCombo>
2.054 

> <ROCS_FitTversky>
0.426 

> <ROCS_FitColorTversky>
0.750 

> <ROCS_FitTverskyCombo>
1.176 

> <ROCS_ColorScore>
-2.999

> <ROCS_Overlap>
159.725

> <ROCS_Rank>
104                 

$$$$
untitled-dbase-19320_3
  -OEChem-06232314393D

 14 14  0     1  0  0  0  0  0999 V2000
   -6.4511    3.5236  -36.9348 C   0  0  0  0  0  0  0  0  0  0  0  0
   -6.7696    5.2561  -35.4195 C   0  0  0  0  0  0  0  0  0  0  0  0
   -5.5582    4.6627  -37.3658 C   0  0  2  0  0  0  0  0  0  0  0  0
   -6.2211    5.8431  -36.7026 C   0  0  2  0  0  0  0  0  0  0  0  0
   -6.8569    3.8339  -35.5978 O   0  0  0  0  0  0  0  0  0  0  0  0
   -5.5293    4.8076  -38.7703 O   0  0  0  0  0  0  0  0  0  0  0  0
   -5.2988    6.7961  -36.4283 F   0  0  0  0  0  0  0  0  0  0  0  0
   -7.3388    3.4054  -37.5574 H   0  0  0  0  0  0  0  0  0  0  0  0
   -5.9000    2.5810  -36.8963 H   0  0  0  0  0  0  0  0  0  0  0  0
   -6.1329    5.4679  -34.5532 H   0  0  0  0  0  0  0  0  0  0  0  0
   -7.7840    5.6206  -35.2157 H   0  0  0  0  0  0  0  0  0  0  0  0
   -4.5146    4.5046  -37.0099 H   0  0  0  0  0  0  0  0  0  0  0  0
   -7.0204    6.3122  -37.3119 H   0  0  0  0  0  0  0  0  0  0  0  0
   -4.9388    5.5538  -38.9629 H   0  0  0  0  0  0  0  0  0  0  0  0
  1  3  1  0  0  0  0
  1  5  1  0  0  0  0
  2  4  1  0  0  0  0
  2  5  1  0  0  0  0
  3  4  1  0  0  0  0
  3  6  1  6  0  0  0
  4  7  1  1  0  0  0
  1  8  1  0  0  0  0
  1  9  1  0  0  0  0
  2 10  1  0  0  0  0
  2 11  1  0  0  0  0
  3 12  1  0  0  0  0
  4 13  1  0  0  0  0
  6 14  1  0  0  0  0
M  END
> <id>
EN300-1425913

> <smiles>
O[C@@H]1COC[C@H]1F |&1:1,5,r|

> <MDLNUMBER>
MFCD27997510

> <IUPAC Name>
rac-(3R,4R)-4-fluorooxolan-3-ol

> <CAS>
1793113-98-0

> <Purity>
95

> <URL>
https://www.enaminestore.com/catalog/EN300-1425913

> <ROCS_ShapeQuery>
_hit0

> <ROCS_TanimotoCombo>
1.072 

> <ROCS_ShapeTanimoto>
0.475 

> <ROCS_ColorTanimoto>
0.598 

> <ROCS_RefTversky>
1.104 

> <ROCS_RefColorTversky>
0.748 

> <ROCS_RefTverskyCombo>
1.852 

> <ROCS_FitTversky>
0.454 

> <ROCS_FitColorTversky>
0.748 

> <ROCS_FitTverskyCombo>
1.203 

> <ROCS_ColorScore>
-2.993

> <ROCS_Overlap>
130.024

> <ROCS_Rank>
105                 

$$$$
untitled-dbase-25059_0
  -OEChem-06232314393D

 11 11  0     0  0  0  0  0  0999 V2000
   -5.9738    5.7259  -36.5106 C   0  0  0  0  0  0  0  0  0  0  0  0
   -6.5172    5.1588  -35.3814 C   0  0  0  0  0  0  0  0  0  0  0  0
   -6.5102    3.5959  -36.9002 C   0  0  0  0  0  0  0  0  0  0  0  0
   -5.9694    4.7110  -37.4970 C   0  0  0  0  0  0  0  0  0  0  0  0
   -5.5256    4.8097  -38.7659 N   0  0  0  0  0  0  0  0  0  0  0  0
   -6.8467    3.8606  -35.6105 O   0  0  0  0  0  0  0  0  0  0  0  0
   -5.6261    6.7450  -36.6057 H   0  0  0  0  0  0  0  0  0  0  0  0
   -6.7250    5.5256  -34.3869 H   0  0  0  0  0  0  0  0  0  0  0  0
   -6.7137    2.5896  -37.2370 H   0  0  0  0  0  0  0  0  0  0  0  0
   -5.5154    4.0034  -39.4097 H   0  0  0  0  0  0  0  0  0  0  0  0
   -5.0866    5.6697  -39.1298 H   0  0  0  0  0  0  0  0  0  0  0  0
  1  2  2  0  0  0  0
  1  4  1  0  0  0  0
  2  6  1  0  0  0  0
  3  4  2  0  0  0  0
  3  6  1  0  0  0  0
  4  5  1  0  0  0  0
  1  7  1  0  0  0  0
  2  8  1  0  0  0  0
  3  9  1  0  0  0  0
  5 10  1  0  0  0  0
  5 11  1  0  0  0  0
M  END
> <id>
EN300-1692763

> <smiles>
NC=1C=COC1

> <MDLNUMBER>
MFCD16877036

> <IUPAC Name>
furan-3-amine

> <CAS>
29212-69-9

> <URL>
https://www.enaminestore.com/catalog/EN300-1692763

> <ROCS_ShapeQuery>
_hit0

> <ROCS_TanimotoCombo>
1.071 

> <ROCS_ShapeTanimoto>
0.475 

> <ROCS_ColorTanimoto>
0.596 

> <ROCS_RefTversky>
1.026 

> <ROCS_RefColorTversky>
0.747 

> <ROCS_RefTverskyCombo>
1.773 

> <ROCS_FitTversky>
0.470 

> <ROCS_FitColorTversky>
0.747 

> <ROCS_FitTverskyCombo>
1.217 

> <ROCS_ColorScore>
-2.988

> <ROCS_Overlap>
119.144

> <ROCS_Rank>
106                 

$$$$
untitled-dbase-35479_0
  -OEChem-06232314393D

 12 12  0     0  0  0  0  0  0999 V2000
   -5.9497    6.1183  -36.8279 C   0  0  0  0  0  0  0  0  0  0  0  0
   -6.8490    5.0073  -34.9270 C   0  0  0  0  0  0  0  0  0  0  0  0
   -5.9573    4.9032  -37.5037 C   0  0  0  0  0  0  0  0  0  0  0  0
   -6.4024    6.1799  -35.5147 C   0  0  0  0  0  0  0  0  0  0  0  0
   -6.4235    3.7877  -36.8269 C   0  0  0  0  0  0  0  0  0  0  0  0
   -6.8713    3.8085  -35.5514 N   0  0  0  0  0  0  0  0  0  0  0  0
   -5.5201    4.8160  -38.7845 O   0  0  0  0  0  0  0  0  0  0  0  0
   -6.4381    2.6052  -37.4626 F   0  0  0  0  0  0  0  0  0  0  0  0
   -6.4067    7.6608  -34.6496 Cl  0  0  0  0  0  0  0  0  0  0  0  0
   -5.5901    7.0127  -37.3311 H   0  0  0  0  0  0  0  0  0  0  0  0
   -7.2129    4.9896  -33.9040 H   0  0  0  0  0  0  0  0  0  0  0  0
   -5.5914    3.9020  -39.1080 H   0  0  0  0  0  0  0  0  0  0  0  0
  1  3  2  0  0  0  0
  1  4  1  0  0  0  0
  2  4  2  0  0  0  0
  2  6  1  0  0  0  0
  3  5  1  0  0  0  0
  3  7  1  0  0  0  0
  4  9  1  0  0  0  0
  5  6  2  0  0  0  0
  5  8  1  0  0  0  0
  1 10  1  0  0  0  0
  2 11  1  0  0  0  0
  7 12  1  0  0  0  0
M  END
> <id>
EN300-1968764

> <smiles>
OC=1C=C(Cl)C=NC1F

> <MDLNUMBER>
MFCD09835255

> <IUPAC Name>
5-chloro-2-fluoropyridin-3-ol

> <CAS>
1003711-65-6

> <Purity>
95

> <URL>
https://www.enaminestore.com/catalog/EN300-1968764

> <ROCS_ShapeQuery>
_hit0

> <ROCS_TanimotoCombo>
1.071 

> <ROCS_ShapeTanimoto>
0.472 

> <ROCS_ColorTanimoto>
0.600 

> <ROCS_RefTversky>
1.300 

> <ROCS_RefColorTversky>
0.750 

> <ROCS_RefTverskyCombo>
2.050 

> <ROCS_FitTversky>
0.425 

> <ROCS_FitColorTversky>
0.750 

> <ROCS_FitTverskyCombo>
1.175 

> <ROCS_ColorScore>
-2.999

> <ROCS_Overlap>
159.197

> <ROCS_Rank>
107                 

$$$$
untitled-dbase-13122_0
  -OEChem-06232314393D

 16 16  0     0  0  0  0  0  0999 V2000
   -5.9557    6.1176  -36.7921 C   0  0  0  0  0  0  0  0  0  0  0  0
   -6.8580    5.0005  -34.8962 C   0  0  0  0  0  0  0  0  0  0  0  0
   -6.4083    6.1745  -35.4787 C   0  0  0  0  0  0  0  0  0  0  0  0
   -5.9664    4.9055  -37.4734 C   0  0  0  0  0  0  0  0  0  0  0  0
   -6.4357    3.7883  -36.8016 C   0  0  0  0  0  0  0  0  0  0  0  0
   -6.4092    7.4549  -34.7220 C   0  0  0  0  0  0  0  0  0  0  0  0
   -6.8834    3.8046  -35.5261 N   0  0  0  0  0  0  0  0  0  0  0  0
   -5.5120    4.8209  -38.7998 N   0  0  0  0  0  0  0  0  0  0  0  0
   -6.4563    2.6062  -37.4392 F   0  0  0  0  0  0  0  0  0  0  0  0
   -5.5962    7.0192  -37.2826 H   0  0  0  0  0  0  0  0  0  0  0  0
   -7.2212    4.9835  -33.8732 H   0  0  0  0  0  0  0  0  0  0  0  0
   -7.3606    7.9854  -34.8620 H   0  0  0  0  0  0  0  0  0  0  0  0
   -6.2637    7.2866  -33.6456 H   0  0  0  0  0  0  0  0  0  0  0  0
   -5.5944    8.1165  -35.0494 H   0  0  0  0  0  0  0  0  0  0  0  0
   -5.2201    5.6539  -39.2757 H   0  0  0  0  0  0  0  0  0  0  0  0
   -5.5726    3.9467  -39.2873 H   0  0  0  0  0  0  0  0  0  0  0  0
  1  3  1  0  0  0  0
  1  4  2  0  0  0  0
  2  3  2  0  0  0  0
  2  7  1  0  0  0  0
  3  6  1  0  0  0  0
  4  5  1  0  0  0  0
  4  8  1  0  0  0  0
  5  7  2  0  0  0  0
  5  9  1  0  0  0  0
  1 10  1  0  0  0  0
  2 11  1  0  0  0  0
  6 12  1  0  0  0  0
  6 13  1  0  0  0  0
  6 14  1  0  0  0  0
  8 15  1  0  0  0  0
  8 16  1  0  0  0  0
M  END
> <id>
EN300-192808

> <smiles>
CC=1C=NC(F)=C(N)C1

> <MDLNUMBER>
MFCD13185334

> <IUPAC Name>
2-fluoro-5-methylpyridin-3-amine

> <CAS>
173435-33-1

> <Purity>
95

> <URL>
https://www.enaminestore.com/catalog/EN300-192808

> <MP>
27-29

> <ROCS_ShapeQuery>
_hit0

> <ROCS_TanimotoCombo>
1.071 

> <ROCS_ShapeTanimoto>
0.471 

> <ROCS_ColorTanimoto>
0.600 

> <ROCS_RefTversky>
1.308 

> <ROCS_RefColorTversky>
0.750 

> <ROCS_RefTverskyCombo>
2.058 

> <ROCS_FitTversky>
0.424 

> <ROCS_FitColorTversky>
0.750 

> <ROCS_FitTverskyCombo>
1.174 

> <ROCS_ColorScore>
-3.000

> <ROCS_Overlap>
160.517

> <ROCS_Rank>
108                 

$$$$
untitled-dbase-4190_0
  -OEChem-06232314393D

 10 10  0     0  0  0  0  0  0999 V2000
   -5.9818    5.7897  -36.5078 C   0  0  0  0  0  0  0  0  0  0  0  0
   -6.5434    5.1479  -35.3905 C   0  0  0  0  0  0  0  0  0  0  0  0
   -5.9543    4.8112  -37.4658 C   0  0  0  0  0  0  0  0  0  0  0  0
   -6.8414    3.8691  -35.6367 N   0  0  0  0  0  0  0  0  0  0  0  0
   -5.5318    4.8008  -38.7454 N   0  0  0  0  0  0  0  0  0  0  0  0
   -6.4648    3.6603  -36.9580 O   0  0  0  0  0  0  0  0  0  0  0  0
   -5.6474    6.8122  -36.6006 H   0  0  0  0  0  0  0  0  0  0  0  0
   -6.7488    5.5537  -34.4109 H   0  0  0  0  0  0  0  0  0  0  0  0
   -5.1757    5.6483  -39.2146 H   0  0  0  0  0  0  0  0  0  0  0  0
   -5.6297    3.9706  -39.3507 H   0  0  0  0  0  0  0  0  0  0  0  0
  1  2  1  0  0  0  0
  1  3  2  0  0  0  0
  2  4  2  0  0  0  0
  3  5  1  0  0  0  0
  3  6  1  0  0  0  0
  4  6  1  0  0  0  0
  1  7  1  0  0  0  0
  2  8  1  0  0  0  0
  5  9  1  0  0  0  0
  5 10  1  0  0  0  0
M  END
> <id>
EN300-99839

> <smiles>
NC1=CC=NO1

> <MDLNUMBER>
MFCD00128192

> <IUPAC Name>
1,2-oxazol-5-amine

> <CAS>
14678-05-8

> <Purity>
95

> <URL>
https://www.enaminestore.com/catalog/EN300-99839

> <MP>
74-76

> <ROCS_ShapeQuery>
_hit0

> <ROCS_TanimotoCombo>
1.070 

> <ROCS_ShapeTanimoto>
0.478 

> <ROCS_ColorTanimoto>
0.593 

> <ROCS_RefTversky>
1.034 

> <ROCS_RefColorTversky>
0.744 

> <ROCS_RefTverskyCombo>
1.778 

> <ROCS_FitTversky>
0.470 

> <ROCS_FitColorTversky>
0.744 

> <ROCS_FitTverskyCombo>
1.215 

> <ROCS_ColorScore>
-2.978

> <ROCS_Overlap>
120.119

> <ROCS_Rank>
109                 

$$$$
untitled-dbase-31892_0
  -OEChem-06232314393D

  9  9  0     0  0  0  0  0  0999 V2000
   -6.4752    3.5650  -36.8428 C   0  0  0  0  0  0  0  0  0  0  0  0
   -6.1208    5.7067  -36.6088 C   0  0  0  0  0  0  0  0  0  0  0  0
   -5.9963    4.6966  -37.5254 C   0  0  0  0  0  0  0  0  0  0  0  0
   -6.8668    3.8515  -35.5981 N   0  0  0  0  0  0  0  0  0  0  0  0
   -6.6392    5.2149  -35.4545 O   0  0  0  0  0  0  0  0  0  0  0  0
   -5.5228    4.8087  -38.7705 O   0  0  0  0  0  0  0  0  0  0  0  0
   -6.5566    2.5469  -37.1946 H   0  0  0  0  0  0  0  0  0  0  0  0
   -5.9021    6.7643  -36.6140 H   0  0  0  0  0  0  0  0  0  0  0  0
   -5.5301    3.9484  -39.2380 H   0  0  0  0  0  0  0  0  0  0  0  0
  1  3  1  0  0  0  0
  1  4  2  0  0  0  0
  2  3  2  0  0  0  0
  2  5  1  0  0  0  0
  3  6  1  0  0  0  0
  4  5  1  0  0  0  0
  1  7  1  0  0  0  0
  2  8  1  0  0  0  0
  6  9  1  0  0  0  0
M  END
> <id>
EN300-117533

> <smiles>
OC=1C=NOC1

> <MDLNUMBER>
MFCD18909313

> <IUPAC Name>
1,2-oxazol-4-ol

> <CAS>
80348-66-9

> <Purity>
95

> <URL>
https://www.enaminestore.com/catalog/EN300-117533

> <MP>
61-63

> <ROCS_ShapeQuery>
_hit0

> <ROCS_TanimotoCombo>
1.070 

> <ROCS_ShapeTanimoto>
0.473 

> <ROCS_ColorTanimoto>
0.597 

> <ROCS_RefTversky>
1.025 

> <ROCS_RefColorTversky>
0.748 

> <ROCS_RefTverskyCombo>
1.773 

> <ROCS_FitTversky>
0.467 

> <ROCS_FitColorTversky>
0.748 

> <ROCS_FitTverskyCombo>
1.215 

> <ROCS_ColorScore>
-2.992

> <ROCS_Overlap>
119.106

> <ROCS_Rank>
110                 

$$$$
untitled-dbase-9008_3
  -OEChem-06232314393D

 17 17  0     1  0  0  0  0  0999 V2000
   -6.2308    5.0871  -35.2294 C   0  0  0  0  0  0  0  0  0  0  0  0
   -6.5376    3.5517  -36.9563 C   0  0  0  0  0  0  0  0  0  0  0  0
   -5.8102    5.7665  -36.5241 C   0  0  1  0  0  0  0  0  0  0  0  0
   -5.4859    4.5569  -37.3839 C   0  0  2  0  0  0  0  0  0  0  0  0
   -6.9288    6.6432  -37.0899 C   0  0  0  0  0  0  0  0  0  0  0  0
   -6.8712    3.8541  -35.5948 O   0  0  0  0  0  0  0  0  0  0  0  0
   -5.5284    4.8210  -38.7693 O   0  0  0  0  0  0  0  0  0  0  0  0
   -5.3785    4.8721  -34.5754 H   0  0  0  0  0  0  0  0  0  0  0  0
   -6.9568    5.6830  -34.6625 H   0  0  0  0  0  0  0  0  0  0  0  0
   -7.4494    3.5922  -37.5613 H   0  0  0  0  0  0  0  0  0  0  0  0
   -6.1392    2.5308  -36.9740 H   0  0  0  0  0  0  0  0  0  0  0  0
   -4.9287    6.3468  -36.3685 H   0  0  0  0  0  0  0  0  0  0  0  0
   -4.4480    4.1598  -37.1598 H   0  0  0  0  0  0  0  0  0  0  0  0
   -7.8310    6.0491  -37.2491 H   0  0  0  0  0  0  0  0  0  0  0  0
   -6.6232    7.0770  -38.0441 H   0  0  0  0  0  0  0  0  0  0  0  0
   -7.1618    7.4535  -36.3961 H   0  0  0  0  0  0  0  0  0  0  0  0
   -4.8282    5.4678  -38.9512 H   0  0  0  0  0  0  0  0  0  0  0  0
  1  3  1  0  0  0  0
  1  6  1  0  0  0  0
  2  4  1  0  0  0  0
  2  6  1  0  0  0  0
  3  4  1  0  0  0  0
  3  5  1  0  0  0  0
  4  7  1  0  0  0  0
  1  8  1  0  0  0  0
  1  9  1  0  0  0  0
  2 10  1  0  0  0  0
  2 11  1  0  0  0  0
  3 12  1  0  0  0  0
  4 13  1  0  0  0  0
  5 14  1  0  0  0  0
  5 15  1  0  0  0  0
  5 16  1  0  0  0  0
  7 17  1  0  0  0  0
M  END
> <id>
EN300-310326

> <smiles>
CC1COCC1O

> <MDLNUMBER>
MFCD01725986

> <IUPAC Name>
4-methyloxolan-3-ol

> <CAS>
29848-42-8

> <URL>
https://www.enaminestore.com/catalog/EN300-310326

> <ROCS_ShapeQuery>
_hit0

> <ROCS_TanimotoCombo>
1.070 

> <ROCS_ShapeTanimoto>
0.472 

> <ROCS_ColorTanimoto>
0.597 

> <ROCS_RefTversky>
1.083 

> <ROCS_RefColorTversky>
0.748 

> <ROCS_RefTverskyCombo>
1.831 

> <ROCS_FitTversky>
0.456 

> <ROCS_FitColorTversky>
0.748 

> <ROCS_FitTverskyCombo>
1.204 

> <ROCS_ColorScore>
-2.992

> <ROCS_Overlap>
127.161

> <ROCS_Rank>
111                 

$$$$
untitled-dbase-671_0
  -OEChem-06232314393D

 13 13  0     0  0  0  0  0  0999 V2000
   -5.9775    5.8120  -36.5338 C   0  0  0  0  0  0  0  0  0  0  0  0
   -6.5366    5.1841  -35.4073 C   0  0  0  0  0  0  0  0  0  0  0  0
   -5.9498    4.8209  -37.4788 C   0  0  0  0  0  0  0  0  0  0  0  0
   -6.8071    5.7746  -34.0871 C   0  0  0  0  0  0  0  0  0  0  0  0
   -6.8330    3.9017  -35.6363 N   0  0  0  0  0  0  0  0  0  0  0  0
   -5.5292    4.7947  -38.7589 N   0  0  0  0  0  0  0  0  0  0  0  0
   -6.4578    3.6760  -36.9552 O   0  0  0  0  0  0  0  0  0  0  0  0
   -5.6441    6.8336  -36.6427 H   0  0  0  0  0  0  0  0  0  0  0  0
   -7.8212    6.2086  -34.0410 H   0  0  0  0  0  0  0  0  0  0  0  0
   -6.7273    5.0322  -33.2723 H   0  0  0  0  0  0  0  0  0  0  0  0
   -6.0913    6.5776  -33.8332 H   0  0  0  0  0  0  0  0  0  0  0  0
   -5.1754    5.6367  -39.2395 H   0  0  0  0  0  0  0  0  0  0  0  0
   -5.6265    3.9566  -39.3532 H   0  0  0  0  0  0  0  0  0  0  0  0
  1  2  1  0  0  0  0
  1  3  2  0  0  0  0
  2  4  1  0  0  0  0
  2  5  2  0  0  0  0
  3  6  1  0  0  0  0
  3  7  1  0  0  0  0
  5  7  1  0  0  0  0
  1  8  1  0  0  0  0
  4  9  1  0  0  0  0
  4 10  1  0  0  0  0
  4 11  1  0  0  0  0
  6 12  1  0  0  0  0
  6 13  1  0  0  0  0
M  END
> <id>
EN300-21774

> <smiles>
CC=1C=C(N)ON1

> <MDLNUMBER>
MFCD00003151

> <IUPAC Name>
3-methyl-1,2-oxazol-5-amine

> <CAS>
14678-02-5

> <Purity>
95

> <URL>
https://www.enaminestore.com/catalog/EN300-21774

> <MP>
82-84

> <ROCS_ShapeQuery>
_hit0

> <ROCS_TanimotoCombo>
1.069 

> <ROCS_ShapeTanimoto>
0.477 

> <ROCS_ColorTanimoto>
0.592 

> <ROCS_RefTversky>
1.131 

> <ROCS_RefColorTversky>
0.744 

> <ROCS_RefTverskyCombo>
1.875 

> <ROCS_FitTversky>
0.452 

> <ROCS_FitColorTversky>
0.744 

> <ROCS_FitTverskyCombo>
1.196 

> <ROCS_ColorScore>
-2.974

> <ROCS_Overlap>
133.860

> <ROCS_Rank>
112                 

$$$$
untitled-dbase-29745_3
  -OEChem-06232314393D

 15 15  0     1  0  0  0  0  0999 V2000
   -6.0061    5.7662  -36.5956 C   0  0  0  0  0  0  0  0  0  0  0  0
   -5.3715    6.9341  -36.7413 C   0  0  0  0  0  0  0  0  0  0  0  0
   -6.3461    5.1379  -35.2839 C   0  0  0  0  0  0  0  0  0  0  0  0
   -6.4029    3.5128  -36.9194 C   0  0  0  0  0  0  0  0  0  0  0  0
   -6.4192    4.8249  -37.6770 C   0  0  2  0  0  0  0  0  0  0  0  0
   -6.8582    3.8296  -35.5984 O   0  0  0  0  0  0  0  0  0  0  0  0
   -5.5266    4.8051  -38.7702 O   0  0  0  0  0  0  0  0  0  0  0  0
   -5.1587    7.3275  -37.7276 H   0  0  0  0  0  0  0  0  0  0  0  0
   -5.0601    7.5052  -35.8754 H   0  0  0  0  0  0  0  0  0  0  0  0
   -5.4674    5.0147  -34.6452 H   0  0  0  0  0  0  0  0  0  0  0  0
   -7.1230    5.6944  -34.7509 H   0  0  0  0  0  0  0  0  0  0  0  0
   -7.0963    2.7822  -37.3532 H   0  0  0  0  0  0  0  0  0  0  0  0
   -5.4063    3.0665  -36.8483 H   0  0  0  0  0  0  0  0  0  0  0  0
   -7.4536    5.0417  -38.0709 H   0  0  0  0  0  0  0  0  0  0  0  0
   -5.8824    4.1684  -39.4110 H   0  0  0  0  0  0  0  0  0  0  0  0
  1  2  2  0  0  0  0
  1  3  1  0  0  0  0
  1  5  1  0  0  0  0
  3  6  1  0  0  0  0
  4  5  1  0  0  0  0
  4  6  1  0  0  0  0
  5  7  1  0  0  0  0
  2  8  1  0  0  0  0
  2  9  1  0  0  0  0
  3 10  1  0  0  0  0
  3 11  1  0  0  0  0
  4 12  1  0  0  0  0
  4 13  1  0  0  0  0
  5 14  1  0  0  0  0
  7 15  1  0  0  0  0
M  END
> <id>
EN300-6497014

> <smiles>
OC1COCC1=C

> <MDLNUMBER>
MFCD30096085

> <IUPAC Name>
4-methylideneoxolan-3-ol

> <CAS>
390381-85-8

> <Purity>
95

> <URL>
https://www.enaminestore.com/catalog/EN300-6497014

> <ROCS_ShapeQuery>
_hit0

> <ROCS_TanimotoCombo>
1.069 

> <ROCS_ShapeTanimoto>
0.471 

> <ROCS_ColorTanimoto>
0.598 

> <ROCS_RefTversky>
1.092 

> <ROCS_RefColorTversky>
0.748 

> <ROCS_RefTverskyCombo>
1.840 

> <ROCS_FitTversky>
0.453 

> <ROCS_FitColorTversky>
0.748 

> <ROCS_FitTverskyCombo>
1.201 

> <ROCS_ColorScore>
-2.993

> <ROCS_Overlap>
128.538

> <ROCS_Rank>
113                 

$$$$
untitled-dbase-44854_0
  -OEChem-06232314393D

 15 15  0     0  0  0  0  0  0999 V2000
   -5.9213    6.1158  -36.8216 C   0  0  0  0  0  0  0  0  0  0  0  0
   -6.8297    5.0083  -34.9230 C   0  0  0  0  0  0  0  0  0  0  0  0
   -6.3686    6.1773  -35.5066 C   0  0  0  0  0  0  0  0  0  0  0  0
   -5.9484    4.9043  -37.5034 C   0  0  0  0  0  0  0  0  0  0  0  0
   -6.4282    3.7922  -36.8304 C   0  0  0  0  0  0  0  0  0  0  0  0
   -6.3526    7.4581  -34.7505 C   0  0  0  0  0  0  0  0  0  0  0  0
   -6.8712    3.8131  -35.5533 N   0  0  0  0  0  0  0  0  0  0  0  0
   -5.5178    4.8173  -38.7864 O   0  0  0  0  0  0  0  0  0  0  0  0
   -6.4618    2.6131  -37.4717 F   0  0  0  0  0  0  0  0  0  0  0  0
   -5.5513    7.0097  -37.3172 H   0  0  0  0  0  0  0  0  0  0  0  0
   -7.1915    4.9949  -33.8995 H   0  0  0  0  0  0  0  0  0  0  0  0
   -7.2987    7.9989  -34.8873 H   0  0  0  0  0  0  0  0  0  0  0  0
   -6.2050    7.2885  -33.6745 H   0  0  0  0  0  0  0  0  0  0  0  0
   -5.5318    8.1104  -35.0812 H   0  0  0  0  0  0  0  0  0  0  0  0
   -5.6032    3.9060  -39.1140 H   0  0  0  0  0  0  0  0  0  0  0  0
  1  3  1  0  0  0  0
  1  4  2  0  0  0  0
  2  3  2  0  0  0  0
  2  7  1  0  0  0  0
  3  6  1  0  0  0  0
  4  5  1  0  0  0  0
  4  8  1  0  0  0  0
  5  7  2  0  0  0  0
  5  9  1  0  0  0  0
  1 10  1  0  0  0  0
  2 11  1  0  0  0  0
  6 12  1  0  0  0  0
  6 13  1  0  0  0  0
  6 14  1  0  0  0  0
  8 15  1  0  0  0  0
M  END
> <id>
EN300-7418652

> <smiles>
CC=1C=NC(F)=C(O)C1

> <MDLNUMBER>
MFCD16611070

> <IUPAC Name>
2-fluoro-5-methylpyridin-3-ol

> <CAS>
1184172-53-9

> <Purity>
95

> <URL>
https://www.enaminestore.com/catalog/EN300-7418652

> <ROCS_ShapeQuery>
_hit0

> <ROCS_TanimotoCombo>
1.068 

> <ROCS_ShapeTanimoto>
0.469 

> <ROCS_ColorTanimoto>
0.600 

> <ROCS_RefTversky>
1.308 

> <ROCS_RefColorTversky>
0.750 

> <ROCS_RefTverskyCombo>
2.058 

> <ROCS_FitTversky>
0.422 

> <ROCS_FitColorTversky>
0.750 

> <ROCS_FitTverskyCombo>
1.172 

> <ROCS_ColorScore>
-2.999

> <ROCS_Overlap>
160.562

> <ROCS_Rank>
114                 

$$$$
untitled-dbase-2378_0
  -OEChem-06232314393D

 13 13  0     0  0  0  0  0  0999 V2000
   -6.5036    3.5744  -36.8552 C   0  0  0  0  0  0  0  0  0  0  0  0
   -5.9797    4.7053  -37.5050 C   0  0  0  0  0  0  0  0  0  0  0  0
   -6.0351    5.6849  -36.5493 C   0  0  0  0  0  0  0  0  0  0  0  0
   -5.6608    7.1055  -36.5193 C   0  0  0  0  0  0  0  0  0  0  0  0
   -6.8569    3.8329  -35.5930 N   0  0  0  0  0  0  0  0  0  0  0  0
   -5.5290    4.8041  -38.7695 N   0  0  0  0  0  0  0  0  0  0  0  0
   -6.5568    5.1765  -35.4037 O   0  0  0  0  0  0  0  0  0  0  0  0
   -6.6449    2.5749  -37.2406 H   0  0  0  0  0  0  0  0  0  0  0  0
   -6.5022    7.7516  -36.8277 H   0  0  0  0  0  0  0  0  0  0  0  0
   -5.3437    7.4357  -35.5126 H   0  0  0  0  0  0  0  0  0  0  0  0
   -4.8099    7.3303  -37.1893 H   0  0  0  0  0  0  0  0  0  0  0  0
   -5.2041    5.6982  -39.1717 H   0  0  0  0  0  0  0  0  0  0  0  0
   -5.5718    4.0144  -39.4340 H   0  0  0  0  0  0  0  0  0  0  0  0
  1  2  1  0  0  0  0
  1  5  2  0  0  0  0
  2  3  2  0  0  0  0
  2  6  1  0  0  0  0
  3  4  1  0  0  0  0
  3  7  1  0  0  0  0
  5  7  1  0  0  0  0
  1  8  1  0  0  0  0
  4  9  1  0  0  0  0
  4 10  1  0  0  0  0
  4 11  1  0  0  0  0
  6 12  1  0  0  0  0
  6 13  1  0  0  0  0
M  END
> <id>
EN300-113114

> <smiles>
Cl.CC=1ON=CC1N

> <MDLNUMBER>
MFCD22421799

> <IUPAC Name>
5-methyl-1,2-oxazol-4-amine hydrochloride

> <CAS>
100499-66-9

> <Purity>
95

> <URL>
https://www.enaminestore.com/catalog/EN300-113114

> <Saltdate>
Cl

> <MP>
190-195

> <ROCS_ShapeQuery>
_hit0

> <ROCS_TanimotoCombo>
1.068 

> <ROCS_ShapeTanimoto>
0.470 

> <ROCS_ColorTanimoto>
0.598 

> <ROCS_RefTversky>
1.119 

> <ROCS_RefColorTversky>
0.748 

> <ROCS_RefTverskyCombo>
1.868 

> <ROCS_FitTversky>
0.448 

> <ROCS_FitColorTversky>
0.748 

> <ROCS_FitTverskyCombo>
1.196 

> <ROCS_ColorScore>
-2.993

> <ROCS_Overlap>
132.435

> <ROCS_Rank>
115                 

$$$$
untitled-dbase-3907_0
  -OEChem-06232314393D

 13 13  0     0  0  0  0  0  0999 V2000
   -6.5036    3.5744  -36.8552 C   0  0  0  0  0  0  0  0  0  0  0  0
   -5.9797    4.7053  -37.5050 C   0  0  0  0  0  0  0  0  0  0  0  0
   -6.0351    5.6849  -36.5493 C   0  0  0  0  0  0  0  0  0  0  0  0
   -5.6608    7.1055  -36.5193 C   0  0  0  0  0  0  0  0  0  0  0  0
   -6.8569    3.8329  -35.5930 N   0  0  0  0  0  0  0  0  0  0  0  0
   -5.5290    4.8041  -38.7695 N   0  0  0  0  0  0  0  0  0  0  0  0
   -6.5568    5.1765  -35.4037 O   0  0  0  0  0  0  0  0  0  0  0  0
   -6.6449    2.5749  -37.2406 H   0  0  0  0  0  0  0  0  0  0  0  0
   -6.5022    7.7516  -36.8277 H   0  0  0  0  0  0  0  0  0  0  0  0
   -5.3437    7.4357  -35.5126 H   0  0  0  0  0  0  0  0  0  0  0  0
   -4.8099    7.3303  -37.1893 H   0  0  0  0  0  0  0  0  0  0  0  0
   -5.2041    5.6982  -39.1717 H   0  0  0  0  0  0  0  0  0  0  0  0
   -5.5718    4.0144  -39.4340 H   0  0  0  0  0  0  0  0  0  0  0  0
  1  2  1  0  0  0  0
  1  5  2  0  0  0  0
  2  3  2  0  0  0  0
  2  6  1  0  0  0  0
  3  4  1  0  0  0  0
  3  7  1  0  0  0  0
  5  7  1  0  0  0  0
  1  8  1  0  0  0  0
  4  9  1  0  0  0  0
  4 10  1  0  0  0  0
  4 11  1  0  0  0  0
  6 12  1  0  0  0  0
  6 13  1  0  0  0  0
M  END
> <id>
EN300-78586

> <smiles>
CC=1ON=CC1N

> <MDLNUMBER>
MFCD11848435

> <IUPAC Name>
5-methyl-1,2-oxazol-4-amine

> <CAS>
87988-94-1

> <URL>
https://www.enaminestore.com/catalog/EN300-78586

> <ROCS_ShapeQuery>
_hit0

> <ROCS_TanimotoCombo>
1.068 

> <ROCS_ShapeTanimoto>
0.470 

> <ROCS_ColorTanimoto>
0.598 

> <ROCS_RefTversky>
1.119 

> <ROCS_RefColorTversky>
0.748 

> <ROCS_RefTverskyCombo>
1.868 

> <ROCS_FitTversky>
0.448 

> <ROCS_FitColorTversky>
0.748 

> <ROCS_FitTverskyCombo>
1.196 

> <ROCS_ColorScore>
-2.993

> <ROCS_Overlap>
132.435

> <ROCS_Rank>
116                 

$$$$
untitled-dbase-16339_0
  -OEChem-06232314393D

 11 11  0     0  0  0  0  0  0999 V2000
   -6.4283    4.0846  -36.6715 C   0  0  0  0  0  0  0  0  0  0  0  0
   -5.8941    4.9860  -37.5682 C   0  0  0  0  0  0  0  0  0  0  0  0
   -6.4139    5.8605  -35.3847 C   0  0  0  0  0  0  0  0  0  0  0  0
   -6.7266    4.5842  -35.4188 N   0  0  0  0  0  0  0  0  0  0  0  0
   -5.5156    4.7571  -38.8481 N   0  0  0  0  0  0  0  0  0  0  0  0
   -6.5998    6.5982  -34.2975 O   0  0  0  0  0  0  0  0  0  0  0  0
   -5.7570    6.5252  -36.8241 S   0  0  0  0  0  0  0  0  0  0  0  0
   -6.6239    3.0402  -36.8773 H   0  0  0  0  0  0  0  0  0  0  0  0
   -5.5581    3.8194  -39.2686 H   0  0  0  0  0  0  0  0  0  0  0  0
   -5.0814    5.4888  -39.4260 H   0  0  0  0  0  0  0  0  0  0  0  0
   -6.9859    6.0779  -33.5584 H   0  0  0  0  0  0  0  0  0  0  0  0
  1  2  2  0  0  0  0
  1  4  1  0  0  0  0
  2  5  1  0  0  0  0
  2  7  1  0  0  0  0
  3  4  2  0  0  0  0
  3  6  1  0  0  0  0
  3  7  1  0  0  0  0
  1  8  1  0  0  0  0
  5  9  1  0  0  0  0
  5 10  1  0  0  0  0
  6 11  1  0  0  0  0
M  END
> <id>
EN300-1295503

> <smiles>
NC1=CN=C(O)S1

> <MDLNUMBER>
MFCD18817072

> <IUPAC Name>
5-amino-1,3-thiazol-2-ol

> <CAS>
98026-69-8

> <URL>
https://www.enaminestore.com/catalog/EN300-1295503

> <ROCS_ShapeQuery>
_hit0

> <ROCS_TanimotoCombo>
1.068 

> <ROCS_ShapeTanimoto>
0.551 

> <ROCS_ColorTanimoto>
0.516 

> <ROCS_RefTversky>
1.198 

> <ROCS_RefColorTversky>
0.831 

> <ROCS_RefTverskyCombo>
2.029 

> <ROCS_FitTversky>
0.505 

> <ROCS_FitColorTversky>
0.577 

> <ROCS_FitTverskyCombo>
1.082 

> <ROCS_ColorScore>
-3.409

> <ROCS_Overlap>
140.587

> <ROCS_Rank>
117                 

$$$$
untitled-dbase-43192_0
  -OEChem-06232314393D

 15 14  0     1  0  0  0  0  0999 V2000
   -5.1722    6.2842  -37.1516 C   0  0  0  0  0  0  0  0  0  0  0  0
   -5.6971    6.9554  -36.3051 C   0  0  0  0  0  0  0  0  0  0  0  0
   -7.6614    8.3406  -35.7560 C   0  0  0  0  0  0  0  0  0  0  0  0
   -4.5317    5.4673  -38.1816 C   0  0  0  0  0  0  0  0  0  0  0  0
   -6.3355    7.7769  -35.2693 C   0  0  1  0  0  0  0  0  0  0  0  0
   -5.5199    4.7485  -38.9062 O   0  0  0  0  0  0  0  0  0  0  0  0
   -6.5885    6.9892  -34.1093 O   0  0  0  0  0  0  0  0  0  0  0  0
   -8.3500    7.5445  -36.0579 H   0  0  0  0  0  0  0  0  0  0  0  0
   -7.5029    9.0084  -36.6099 H   0  0  0  0  0  0  0  0  0  0  0  0
   -8.1482    8.9380  -34.9759 H   0  0  0  0  0  0  0  0  0  0  0  0
   -3.9754    6.0958  -38.8838 H   0  0  0  0  0  0  0  0  0  0  0  0
   -3.8404    4.7486  -37.7312 H   0  0  0  0  0  0  0  0  0  0  0  0
   -5.6766    8.6019  -34.9776 H   0  0  0  0  0  0  0  0  0  0  0  0
   -5.9861    4.1880  -38.2648 H   0  0  0  0  0  0  0  0  0  0  0  0
   -5.7281    6.6619  -33.8042 H   0  0  0  0  0  0  0  0  0  0  0  0
  1  2  3  0  0  0  0
  1  4  1  0  0  0  0
  2  5  1  0  0  0  0
  3  5  1  0  0  0  0
  4  6  1  0  0  0  0
  5  7  1  0  0  0  0
  3  8  1  0  0  0  0
  3  9  1  0  0  0  0
  3 10  1  0  0  0  0
  4 11  1  0  0  0  0
  4 12  1  0  0  0  0
  5 13  1  0  0  0  0
  6 14  1  0  0  0  0
  7 15  1  0  0  0  0
M  END
> <id>
EN300-7585666

> <smiles>
CC(O)C#CCO

> <MDLNUMBER>
MFCD28971357

> <IUPAC Name>
pent-2-yne-1,4-diol

> <CAS>
927-57-1

> <Purity>
93

> <URL>
https://www.enaminestore.com/catalog/EN300-7585666

> <ROCS_ShapeQuery>
_hit0

> <ROCS_TanimotoCombo>
1.067 

> <ROCS_ShapeTanimoto>
0.496 

> <ROCS_ColorTanimoto>
0.571 

> <ROCS_RefTversky>
1.060 

> <ROCS_RefColorTversky>
0.727 

> <ROCS_RefTverskyCombo>
1.787 

> <ROCS_FitTversky>
0.482 

> <ROCS_FitColorTversky>
0.727 

> <ROCS_FitTverskyCombo>
1.210 

> <ROCS_ColorScore>
-2.909

> <ROCS_Overlap>
123.154

> <ROCS_Rank>
118                 

$$$$
untitled-dbase-52061_0
  -OEChem-06232314393D

 12 12  0     0  0  0  0  0  0999 V2000
   -6.4917    3.5592  -36.8517 C   0  0  0  0  0  0  0  0  0  0  0  0
   -5.9858    4.6893  -37.5170 C   0  0  0  0  0  0  0  0  0  0  0  0
   -6.0650    5.6829  -36.5776 C   0  0  0  0  0  0  0  0  0  0  0  0
   -5.7168    7.1099  -36.5711 C   0  0  0  0  0  0  0  0  0  0  0  0
   -6.8567    3.8312  -35.5957 N   0  0  0  0  0  0  0  0  0  0  0  0
   -6.5832    5.1832  -35.4266 O   0  0  0  0  0  0  0  0  0  0  0  0
   -5.5269    4.8091  -38.7676 O   0  0  0  0  0  0  0  0  0  0  0  0
   -6.6117    2.5523  -37.2239 H   0  0  0  0  0  0  0  0  0  0  0  0
   -6.5680    7.7354  -36.8951 H   0  0  0  0  0  0  0  0  0  0  0  0
   -5.4109    7.4641  -35.5688 H   0  0  0  0  0  0  0  0  0  0  0  0
   -4.8665    7.3388  -37.2407 H   0  0  0  0  0  0  0  0  0  0  0  0
   -5.5701    3.9583  -39.2499 H   0  0  0  0  0  0  0  0  0  0  0  0
  1  2  1  0  0  0  0
  1  5  2  0  0  0  0
  2  3  2  0  0  0  0
  2  7  1  0  0  0  0
  3  4  1  0  0  0  0
  3  6  1  0  0  0  0
  5  6  1  0  0  0  0
  1  8  1  0  0  0  0
  4  9  1  0  0  0  0
  4 10  1  0  0  0  0
  4 11  1  0  0  0  0
  7 12  1  0  0  0  0
M  END
> <id>
EN300-299263

> <smiles>
CC=1ON=CC1O

> <MDLNUMBER>
MFCD30662948

> <IUPAC Name>
5-methyl-1,2-oxazol-4-ol

> <CAS>
2090184-62-4

> <Purity>
95

> <URL>
https://www.enaminestore.com/catalog/EN300-299263

> <ROCS_ShapeQuery>
_hit0

> <ROCS_TanimotoCombo>
1.067 

> <ROCS_ShapeTanimoto>
0.470 

> <ROCS_ColorTanimoto>
0.598 

> <ROCS_RefTversky>
1.119 

> <ROCS_RefColorTversky>
0.748 

> <ROCS_RefTverskyCombo>
1.867 

> <ROCS_FitTversky>
0.447 

> <ROCS_FitColorTversky>
0.748 

> <ROCS_FitTverskyCombo>
1.195 

> <ROCS_ColorScore>
-2.993

> <ROCS_Overlap>
132.396

> <ROCS_Rank>
119                 

$$$$
untitled-dbase-17479_0
  -OEChem-06232314393D

 16 16  0     0  0  0  0  0  0999 V2000
   -6.1976    6.1410  -36.8861 C   0  0  0  0  0  0  0  0  0  0  0  0
   -7.0256    5.0108  -34.9642 C   0  0  0  0  0  0  0  0  0  0  0  0
   -6.3754    3.7715  -36.7862 C   0  0  0  0  0  0  0  0  0  0  0  0
   -6.7065    6.2032  -35.5936 C   0  0  0  0  0  0  0  0  0  0  0  0
   -6.0259    4.9059  -37.5010 C   0  0  0  0  0  0  0  0  0  0  0  0
   -6.9028    7.5086  -34.9089 C   0  0  0  0  0  0  0  0  0  0  0  0
   -6.8726    3.7922  -35.5292 N   0  0  0  0  0  0  0  0  0  0  0  0
   -5.5135    4.8125  -38.8053 N   0  0  0  0  0  0  0  0  0  0  0  0
   -6.5406    8.5887  -35.6658 F   0  0  0  0  0  0  0  0  0  0  0  0
   -8.1991    7.7513  -34.5467 F   0  0  0  0  0  0  0  0  0  0  0  0
   -6.1782    7.6156  -33.7552 F   0  0  0  0  0  0  0  0  0  0  0  0
   -5.9350    7.0561  -37.4121 H   0  0  0  0  0  0  0  0  0  0  0  0
   -7.4261    4.9966  -33.9553 H   0  0  0  0  0  0  0  0  0  0  0  0
   -6.2634    2.7792  -37.2130 H   0  0  0  0  0  0  0  0  0  0  0  0
   -5.3121    5.6505  -39.3179 H   0  0  0  0  0  0  0  0  0  0  0  0
   -5.4431    3.9137  -39.2447 H   0  0  0  0  0  0  0  0  0  0  0  0
  1  4  2  0  0  0  0
  1  5  1  0  0  0  0
  2  4  1  0  0  0  0
  2  7  2  0  0  0  0
  3  5  2  0  0  0  0
  3  7  1  0  0  0  0
  4  6  1  0  0  0  0
  5  8  1  0  0  0  0
  6  9  1  0  0  0  0
  6 10  1  0  0  0  0
  6 11  1  0  0  0  0
  1 12  1  0  0  0  0
  2 13  1  0  0  0  0
  3 14  1  0  0  0  0
  8 15  1  0  0  0  0
  8 16  1  0  0  0  0
M  END
> <id>
EN300-78448

> <smiles>
NC=1C=NC=C(C1)C(F)(F)F

> <MDLNUMBER>
MFCD00128900

> <IUPAC Name>
5-(trifluoromethyl)pyridin-3-amine

> <CAS>
112110-07-3

> <Purity>
95

> <URL>
https://www.enaminestore.com/catalog/EN300-78448

> <MP>
40-42

> <ROCS_ShapeQuery>
_hit0

> <ROCS_TanimotoCombo>
1.067 

> <ROCS_ShapeTanimoto>
0.467 

> <ROCS_ColorTanimoto>
0.600 

> <ROCS_RefTversky>
1.496 

> <ROCS_RefColorTversky>
0.750 

> <ROCS_RefTverskyCombo>
2.246 

> <ROCS_FitTversky>
0.404 

> <ROCS_FitColorTversky>
0.750 

> <ROCS_FitTverskyCombo>
1.154 

> <ROCS_ColorScore>
-2.999

> <ROCS_Overlap>
190.938

> <ROCS_Rank>
120                 

$$$$
untitled-dbase-2555_0
  -OEChem-06232314393D

  9  8  0     0  0  0  0  0  0999 V2000
   -6.1220    5.8232  -37.9865 C   0  0  0  0  0  0  0  0  0  0  0  0
   -5.9161    5.5392  -36.4986 C   0  0  0  0  0  0  0  0  0  0  0  0
   -5.5215    4.8087  -38.7847 O   0  0  0  0  0  0  0  0  0  0  0  0
   -6.6865    6.8387  -35.5380 Cl  0  0  0  0  0  0  0  0  0  0  0  0
   -4.1723    5.4923  -36.1035 Cl  0  0  0  0  0  0  0  0  0  0  0  0
   -6.6610    3.9767  -36.0484 Cl  0  0  0  0  0  0  0  0  0  0  0  0
   -7.1888    5.8607  -38.2366 H   0  0  0  0  0  0  0  0  0  0  0  0
   -5.6748    6.7831  -38.2702 H   0  0  0  0  0  0  0  0  0  0  0  0
   -4.5752    4.8108  -38.5709 H   0  0  0  0  0  0  0  0  0  0  0  0
  1  2  1  0  0  0  0
  1  3  1  0  0  0  0
  2  4  1  0  0  0  0
  2  5  1  0  0  0  0
  2  6  1  0  0  0  0
  1  7  1  0  0  0  0
  1  8  1  0  0  0  0
  3  9  1  0  0  0  0
M  END
> <id>
EN300-120004

> <smiles>
OCC(Cl)(Cl)Cl

> <MDLNUMBER>
MFCD00004677

> <IUPAC Name>
2,2,2-trichloroethan-1-ol

> <CAS>
115-20-8

> <Purity>
95

> <URL>
https://www.enaminestore.com/catalog/EN300-120004

> <MP>
16-17

> <ROCS_ShapeQuery>
_hit0

> <ROCS_TanimotoCombo>
1.067 

> <ROCS_ShapeTanimoto>
0.567 

> <ROCS_ColorTanimoto>
0.500 

> <ROCS_RefTversky>
0.980 

> <ROCS_RefColorTversky>
0.513 

> <ROCS_RefTverskyCombo>
1.493 

> <ROCS_FitTversky>
0.573 

> <ROCS_FitColorTversky>
0.952 

> <ROCS_FitTverskyCombo>
1.526 

> <ROCS_ColorScore>
-1.999

> <ROCS_Overlap>
110.689

> <ROCS_Rank>
121                 

$$$$
untitled-dbase-17532_0
  -OEChem-06232314393D

 13 13  0     0  0  0  0  0  0999 V2000
   -5.9581    6.1161  -36.7917 C   0  0  0  0  0  0  0  0  0  0  0  0
   -6.8592    4.9969  -34.8965 C   0  0  0  0  0  0  0  0  0  0  0  0
   -5.9662    4.9042  -37.4732 C   0  0  0  0  0  0  0  0  0  0  0  0
   -6.4115    6.1719  -35.4784 C   0  0  0  0  0  0  0  0  0  0  0  0
   -6.4337    3.7859  -36.8019 C   0  0  0  0  0  0  0  0  0  0  0  0
   -6.8821    3.8011  -35.5266 N   0  0  0  0  0  0  0  0  0  0  0  0
   -5.5123    4.8215  -38.8001 N   0  0  0  0  0  0  0  0  0  0  0  0
   -6.4167    7.3247  -34.8001 F   0  0  0  0  0  0  0  0  0  0  0  0
   -6.4533    2.6043  -37.4404 F   0  0  0  0  0  0  0  0  0  0  0  0
   -5.6018    7.0226  -37.2737 H   0  0  0  0  0  0  0  0  0  0  0  0
   -7.2233    4.9874  -33.8745 H   0  0  0  0  0  0  0  0  0  0  0  0
   -5.2229    5.6555  -39.2756 H   0  0  0  0  0  0  0  0  0  0  0  0
   -5.5710    3.9473  -39.2878 H   0  0  0  0  0  0  0  0  0  0  0  0
  1  3  2  0  0  0  0
  1  4  1  0  0  0  0
  2  4  2  0  0  0  0
  2  6  1  0  0  0  0
  3  5  1  0  0  0  0
  3  7  1  0  0  0  0
  4  8  1  0  0  0  0
  5  6  2  0  0  0  0
  5  9  1  0  0  0  0
  1 10  1  0  0  0  0
  2 11  1  0  0  0  0
  7 12  1  0  0  0  0
  7 13  1  0  0  0  0
M  END
> <id>
EN300-226002

> <smiles>
NC=1C=C(F)C=NC1F

> <MDLNUMBER>
MFCD13185330

> <IUPAC Name>
2,5-difluoropyridin-3-amine

> <CAS>
1214349-97-9

> <URL>
https://www.enaminestore.com/catalog/EN300-226002

> <ROCS_ShapeQuery>
_hit0

> <ROCS_TanimotoCombo>
1.067 

> <ROCS_ShapeTanimoto>
0.467 

> <ROCS_ColorTanimoto>
0.600 

> <ROCS_RefTversky>
1.311 

> <ROCS_RefColorTversky>
0.750 

> <ROCS_RefTverskyCombo>
2.061 

> <ROCS_FitTversky>
0.420 

> <ROCS_FitColorTversky>
0.750 

> <ROCS_FitTverskyCombo>
1.170 

> <ROCS_ColorScore>
-3.000

> <ROCS_Overlap>
161.135

> <ROCS_Rank>
122                 

$$$$
untitled-dbase-17413_0
  -OEChem-06232314393D

 15 15  0     0  0  0  0  0  0999 V2000
   -6.2140    6.1457  -36.9402 C   0  0  0  0  0  0  0  0  0  0  0  0
   -7.0417    5.0253  -35.0125 C   0  0  0  0  0  0  0  0  0  0  0  0
   -6.3593    3.7752  -36.8152 C   0  0  0  0  0  0  0  0  0  0  0  0
   -6.7342    6.2150  -35.6526 C   0  0  0  0  0  0  0  0  0  0  0  0
   -6.0199    4.9064  -37.5399 C   0  0  0  0  0  0  0  0  0  0  0  0
   -6.9534    7.5252  -34.9837 C   0  0  0  0  0  0  0  0  0  0  0  0
   -6.8671    3.8028  -35.5626 N   0  0  0  0  0  0  0  0  0  0  0  0
   -5.5144    4.8081  -38.7942 O   0  0  0  0  0  0  0  0  0  0  0  0
   -6.5993    8.6016  -35.7494 F   0  0  0  0  0  0  0  0  0  0  0  0
   -8.2556    7.7544  -34.6346 F   0  0  0  0  0  0  0  0  0  0  0  0
   -6.2397    7.6540  -33.8255 F   0  0  0  0  0  0  0  0  0  0  0  0
   -5.9593    7.0552  -37.4783 H   0  0  0  0  0  0  0  0  0  0  0  0
   -7.4503    5.0169  -34.0067 H   0  0  0  0  0  0  0  0  0  0  0  0
   -6.2282    2.7820  -37.2332 H   0  0  0  0  0  0  0  0  0  0  0  0
   -5.4430    3.8761  -39.0616 H   0  0  0  0  0  0  0  0  0  0  0  0
  1  4  2  0  0  0  0
  1  5  1  0  0  0  0
  2  4  1  0  0  0  0
  2  7  2  0  0  0  0
  3  5  2  0  0  0  0
  3  7  1  0  0  0  0
  4  6  1  0  0  0  0
  5  8  1  0  0  0  0
  6  9  1  0  0  0  0
  6 10  1  0  0  0  0
  6 11  1  0  0  0  0
  1 12  1  0  0  0  0
  2 13  1  0  0  0  0
  3 14  1  0  0  0  0
  8 15  1  0  0  0  0
M  END
> <id>
EN300-119356

> <smiles>
OC=1C=NC=C(C1)C(F)(F)F

> <MDLNUMBER>
MFCD10697687

> <IUPAC Name>
5-(trifluoromethyl)pyridin-3-ol

> <CAS>
186593-14-6

> <Purity>
95

> <URL>
https://www.enaminestore.com/catalog/EN300-119356

> <MP>
159-162

> <ROCS_ShapeQuery>
_hit0

> <ROCS_TanimotoCombo>
1.066 

> <ROCS_ShapeTanimoto>
0.466 

> <ROCS_ColorTanimoto>
0.600 

> <ROCS_RefTversky>
1.498 

> <ROCS_RefColorTversky>
0.750 

> <ROCS_RefTverskyCombo>
2.248 

> <ROCS_FitTversky>
0.404 

> <ROCS_FitColorTversky>
0.750 

> <ROCS_FitTverskyCombo>
1.153 

> <ROCS_ColorScore>
-2.999

> <ROCS_Overlap>
191.237

> <ROCS_Rank>
123                 

$$$$
untitled-dbase-6272_0
  -OEChem-06232314393D

 13 12  0     0  0  0  0  0  0999 V2000
   -6.7170    6.2380  -36.1566 C   0  0  0  0  0  0  0  0  0  0  0  0
   -6.4283    5.3353  -36.8945 C   0  0  0  0  0  0  0  0  0  0  0  0
   -7.0717    7.3406  -35.2605 C   0  0  0  0  0  0  0  0  0  0  0  0
   -6.0779    4.2339  -37.7903 C   0  0  0  0  0  0  0  0  0  0  0  0
   -6.5393    7.1073  -33.9415 N   0  0  0  0  0  0  0  0  0  0  0  0
   -5.4621    4.7473  -38.9630 O   0  0  0  0  0  0  0  0  0  0  0  0
   -8.1597    7.4425  -35.1965 H   0  0  0  0  0  0  0  0  0  0  0  0
   -6.6764    8.2856  -35.6465 H   0  0  0  0  0  0  0  0  0  0  0  0
   -5.3790    3.5467  -37.3040 H   0  0  0  0  0  0  0  0  0  0  0  0
   -6.9714    3.6746  -38.0842 H   0  0  0  0  0  0  0  0  0  0  0  0
   -6.7716    7.8785  -33.3511 H   0  0  0  0  0  0  0  0  0  0  0  0
   -6.9347    6.2686  -33.5707 H   0  0  0  0  0  0  0  0  0  0  0  0
   -4.6654    5.2229  -38.6766 H   0  0  0  0  0  0  0  0  0  0  0  0
  1  2  3  0  0  0  0
  1  3  1  0  0  0  0
  2  4  1  0  0  0  0
  3  5  1  0  0  0  0
  4  6  1  0  0  0  0
  3  7  1  0  0  0  0
  3  8  1  0  0  0  0
  4  9  1  0  0  0  0
  4 10  1  0  0  0  0
  5 11  1  0  0  0  0
  5 12  1  0  0  0  0
  6 13  1  0  0  0  0
M  END
> <id>
EN300-97741

> <smiles>
Cl.NCC#CCO

> <MDLNUMBER>
MFCD21602644

> <IUPAC Name>
4-aminobut-2-yn-1-ol hydrochloride

> <CAS>
39711-80-3

> <Purity>
95

> <URL>
https://www.enaminestore.com/catalog/EN300-97741

> <Saltdate>
Cl

> <MP>
175-178

> <ROCS_ShapeQuery>
_hit0

> <ROCS_TanimotoCombo>
1.066 

> <ROCS_ShapeTanimoto>
0.539 

> <ROCS_ColorTanimoto>
0.527 

> <ROCS_RefTversky>
1.010 

> <ROCS_RefColorTversky>
0.690 

> <ROCS_RefTverskyCombo>
1.699 

> <ROCS_FitTversky>
0.537 

> <ROCS_FitColorTversky>
0.690 

> <ROCS_FitTverskyCombo>
1.226 

> <ROCS_ColorScore>
-2.759

> <ROCS_Overlap>
115.125

> <ROCS_Rank>
124                 

$$$$
untitled-dbase-41295_0
  -OEChem-06232314393D

 13 12  0     0  0  0  0  0  0999 V2000
   -6.7170    6.2380  -36.1566 C   0  0  0  0  0  0  0  0  0  0  0  0
   -6.4283    5.3353  -36.8945 C   0  0  0  0  0  0  0  0  0  0  0  0
   -7.0717    7.3406  -35.2605 C   0  0  0  0  0  0  0  0  0  0  0  0
   -6.0779    4.2339  -37.7903 C   0  0  0  0  0  0  0  0  0  0  0  0
   -6.5393    7.1073  -33.9415 N   0  0  0  0  0  0  0  0  0  0  0  0
   -5.4621    4.7473  -38.9630 O   0  0  0  0  0  0  0  0  0  0  0  0
   -8.1597    7.4425  -35.1965 H   0  0  0  0  0  0  0  0  0  0  0  0
   -6.6764    8.2856  -35.6465 H   0  0  0  0  0  0  0  0  0  0  0  0
   -5.3790    3.5467  -37.3040 H   0  0  0  0  0  0  0  0  0  0  0  0
   -6.9714    3.6746  -38.0842 H   0  0  0  0  0  0  0  0  0  0  0  0
   -6.7716    7.8785  -33.3511 H   0  0  0  0  0  0  0  0  0  0  0  0
   -6.9347    6.2686  -33.5707 H   0  0  0  0  0  0  0  0  0  0  0  0
   -4.6654    5.2229  -38.6766 H   0  0  0  0  0  0  0  0  0  0  0  0
  1  2  3  0  0  0  0
  1  3  1  0  0  0  0
  2  4  1  0  0  0  0
  3  5  1  0  0  0  0
  4  6  1  0  0  0  0
  3  7  1  0  0  0  0
  3  8  1  0  0  0  0
  4  9  1  0  0  0  0
  4 10  1  0  0  0  0
  5 11  1  0  0  0  0
  5 12  1  0  0  0  0
  6 13  1  0  0  0  0
M  END
> <id>
EN300-97740

> <smiles>
NCC#CCO

> <MDLNUMBER>
MFCD19216648

> <IUPAC Name>
4-aminobut-2-yn-1-ol

> <CAS>
63200-68-0

> <URL>
https://www.enaminestore.com/catalog/EN300-97740

> <ROCS_ShapeQuery>
_hit0

> <ROCS_TanimotoCombo>
1.066 

> <ROCS_ShapeTanimoto>
0.539 

> <ROCS_ColorTanimoto>
0.527 

> <ROCS_RefTversky>
1.010 

> <ROCS_RefColorTversky>
0.690 

> <ROCS_RefTverskyCombo>
1.699 

> <ROCS_FitTversky>
0.537 

> <ROCS_FitColorTversky>
0.690 

> <ROCS_FitTverskyCombo>
1.226 

> <ROCS_ColorScore>
-2.759

> <ROCS_Overlap>
115.125

> <ROCS_Rank>
125                 

$$$$
untitled-dbase-42792_0
  -OEChem-06232314393D

 14 14  0     0  0  0  0  0  0999 V2000
   -6.5009    3.5958  -36.8493 C   0  0  0  0  0  0  0  0  0  0  0  0
   -5.9742    4.7204  -37.5123 C   0  0  0  0  0  0  0  0  0  0  0  0
   -6.0182    5.7234  -36.5750 C   0  0  0  0  0  0  0  0  0  0  0  0
   -6.7894    5.8265  -34.1941 C   0  0  0  0  0  0  0  0  0  0  0  0
   -6.8535    3.8589  -35.5882 N   0  0  0  0  0  0  0  0  0  0  0  0
   -6.5476    5.1604  -35.4512 N   0  0  0  0  0  0  0  0  0  0  0  0
   -5.5266    4.8004  -38.7798 N   0  0  0  0  0  0  0  0  0  0  0  0
   -5.6252    6.9885  -36.7268 F   0  0  0  0  0  0  0  0  0  0  0  0
   -6.6442    2.5940  -37.2295 H   0  0  0  0  0  0  0  0  0  0  0  0
   -7.8008    6.2404  -34.2208 H   0  0  0  0  0  0  0  0  0  0  0  0
   -6.6922    5.1071  -33.3763 H   0  0  0  0  0  0  0  0  0  0  0  0
   -6.0525    6.6232  -34.0597 H   0  0  0  0  0  0  0  0  0  0  0  0
   -5.4871    3.9786  -39.4038 H   0  0  0  0  0  0  0  0  0  0  0  0
   -5.1119    5.6641  -39.1647 H   0  0  0  0  0  0  0  0  0  0  0  0
  1  2  1  0  0  0  0
  1  5  2  0  0  0  0
  2  3  2  0  0  0  0
  2  7  1  0  0  0  0
  3  6  1  0  0  0  0
  3  8  1  0  0  0  0
  4  6  1  0  0  0  0
  5  6  1  0  0  0  0
  1  9  1  0  0  0  0
  4 10  1  0  0  0  0
  4 11  1  0  0  0  0
  4 12  1  0  0  0  0
  7 13  1  0  0  0  0
  7 14  1  0  0  0  0
M  END
> <id>
EN300-39707108

> <smiles>
CN1N=CC(N)=C1F.OC(=O)C(F)(F)F

> <IUPAC Name>
5-fluoro-1-methyl-1H-pyrazol-4-amine; trifluoroacetic acid

> <CAS>
2839158-24-4

> <Purity>
95

> <URL>
https://www.enaminestore.com/catalog/EN300-39707108

> <Saltdate>
OC(=O)C(F)(F)F

> <ROCS_ShapeQuery>
_hit0

> <ROCS_TanimotoCombo>
1.066 

> <ROCS_ShapeTanimoto>
0.468 

> <ROCS_ColorTanimoto>
0.598 

> <ROCS_RefTversky>
1.226 

> <ROCS_RefColorTversky>
0.748 

> <ROCS_RefTverskyCombo>
1.974 

> <ROCS_FitTversky>
0.431 

> <ROCS_FitColorTversky>
0.748 

> <ROCS_FitTverskyCombo>
1.179 

> <ROCS_ColorScore>
-2.992

> <ROCS_Overlap>
148.102

> <ROCS_Rank>
126                 

$$$$
untitled-dbase-43214_0
  -OEChem-06232314393D

 14 14  0     0  0  0  0  0  0999 V2000
   -6.5009    3.5958  -36.8493 C   0  0  0  0  0  0  0  0  0  0  0  0
   -5.9742    4.7204  -37.5123 C   0  0  0  0  0  0  0  0  0  0  0  0
   -6.0182    5.7234  -36.5750 C   0  0  0  0  0  0  0  0  0  0  0  0
   -6.7894    5.8265  -34.1941 C   0  0  0  0  0  0  0  0  0  0  0  0
   -6.8535    3.8589  -35.5882 N   0  0  0  0  0  0  0  0  0  0  0  0
   -6.5476    5.1604  -35.4512 N   0  0  0  0  0  0  0  0  0  0  0  0
   -5.5266    4.8004  -38.7798 N   0  0  0  0  0  0  0  0  0  0  0  0
   -5.6252    6.9885  -36.7268 F   0  0  0  0  0  0  0  0  0  0  0  0
   -6.6442    2.5940  -37.2295 H   0  0  0  0  0  0  0  0  0  0  0  0
   -7.8008    6.2404  -34.2208 H   0  0  0  0  0  0  0  0  0  0  0  0
   -6.6922    5.1071  -33.3763 H   0  0  0  0  0  0  0  0  0  0  0  0
   -6.0525    6.6232  -34.0597 H   0  0  0  0  0  0  0  0  0  0  0  0
   -5.4871    3.9786  -39.4038 H   0  0  0  0  0  0  0  0  0  0  0  0
   -5.1119    5.6641  -39.1647 H   0  0  0  0  0  0  0  0  0  0  0  0
  1  2  1  0  0  0  0
  1  5  2  0  0  0  0
  2  3  2  0  0  0  0
  2  7  1  0  0  0  0
  3  6  1  0  0  0  0
  3  8  1  0  0  0  0
  4  6  1  0  0  0  0
  5  6  1  0  0  0  0
  1  9  1  0  0  0  0
  4 10  1  0  0  0  0
  4 11  1  0  0  0  0
  4 12  1  0  0  0  0
  7 13  1  0  0  0  0
  7 14  1  0  0  0  0
M  END
> <id>
EN300-7325733

> <smiles>
CN1N=CC(N)=C1F

> <MDLNUMBER>
MFCD32744987

> <IUPAC Name>
5-fluoro-1-methyl-1H-pyrazol-4-amine

> <CAS>
1889188-35-5

> <URL>
https://www.enaminestore.com/catalog/EN300-7325733

> <ROCS_ShapeQuery>
_hit0

> <ROCS_TanimotoCombo>
1.066 

> <ROCS_ShapeTanimoto>
0.468 

> <ROCS_ColorTanimoto>
0.598 

> <ROCS_RefTversky>
1.226 

> <ROCS_RefColorTversky>
0.748 

> <ROCS_RefTverskyCombo>
1.974 

> <ROCS_FitTversky>
0.431 

> <ROCS_FitColorTversky>
0.748 

> <ROCS_FitTverskyCombo>
1.179 

> <ROCS_ColorScore>
-2.992

> <ROCS_Overlap>
148.102

> <ROCS_Rank>
127                 

$$$$
untitled-dbase-20802_0
  -OEChem-06232314393D

 16 16  0     0  0  0  0  0  0999 V2000
   -6.4901    3.5790  -36.8472 C   0  0  0  0  0  0  0  0  0  0  0  0
   -5.9817    4.7039  -37.5239 C   0  0  0  0  0  0  0  0  0  0  0  0
   -6.0513    5.7197  -36.6020 C   0  0  0  0  0  0  0  0  0  0  0  0
   -5.6716    7.1421  -36.6908 C   0  0  0  0  0  0  0  0  0  0  0  0
   -6.8508    5.8306  -34.2216 C   0  0  0  0  0  0  0  0  0  0  0  0
   -6.8555    3.8538  -35.5923 N   0  0  0  0  0  0  0  0  0  0  0  0
   -6.5764    5.1630  -35.4730 N   0  0  0  0  0  0  0  0  0  0  0  0
   -5.5256    4.8021  -38.7781 O   0  0  0  0  0  0  0  0  0  0  0  0
   -6.6083    2.5695  -37.2146 H   0  0  0  0  0  0  0  0  0  0  0  0
   -6.5156    7.7586  -37.0422 H   0  0  0  0  0  0  0  0  0  0  0  0
   -5.3454    7.5461  -35.7168 H   0  0  0  0  0  0  0  0  0  0  0  0
   -4.8280    7.3037  -37.3844 H   0  0  0  0  0  0  0  0  0  0  0  0
   -7.8731    6.2158  -34.2620 H   0  0  0  0  0  0  0  0  0  0  0  0
   -6.7425    5.1194  -33.3981 H   0  0  0  0  0  0  0  0  0  0  0  0
   -6.1380    6.6485  -34.0845 H   0  0  0  0  0  0  0  0  0  0  0  0
   -5.5741    3.9441  -39.2463 H   0  0  0  0  0  0  0  0  0  0  0  0
  1  2  1  0  0  0  0
  1  6  2  0  0  0  0
  2  3  2  0  0  0  0
  2  8  1  0  0  0  0
  3  4  1  0  0  0  0
  3  7  1  0  0  0  0
  5  7  1  0  0  0  0
  6  7  1  0  0  0  0
  1  9  1  0  0  0  0
  4 10  1  0  0  0  0
  4 11  1  0  0  0  0
  4 12  1  0  0  0  0
  5 13  1  0  0  0  0
  5 14  1  0  0  0  0
  5 15  1  0  0  0  0
  8 16  1  0  0  0  0
M  END
> <id>
EN300-1841860

> <smiles>
CC1=C(O)C=NN1C

> <MDLNUMBER>
MFCD23111038

> <IUPAC Name>
1,5-dimethyl-1H-pyrazol-4-ol

> <CAS>
85985-67-7

> <URL>
https://www.enaminestore.com/catalog/EN300-1841860

> <ROCS_ShapeQuery>
_hit0

> <ROCS_TanimotoCombo>
1.066 

> <ROCS_ShapeTanimoto>
0.468 

> <ROCS_ColorTanimoto>
0.598 

> <ROCS_RefTversky>
1.215 

> <ROCS_RefColorTversky>
0.748 

> <ROCS_RefTverskyCombo>
1.964 

> <ROCS_FitTversky>
0.432 

> <ROCS_FitColorTversky>
0.748 

> <ROCS_FitTverskyCombo>
1.180 

> <ROCS_ColorScore>
-2.993

> <ROCS_Overlap>
146.586

> <ROCS_Rank>
128                 

$$$$
untitled-dbase-2478_0
  -OEChem-06232314393D

 17 17  0     0  0  0  0  0  0999 V2000
   -6.4894    3.5905  -36.8478 C   0  0  0  0  0  0  0  0  0  0  0  0
   -5.9809    4.7224  -37.5126 C   0  0  0  0  0  0  0  0  0  0  0  0
   -6.0529    5.7290  -36.5808 C   0  0  0  0  0  0  0  0  0  0  0  0
   -5.6762    7.1542  -36.6525 C   0  0  0  0  0  0  0  0  0  0  0  0
   -6.8506    5.8151  -34.1993 C   0  0  0  0  0  0  0  0  0  0  0  0
   -6.8571    3.8526  -35.5908 N   0  0  0  0  0  0  0  0  0  0  0  0
   -6.5792    5.1608  -35.4582 N   0  0  0  0  0  0  0  0  0  0  0  0
   -5.5263    4.8002  -38.7783 N   0  0  0  0  0  0  0  0  0  0  0  0
   -6.6089    2.5840  -37.2237 H   0  0  0  0  0  0  0  0  0  0  0  0
   -6.5216    7.7719  -36.9975 H   0  0  0  0  0  0  0  0  0  0  0  0
   -5.3524    7.5465  -35.6733 H   0  0  0  0  0  0  0  0  0  0  0  0
   -4.8325    7.3252  -37.3430 H   0  0  0  0  0  0  0  0  0  0  0  0
   -7.8716    6.2043  -34.2346 H   0  0  0  0  0  0  0  0  0  0  0  0
   -6.7444    5.0941  -33.3839 H   0  0  0  0  0  0  0  0  0  0  0  0
   -6.1349    6.6289  -34.0533 H   0  0  0  0  0  0  0  0  0  0  0  0
   -5.2137    5.6900  -39.1980 H   0  0  0  0  0  0  0  0  0  0  0  0
   -5.5547    3.9955  -39.4243 H   0  0  0  0  0  0  0  0  0  0  0  0
  1  2  1  0  0  0  0
  1  6  2  0  0  0  0
  2  3  2  0  0  0  0
  2  8  1  0  0  0  0
  3  4  1  0  0  0  0
  3  7  1  0  0  0  0
  5  7  1  0  0  0  0
  6  7  1  0  0  0  0
  1  9  1  0  0  0  0
  4 10  1  0  0  0  0
  4 11  1  0  0  0  0
  4 12  1  0  0  0  0
  5 13  1  0  0  0  0
  5 14  1  0  0  0  0
  5 15  1  0  0  0  0
  8 16  1  0  0  0  0
  8 17  1  0  0  0  0
M  END
> <id>
EN300-105216

> <smiles>
CC1=C(N)C=NN1C

> <MDLNUMBER>
MFCD02253774

> <IUPAC Name>
1,5-dimethyl-1H-pyrazol-4-amine

> <CAS>
121983-36-6

> <Purity>
95

> <URL>
https://www.enaminestore.com/catalog/EN300-105216

> <ROCS_ShapeQuery>
_hit0

> <ROCS_TanimotoCombo>
1.066 

> <ROCS_ShapeTanimoto>
0.468 

> <ROCS_ColorTanimoto>
0.598 

> <ROCS_RefTversky>
1.214 

> <ROCS_RefColorTversky>
0.748 

> <ROCS_RefTverskyCombo>
1.963 

> <ROCS_FitTversky>
0.432 

> <ROCS_FitColorTversky>
0.748 

> <ROCS_FitTverskyCombo>
1.180 

> <ROCS_ColorScore>
-2.993

> <ROCS_Overlap>
146.435

> <ROCS_Rank>
129                 

$$$$
untitled-dbase-47987_0
  -OEChem-06232314393D

 14 14  0     0  0  0  0  0  0999 V2000
   -6.4855    3.5936  -36.8459 C   0  0  0  0  0  0  0  0  0  0  0  0
   -5.9814    4.7275  -37.5107 C   0  0  0  0  0  0  0  0  0  0  0  0
   -6.0589    5.7342  -36.5796 C   0  0  0  0  0  0  0  0  0  0  0  0
   -6.8627    5.8048  -34.1915 C   0  0  0  0  0  0  0  0  0  0  0  0
   -6.8558    3.8548  -35.5894 N   0  0  0  0  0  0  0  0  0  0  0  0
   -6.5841    5.1643  -35.4573 N   0  0  0  0  0  0  0  0  0  0  0  0
   -5.5267    4.8043  -38.7766 N   0  0  0  0  0  0  0  0  0  0  0  0
   -5.6470    7.3788  -36.6233 Cl  0  0  0  0  0  0  0  0  0  0  0  0
   -6.6010    2.5864  -37.2212 H   0  0  0  0  0  0  0  0  0  0  0  0
   -7.8858    6.1884  -34.2255 H   0  0  0  0  0  0  0  0  0  0  0  0
   -6.7542    5.0764  -33.3831 H   0  0  0  0  0  0  0  0  0  0  0  0
   -6.1520    6.6213  -34.0355 H   0  0  0  0  0  0  0  0  0  0  0  0
   -5.4642    3.9770  -39.3908 H   0  0  0  0  0  0  0  0  0  0  0  0
   -5.1296    5.6733  -39.1674 H   0  0  0  0  0  0  0  0  0  0  0  0
  1  2  1  0  0  0  0
  1  5  2  0  0  0  0
  2  3  2  0  0  0  0
  2  7  1  0  0  0  0
  3  6  1  0  0  0  0
  3  8  1  0  0  0  0
  4  6  1  0  0  0  0
  5  6  1  0  0  0  0
  1  9  1  0  0  0  0
  4 10  1  0  0  0  0
  4 11  1  0  0  0  0
  4 12  1  0  0  0  0
  7 13  1  0  0  0  0
  7 14  1  0  0  0  0
M  END
> <id>
EN300-306213

> <smiles>
Cl.Cl.CN1N=CC(N)=C1Cl

> <MDLNUMBER>
MFCD30342898

> <IUPAC Name>
5-chloro-1-methyl-1H-pyrazol-4-amine dihydrochloride

> <CAS>
1989672-54-9

> <Purity>
95

> <URL>
https://www.enaminestore.com/catalog/EN300-306213

> <Saltdate>
Cl

> <ROCS_ShapeQuery>
_hit0

> <ROCS_TanimotoCombo>
1.065 

> <ROCS_ShapeTanimoto>
0.468 

> <ROCS_ColorTanimoto>
0.598 

> <ROCS_RefTversky>
1.200 

> <ROCS_RefColorTversky>
0.748 

> <ROCS_RefTverskyCombo>
1.948 

> <ROCS_FitTversky>
0.434 

> <ROCS_FitColorTversky>
0.748 

> <ROCS_FitTverskyCombo>
1.182 

> <ROCS_ColorScore>
-2.993

> <ROCS_Overlap>
144.266

> <ROCS_Rank>
130                 

$$$$
untitled-dbase-8652_0
  -OEChem-06232314393D

 14 14  0     0  0  0  0  0  0999 V2000
   -6.4855    3.5936  -36.8459 C   0  0  0  0  0  0  0  0  0  0  0  0
   -5.9814    4.7275  -37.5107 C   0  0  0  0  0  0  0  0  0  0  0  0
   -6.0589    5.7342  -36.5796 C   0  0  0  0  0  0  0  0  0  0  0  0
   -6.8627    5.8048  -34.1915 C   0  0  0  0  0  0  0  0  0  0  0  0
   -6.8558    3.8548  -35.5894 N   0  0  0  0  0  0  0  0  0  0  0  0
   -6.5841    5.1643  -35.4573 N   0  0  0  0  0  0  0  0  0  0  0  0
   -5.5267    4.8043  -38.7766 N   0  0  0  0  0  0  0  0  0  0  0  0
   -5.6470    7.3788  -36.6233 Cl  0  0  0  0  0  0  0  0  0  0  0  0
   -6.6010    2.5864  -37.2212 H   0  0  0  0  0  0  0  0  0  0  0  0
   -7.8858    6.1884  -34.2255 H   0  0  0  0  0  0  0  0  0  0  0  0
   -6.7542    5.0764  -33.3831 H   0  0  0  0  0  0  0  0  0  0  0  0
   -6.1520    6.6213  -34.0355 H   0  0  0  0  0  0  0  0  0  0  0  0
   -5.4642    3.9770  -39.3908 H   0  0  0  0  0  0  0  0  0  0  0  0
   -5.1296    5.6733  -39.1674 H   0  0  0  0  0  0  0  0  0  0  0  0
  1  2  1  0  0  0  0
  1  5  2  0  0  0  0
  2  3  2  0  0  0  0
  2  7  1  0  0  0  0
  3  6  1  0  0  0  0
  3  8  1  0  0  0  0
  4  6  1  0  0  0  0
  5  6  1  0  0  0  0
  1  9  1  0  0  0  0
  4 10  1  0  0  0  0
  4 11  1  0  0  0  0
  4 12  1  0  0  0  0
  7 13  1  0  0  0  0
  7 14  1  0  0  0  0
M  END
> <id>
EN300-305744

> <smiles>
CN1N=CC(N)=C1Cl

> <MDLNUMBER>
MFCD19214140

> <IUPAC Name>
5-chloro-1-methyl-1H-pyrazol-4-amine

> <CAS>
406189-04-6

> <URL>
https://www.enaminestore.com/catalog/EN300-305744

> <ROCS_ShapeQuery>
_hit0

> <ROCS_TanimotoCombo>
1.065 

> <ROCS_ShapeTanimoto>
0.468 

> <ROCS_ColorTanimoto>
0.598 

> <ROCS_RefTversky>
1.200 

> <ROCS_RefColorTversky>
0.748 

> <ROCS_RefTverskyCombo>
1.948 

> <ROCS_FitTversky>
0.434 

> <ROCS_FitColorTversky>
0.748 

> <ROCS_FitTverskyCombo>
1.182 

> <ROCS_ColorScore>
-2.993

> <ROCS_Overlap>
144.266

> <ROCS_Rank>
131                 

$$$$
untitled-dbase-40721_0
  -OEChem-06232314393D

 13 13  0     0  0  0  0  0  0999 V2000
   -6.4631    3.5741  -36.8373 C   0  0  0  0  0  0  0  0  0  0  0  0
   -5.9862    4.7057  -37.5257 C   0  0  0  0  0  0  0  0  0  0  0  0
   -6.0924    5.7303  -36.6172 C   0  0  0  0  0  0  0  0  0  0  0  0
   -6.9074    5.8334  -34.2343 C   0  0  0  0  0  0  0  0  0  0  0  0
   -6.8438    3.8532  -35.5878 N   0  0  0  0  0  0  0  0  0  0  0  0
   -6.6061    5.1719  -35.4839 N   0  0  0  0  0  0  0  0  0  0  0  0
   -5.5264    4.8008  -38.7790 O   0  0  0  0  0  0  0  0  0  0  0  0
   -5.7201    7.3821  -36.7001 Cl  0  0  0  0  0  0  0  0  0  0  0  0
   -6.5496    2.5574  -37.1931 H   0  0  0  0  0  0  0  0  0  0  0  0
   -7.9405    6.1876  -34.2806 H   0  0  0  0  0  0  0  0  0  0  0  0
   -6.7822    5.1270  -33.4089 H   0  0  0  0  0  0  0  0  0  0  0  0
   -6.2202    6.6725  -34.0948 H   0  0  0  0  0  0  0  0  0  0  0  0
   -5.2600    5.7173  -38.9952 H   0  0  0  0  0  0  0  0  0  0  0  0
  1  2  1  0  0  0  0
  1  5  2  0  0  0  0
  2  3  2  0  0  0  0
  2  7  1  0  0  0  0
  3  6  1  0  0  0  0
  3  8  1  0  0  0  0
  4  6  1  0  0  0  0
  5  6  1  0  0  0  0
  1  9  1  0  0  0  0
  4 10  1  0  0  0  0
  4 11  1  0  0  0  0
  4 12  1  0  0  0  0
  7 13  1  0  0  0  0
M  END
> <id>
EN300-4837636

> <smiles>
CN1N=CC(O)=C1Cl

> <MDLNUMBER>
MFCD32012280

> <IUPAC Name>
5-chloro-1-methyl-1H-pyrazol-4-ol

> <CAS>
1890923-07-5

> <Purity>
95

> <URL>
https://www.enaminestore.com/catalog/EN300-4837636

> <ROCS_ShapeQuery>
_hit0

> <ROCS_TanimotoCombo>
1.065 

> <ROCS_ShapeTanimoto>
0.467 

> <ROCS_ColorTanimoto>
0.597 

> <ROCS_RefTversky>
1.200 

> <ROCS_RefColorTversky>
0.748 

> <ROCS_RefTverskyCombo>
1.948 

> <ROCS_FitTversky>
0.434 

> <ROCS_FitColorTversky>
0.748 

> <ROCS_FitTverskyCombo>
1.182 

> <ROCS_ColorScore>
-2.992

> <ROCS_Overlap>
144.313

> <ROCS_Rank>
132                 

$$$$
untitled-dbase-47425_0
  -OEChem-06232314393D

 12 12  0     0  0  0  0  0  0999 V2000
   -5.9815    5.8288  -36.5343 C   0  0  0  0  0  0  0  0  0  0  0  0
   -6.5415    5.1832  -35.4184 C   0  0  0  0  0  0  0  0  0  0  0  0
   -5.9425    4.8498  -37.4914 C   0  0  0  0  0  0  0  0  0  0  0  0
   -6.8214    5.7558  -34.0920 C   0  0  0  0  0  0  0  0  0  0  0  0
   -6.8279    3.9017  -35.6646 N   0  0  0  0  0  0  0  0  0  0  0  0
   -6.4449    3.6950  -36.9845 O   0  0  0  0  0  0  0  0  0  0  0  0
   -5.5382    4.7913  -38.7475 O   0  0  0  0  0  0  0  0  0  0  0  0
   -5.6540    6.8533  -36.6316 H   0  0  0  0  0  0  0  0  0  0  0  0
   -7.8383    6.1829  -34.0452 H   0  0  0  0  0  0  0  0  0  0  0  0
   -6.7404    5.0039  -33.2862 H   0  0  0  0  0  0  0  0  0  0  0  0
   -6.1117    6.5599  -33.8254 H   0  0  0  0  0  0  0  0  0  0  0  0
   -5.6633    3.8973  -39.1421 H   0  0  0  0  0  0  0  0  0  0  0  0
  1  2  1  0  0  0  0
  1  3  2  0  0  0  0
  2  4  1  0  0  0  0
  2  5  2  0  0  0  0
  3  6  1  0  0  0  0
  3  7  1  0  0  0  0
  5  6  1  0  0  0  0
  1  8  1  0  0  0  0
  4  9  1  0  0  0  0
  4 10  1  0  0  0  0
  4 11  1  0  0  0  0
  7 12  1  0  0  0  0
M  END
> <id>
EN300-91819

> <smiles>
CC=1C=C(O)ON1

> <MDLNUMBER>
MFCD01605708

> <IUPAC Name>
3-methyl-1,2-oxazol-5-ol

> <CAS>
45469-93-0

> <Purity>
95

> <URL>
https://www.enaminestore.com/catalog/EN300-91819

> <ROCS_ShapeQuery>
_hit0

> <ROCS_TanimotoCombo>
1.065 

> <ROCS_ShapeTanimoto>
0.476 

> <ROCS_ColorTanimoto>
0.589 

> <ROCS_RefTversky>
1.131 

> <ROCS_RefColorTversky>
0.741 

> <ROCS_RefTverskyCombo>
1.873 

> <ROCS_FitTversky>
0.451 

> <ROCS_FitColorTversky>
0.741 

> <ROCS_FitTverskyCombo>
1.192 

> <ROCS_ColorScore>
-2.965

> <ROCS_Overlap>
133.931

> <ROCS_Rank>
133                 

$$$$
untitled-dbase-27522_0
  -OEChem-06232314393D

 12 12  0     0  0  0  0  0  0999 V2000
   -5.8896    6.1068  -36.8080 C   0  0  0  0  0  0  0  0  0  0  0  0
   -6.8115    5.0018  -34.9144 C   0  0  0  0  0  0  0  0  0  0  0  0
   -5.9429    4.9016  -37.4992 C   0  0  0  0  0  0  0  0  0  0  0  0
   -6.3303    6.1664  -35.4906 C   0  0  0  0  0  0  0  0  0  0  0  0
   -6.4413    3.7936  -36.8331 C   0  0  0  0  0  0  0  0  0  0  0  0
   -6.8786    3.8127  -35.5540 N   0  0  0  0  0  0  0  0  0  0  0  0
   -5.5193    4.8171  -38.7847 O   0  0  0  0  0  0  0  0  0  0  0  0
   -6.2903    7.3122  -34.8014 F   0  0  0  0  0  0  0  0  0  0  0  0
   -6.5011    2.6207  -37.4839 F   0  0  0  0  0  0  0  0  0  0  0  0
   -5.5062    7.0018  -37.2896 H   0  0  0  0  0  0  0  0  0  0  0  0
   -7.1671    4.9956  -33.8894 H   0  0  0  0  0  0  0  0  0  0  0  0
   -5.6234    3.9103  -39.1195 H   0  0  0  0  0  0  0  0  0  0  0  0
  1  3  2  0  0  0  0
  1  4  1  0  0  0  0
  2  4  2  0  0  0  0
  2  6  1  0  0  0  0
  3  5  1  0  0  0  0
  3  7  1  0  0  0  0
  4  8  1  0  0  0  0
  5  6  2  0  0  0  0
  5  9  1  0  0  0  0
  1 10  1  0  0  0  0
  2 11  1  0  0  0  0
  7 12  1  0  0  0  0
M  END
> <id>
EN300-7441077

> <smiles>
OC=1C=C(F)C=NC1F

> <MDLNUMBER>
MFCD28679243

> <IUPAC Name>
2,5-difluoropyridin-3-ol

> <CAS>
1354746-55-6

> <Purity>
95

> <URL>
https://www.enaminestore.com/catalog/EN300-7441077

> <ROCS_ShapeQuery>
_hit0

> <ROCS_TanimotoCombo>
1.064 

> <ROCS_ShapeTanimoto>
0.465 

> <ROCS_ColorTanimoto>
0.600 

> <ROCS_RefTversky>
1.310 

> <ROCS_RefColorTversky>
0.750 

> <ROCS_RefTverskyCombo>
2.060 

> <ROCS_FitTversky>
0.419 

> <ROCS_FitColorTversky>
0.750 

> <ROCS_FitTverskyCombo>
1.168 

> <ROCS_ColorScore>
-2.999

> <ROCS_Overlap>
161.190

> <ROCS_Rank>
134                 

$$$$
untitled-dbase-32507_0
  -OEChem-06232314393D

 13 13  0     0  0  0  0  0  0999 V2000
   -5.7993    6.0953  -36.7641 C   0  0  0  0  0  0  0  0  0  0  0  0
   -6.2137    6.1544  -35.4382 C   0  0  0  0  0  0  0  0  0  0  0  0
   -6.4672    3.8133  -36.8168 C   0  0  0  0  0  0  0  0  0  0  0  0
   -5.9251    4.9062  -37.4736 C   0  0  0  0  0  0  0  0  0  0  0  0
   -6.7431    5.0057  -34.8725 C   0  0  0  0  0  0  0  0  0  0  0  0
   -6.8810    3.8325  -35.5299 N   0  0  0  0  0  0  0  0  0  0  0  0
   -5.5151    4.8163  -38.8140 N   0  0  0  0  0  0  0  0  0  0  0  0
   -7.2814    4.9871  -33.2432 Cl  0  0  0  0  0  0  0  0  0  0  0  0
   -5.3805    6.9807  -37.2348 H   0  0  0  0  0  0  0  0  0  0  0  0
   -6.1202    7.0780  -34.8766 H   0  0  0  0  0  0  0  0  0  0  0  0
   -6.5909    2.8587  -37.3193 H   0  0  0  0  0  0  0  0  0  0  0  0
   -5.1695    5.6340  -39.2805 H   0  0  0  0  0  0  0  0  0  0  0  0
   -5.6596    3.9614  -39.3180 H   0  0  0  0  0  0  0  0  0  0  0  0
  1  2  1  0  0  0  0
  1  4  2  0  0  0  0
  2  5  2  0  0  0  0
  3  4  1  0  0  0  0
  3  6  2  0  0  0  0
  4  7  1  0  0  0  0
  5  6  1  0  0  0  0
  5  8  1  0  0  0  0
  1  9  1  0  0  0  0
  2 10  1  0  0  0  0
  3 11  1  0  0  0  0
  7 12  1  0  0  0  0
  7 13  1  0  0  0  0
M  END
> <id>
EN300-34596

> <smiles>
NC=1C=CC(Cl)=NC1

> <MDLNUMBER>
MFCD00006243

> <IUPAC Name>
6-chloropyridin-3-amine

> <CAS>
5350-93-6

> <Purity>
95

> <URL>
https://www.enaminestore.com/catalog/EN300-34596

> <MP>
81-83

> <ROCS_ShapeQuery>
_hit0

> <ROCS_TanimotoCombo>
1.064 

> <ROCS_ShapeTanimoto>
0.464 

> <ROCS_ColorTanimoto>
0.600 

> <ROCS_RefTversky>
1.179 

> <ROCS_RefColorTversky>
0.750 

> <ROCS_RefTverskyCombo>
1.929 

> <ROCS_FitTversky>
0.434 

> <ROCS_FitColorTversky>
0.750 

> <ROCS_FitTverskyCombo>
1.183 

> <ROCS_ColorScore>
-2.999

> <ROCS_Overlap>
141.391

> <ROCS_Rank>
135                 

$$$$
untitled-dbase-44827_0
  -OEChem-06232314393D

 10 10  0     0  0  0  0  0  0999 V2000
   -6.5196    3.5188  -36.8799 C   0  0  0  0  0  0  0  0  0  0  0  0
   -6.5202    5.1200  -35.5164 C   0  0  0  0  0  0  0  0  0  0  0  0
   -5.9934    4.6098  -37.5259 C   0  0  0  0  0  0  0  0  0  0  0  0
   -6.8550    3.8518  -35.5925 N   0  0  0  0  0  0  0  0  0  0  0  0
   -5.5205    4.8106  -38.7704 N   0  0  0  0  0  0  0  0  0  0  0  0
   -5.9893    5.6535  -36.6506 O   0  0  0  0  0  0  0  0  0  0  0  0
   -6.6744    2.5216  -37.2651 H   0  0  0  0  0  0  0  0  0  0  0  0
   -6.6144    5.7839  -34.6702 H   0  0  0  0  0  0  0  0  0  0  0  0
   -5.4530    4.0491  -39.4647 H   0  0  0  0  0  0  0  0  0  0  0  0
   -5.1130    5.7120  -39.0670 H   0  0  0  0  0  0  0  0  0  0  0  0
  1  3  2  0  0  0  0
  1  4  1  0  0  0  0
  2  4  2  0  0  0  0
  2  6  1  0  0  0  0
  3  5  1  0  0  0  0
  3  6  1  0  0  0  0
  1  7  1  0  0  0  0
  2  8  1  0  0  0  0
  5  9  1  0  0  0  0
  5 10  1  0  0  0  0
M  END
> <id>
EN300-1600502

> <smiles>
NC1=CN=CO1

> <MDLNUMBER>
MFCD11848436

> <IUPAC Name>
1,3-oxazol-5-amine

> <CAS>
97958-46-8

> <URL>
https://www.enaminestore.com/catalog/EN300-1600502

> <ROCS_ShapeQuery>
_hit0

> <ROCS_TanimotoCombo>
1.063 

> <ROCS_ShapeTanimoto>
0.466 

> <ROCS_ColorTanimoto>
0.597 

> <ROCS_RefTversky>
1.023 

> <ROCS_RefColorTversky>
0.748 

> <ROCS_RefTverskyCombo>
1.771 

> <ROCS_FitTversky>
0.461 

> <ROCS_FitColorTversky>
0.748 

> <ROCS_FitTverskyCombo>
1.209 

> <ROCS_ColorScore>
-2.992

> <ROCS_Overlap>
119.015

> <ROCS_Rank>
136                 

$$$$
untitled-dbase-52537_0
  -OEChem-06232314393D

 14 14  0     0  0  0  0  0  0999 V2000
   -6.6108    5.1506  -35.4024 C   0  0  0  0  0  0  0  0  0  0  0  0
   -6.4677    3.5654  -36.8910 C   0  0  0  0  0  0  0  0  0  0  0  0
   -6.0825    5.7330  -36.5310 C   0  0  0  0  0  0  0  0  0  0  0  0
   -5.9897    4.7035  -37.4978 C   0  0  0  0  0  0  0  0  0  0  0  0
   -5.6955    7.1480  -36.6866 C   0  0  0  0  0  0  0  0  0  0  0  0
   -5.5289    4.8016  -38.7611 N   0  0  0  0  0  0  0  0  0  0  0  0
   -6.8483    3.8294  -35.6135 O   0  0  0  0  0  0  0  0  0  0  0  0
   -6.8657    5.5178  -34.4187 H   0  0  0  0  0  0  0  0  0  0  0  0
   -6.5972    2.5416  -37.2120 H   0  0  0  0  0  0  0  0  0  0  0  0
   -4.6427    7.3067  -36.3999 H   0  0  0  0  0  0  0  0  0  0  0  0
   -5.8155    7.4988  -37.7262 H   0  0  0  0  0  0  0  0  0  0  0  0
   -6.3158    7.8181  -36.0663 H   0  0  0  0  0  0  0  0  0  0  0  0
   -5.4539    3.9828  -39.3843 H   0  0  0  0  0  0  0  0  0  0  0  0
   -5.1402    5.6798  -39.1379 H   0  0  0  0  0  0  0  0  0  0  0  0
  1  3  2  0  0  0  0
  1  7  1  0  0  0  0
  2  4  2  0  0  0  0
  2  7  1  0  0  0  0
  3  4  1  0  0  0  0
  3  5  1  0  0  0  0
  4  6  1  0  0  0  0
  1  8  1  0  0  0  0
  2  9  1  0  0  0  0
  5 10  1  0  0  0  0
  5 11  1  0  0  0  0
  5 12  1  0  0  0  0
  6 13  1  0  0  0  0
  6 14  1  0  0  0  0
M  END
> <id>
EN300-5245607

> <smiles>
CC1=COC=C1N

> <MDLNUMBER>
MFCD32745619

> <IUPAC Name>
4-methylfuran-3-amine

> <URL>
https://www.enaminestore.com/catalog/EN300-5245607

> <ROCS_ShapeQuery>
_hit0

> <ROCS_TanimotoCombo>
1.063 

> <ROCS_ShapeTanimoto>
0.467 

> <ROCS_ColorTanimoto>
0.596 

> <ROCS_RefTversky>
1.110 

> <ROCS_RefColorTversky>
0.747 

> <ROCS_RefTverskyCombo>
1.857 

> <ROCS_FitTversky>
0.446 

> <ROCS_FitColorTversky>
0.747 

> <ROCS_FitTverskyCombo>
1.194 

> <ROCS_ColorScore>
-2.989

> <ROCS_Overlap>
131.200

> <ROCS_Rank>
137                 

$$$$
untitled-dbase-664_0
  -OEChem-06232314393D

 12 12  0     0  0  0  0  0  0999 V2000
   -5.8334    6.1049  -36.8073 C   0  0  0  0  0  0  0  0  0  0  0  0
   -6.2604    6.1704  -35.4856 C   0  0  0  0  0  0  0  0  0  0  0  0
   -6.4457    3.8069  -36.8366 C   0  0  0  0  0  0  0  0  0  0  0  0
   -5.9245    4.9044  -37.5027 C   0  0  0  0  0  0  0  0  0  0  0  0
   -6.7667    5.0164  -34.9098 C   0  0  0  0  0  0  0  0  0  0  0  0
   -6.8707    3.8321  -35.5535 N   0  0  0  0  0  0  0  0  0  0  0  0
   -5.5154    4.8114  -38.7921 O   0  0  0  0  0  0  0  0  0  0  0  0
   -7.3168    5.0043  -33.2844 Cl  0  0  0  0  0  0  0  0  0  0  0  0
   -5.4308    6.9913  -37.2899 H   0  0  0  0  0  0  0  0  0  0  0  0
   -6.1934    7.1020  -34.9342 H   0  0  0  0  0  0  0  0  0  0  0  0
   -6.5407    2.8446  -37.3297 H   0  0  0  0  0  0  0  0  0  0  0  0
   -5.1778    5.6675  -39.1059 H   0  0  0  0  0  0  0  0  0  0  0  0
  1  2  1  0  0  0  0
  1  4  2  0  0  0  0
  2  5  2  0  0  0  0
  3  4  1  0  0  0  0
  3  6  2  0  0  0  0
  4  7  1  0  0  0  0
  5  6  1  0  0  0  0
  5  8  1  0  0  0  0
  1  9  1  0  0  0  0
  2 10  1  0  0  0  0
  3 11  1  0  0  0  0
  7 12  1  0  0  0  0
M  END
> <id>
EN300-52976

> <smiles>
OC=1C=CC(Cl)=NC1

> <MDLNUMBER>
MFCD00234050

> <IUPAC Name>
6-chloropyridin-3-ol

> <CAS>
41288-96-4

> <Purity>
95

> <URL>
https://www.enaminestore.com/catalog/EN300-52976

> <MP>
155-160

> <ROCS_ShapeQuery>
_hit0

> <ROCS_TanimotoCombo>
1.063 

> <ROCS_ShapeTanimoto>
0.463 

> <ROCS_ColorTanimoto>
0.600 

> <ROCS_RefTversky>
1.181 

> <ROCS_RefColorTversky>
0.750 

> <ROCS_RefTverskyCombo>
1.931 

> <ROCS_FitTversky>
0.433 

> <ROCS_FitColorTversky>
0.750 

> <ROCS_FitTverskyCombo>
1.182 

> <ROCS_ColorScore>
-2.999

> <ROCS_Overlap>
141.751

> <ROCS_Rank>
138                 

$$$$
untitled-dbase-46757_3
  -OEChem-06232314393D

 17 17  0     1  0  0  0  0  0999 V2000
   -6.9123    5.2691  -35.4665 C   0  0  0  0  0  0  0  0  0  0  0  0
   -6.4578    3.5174  -36.9359 C   0  0  0  0  0  0  0  0  0  0  0  0
   -6.1484    5.8501  -36.6470 C   0  0  2  0  0  0  0  0  0  0  0  0
   -6.4561    4.8170  -37.7172 C   0  0  1  0  0  0  0  0  0  0  0  0
   -4.6569    5.9927  -36.3381 C   0  0  0  0  0  0  0  0  0  0  0  0
   -6.8551    3.8394  -35.5962 O   0  0  0  0  0  0  0  0  0  0  0  0
   -5.5235    4.8051  -38.7759 O   0  0  0  0  0  0  0  0  0  0  0  0
   -6.4575    5.5339  -34.5038 H   0  0  0  0  0  0  0  0  0  0  0  0
   -7.9600    5.5889  -35.4502 H   0  0  0  0  0  0  0  0  0  0  0  0
   -7.2007    2.8168  -37.3346 H   0  0  0  0  0  0  0  0  0  0  0  0
   -5.4799    3.0257  -36.9065 H   0  0  0  0  0  0  0  0  0  0  0  0
   -6.5601    6.7938  -36.9260 H   0  0  0  0  0  0  0  0  0  0  0  0
   -7.4743    4.9977  -38.1822 H   0  0  0  0  0  0  0  0  0  0  0  0
   -4.2358    5.0266  -36.0525 H   0  0  0  0  0  0  0  0  0  0  0  0
   -4.5065    6.6960  -35.5165 H   0  0  0  0  0  0  0  0  0  0  0  0
   -4.1224    6.3612  -37.2160 H   0  0  0  0  0  0  0  0  0  0  0  0
   -5.5908    5.6674  -39.2160 H   0  0  0  0  0  0  0  0  0  0  0  0
  1  3  1  0  0  0  0
  1  6  1  0  0  0  0
  2  4  1  0  0  0  0
  2  6  1  0  0  0  0
  3  4  1  0  0  0  0
  3  5  1  6  0  0  0
  4  7  1  6  0  0  0
  1  8  1  0  0  0  0
  1  9  1  0  0  0  0
  2 10  1  0  0  0  0
  2 11  1  0  0  0  0
  3 12  1  0  0  0  0
  4 13  1  0  0  0  0
  5 14  1  0  0  0  0
  5 15  1  0  0  0  0
  5 16  1  0  0  0  0
  7 17  1  0  0  0  0
M  END
> <id>
EN300-7393350

> <smiles>
C[C@@H]1COC[C@@H]1O |&1:1,5,r|

> <MDLNUMBER>
MFCD27997509

> <IUPAC Name>
rac-(3R,4R)-4-methyloxolan-3-ol

> <CAS>
2411104-30-6

> <Purity>
95

> <URL>
https://www.enaminestore.com/catalog/EN300-7393350

> <ROCS_ShapeQuery>
_hit0

> <ROCS_TanimotoCombo>
1.063 

> <ROCS_ShapeTanimoto>
0.465 

> <ROCS_ColorTanimoto>
0.598 

> <ROCS_RefTversky>
1.071 

> <ROCS_RefColorTversky>
0.748 

> <ROCS_RefTverskyCombo>
1.819 

> <ROCS_FitTversky>
0.451 

> <ROCS_FitColorTversky>
0.748 

> <ROCS_FitTverskyCombo>
1.199 

> <ROCS_ColorScore>
-2.993

> <ROCS_Overlap>
125.776

> <ROCS_Rank>
139                 

$$$$
untitled-dbase-9372_62
  -OEChem-06232314393D

 26 26  0     0  0  0  0  0  0999 V2000
   -6.7064    4.0414  -35.3354 C   0  0  0  0  0  0  0  0  0  0  0  0
   -6.0885    7.1803  -37.0717 C   0  0  0  0  0  0  0  0  0  0  0  0
   -6.5510    3.9701  -36.8539 C   0  0  0  0  0  0  0  0  0  0  0  0
   -7.8237    4.9791  -34.8701 C   0  0  0  0  0  0  0  0  0  0  0  0
   -5.0379    6.0945  -36.8503 C   0  0  0  0  0  0  0  0  0  0  0  0
   -7.4900    6.9646  -36.4969 C   0  0  0  0  0  0  0  0  0  0  0  0
   -5.3410    4.7110  -37.4244 C   0  0  0  0  0  0  0  0  0  0  0  0
   -7.6079    6.4883  -35.0443 C   0  0  0  0  0  0  0  0  0  0  0  0
   -5.5134    4.8000  -38.8390 O   0  0  0  0  0  0  0  0  0  0  0  0
   -6.5116    6.9432  -34.2626 O   0  0  0  0  0  0  0  0  0  0  0  0
   -6.9670    3.0432  -34.9743 H   0  0  0  0  0  0  0  0  0  0  0  0
   -5.7652    4.2874  -34.8497 H   0  0  0  0  0  0  0  0  0  0  0  0
   -5.6978    8.1723  -36.7622 H   0  0  0  0  0  0  0  0  0  0  0  0
   -6.2195    7.3039  -38.1691 H   0  0  0  0  0  0  0  0  0  0  0  0
   -6.4326    2.9089  -37.1240 H   0  0  0  0  0  0  0  0  0  0  0  0
   -7.4724    4.2719  -37.3712 H   0  0  0  0  0  0  0  0  0  0  0  0
   -8.7398    4.7119  -35.4139 H   0  0  0  0  0  0  0  0  0  0  0  0
   -8.0539    4.7618  -33.8197 H   0  0  0  0  0  0  0  0  0  0  0  0
   -4.0333    6.4330  -37.1677 H   0  0  0  0  0  0  0  0  0  0  0  0
   -4.9227    5.9705  -35.7557 H   0  0  0  0  0  0  0  0  0  0  0  0
   -8.0729    7.8863  -36.6266 H   0  0  0  0  0  0  0  0  0  0  0  0
   -8.0030    6.2267  -37.1303 H   0  0  0  0  0  0  0  0  0  0  0  0
   -4.4405    4.0590  -37.2689 H   0  0  0  0  0  0  0  0  0  0  0  0
   -8.5168    7.0127  -34.5868 H   0  0  0  0  0  0  0  0  0  0  0  0
   -4.7378    5.2710  -39.1745 H   0  0  0  0  0  0  0  0  0  0  0  0
   -6.4436    7.8936  -34.4273 H   0  0  0  0  0  0  0  0  0  0  0  0
  1  3  1  0  0  0  0
  1  4  1  0  0  0  0
  2  5  1  0  0  0  0
  2  6  1  0  0  0  0
  3  7  1  0  0  0  0
  4  8  1  0  0  0  0
  5  7  1  0  0  0  0
  6  8  1  0  0  0  0
  7  9  1  0  0  0  0
  8 10  1  0  0  0  0
  1 11  1  0  0  0  0
  1 12  1  0  0  0  0
  2 13  1  0  0  0  0
  2 14  1  0  0  0  0
  3 15  1  0  0  0  0
  3 16  1  0  0  0  0
  4 17  1  0  0  0  0
  4 18  1  0  0  0  0
  5 19  1  0  0  0  0
  5 20  1  0  0  0  0
  6 21  1  0  0  0  0
  6 22  1  0  0  0  0
  7 23  1  0  0  0  0
  8 24  1  0  0  0  0
  9 25  1  0  0  0  0
 10 26  1  0  0  0  0
M  END
> <id>
EN300-42016

> <smiles>
OC1CCCC(O)CCC1

> <MDLNUMBER>
MFCD02066258

> <IUPAC Name>
cyclooctane-1,5-diol

> <CAS>
55343-44-7

> <Purity>
95

> <URL>
https://www.enaminestore.com/catalog/EN300-42016

> <MP>
73-75

> <ROCS_ShapeQuery>
_hit0

> <ROCS_TanimotoCombo>
1.062 

> <ROCS_ShapeTanimoto>
0.465 

> <ROCS_ColorTanimoto>
0.597 

> <ROCS_RefTversky>
1.301 

> <ROCS_RefColorTversky>
0.748 

> <ROCS_RefTverskyCombo>
2.049 

> <ROCS_FitTversky>
0.420 

> <ROCS_FitColorTversky>
0.748 

> <ROCS_FitTverskyCombo>
1.168 

> <ROCS_ColorScore>
-2.991

> <ROCS_Overlap>
159.787

> <ROCS_Rank>
140                 

$$$$
untitled-dbase-33392_0
  -OEChem-06232314393D

 12 12  0     0  0  0  0  0  0999 V2000
   -5.9482    5.8897  -36.7004 C   0  0  0  0  0  0  0  0  0  0  0  0
   -6.4451    3.5915  -36.9828 C   0  0  0  0  0  0  0  0  0  0  0  0
   -5.9602    4.7700  -37.5134 C   0  0  0  0  0  0  0  0  0  0  0  0
   -6.4222    5.7569  -35.4107 C   0  0  0  0  0  0  0  0  0  0  0  0
   -6.9028    3.4905  -35.7169 N   0  0  0  0  0  0  0  0  0  0  0  0
   -6.8914    4.5911  -34.9180 N   0  0  0  0  0  0  0  0  0  0  0  0
   -5.4937    4.8299  -38.8366 N   0  0  0  0  0  0  0  0  0  0  0  0
   -6.4571    7.0780  -34.3216 Cl  0  0  0  0  0  0  0  0  0  0  0  0
   -5.5766    6.8412  -37.0683 H   0  0  0  0  0  0  0  0  0  0  0  0
   -6.4867    2.6753  -37.5620 H   0  0  0  0  0  0  0  0  0  0  0  0
   -5.1901    5.7082  -39.2140 H   0  0  0  0  0  0  0  0  0  0  0  0
   -5.5568    4.0163  -39.4197 H   0  0  0  0  0  0  0  0  0  0  0  0
  1  3  1  0  0  0  0
  1  4  2  0  0  0  0
  2  3  2  0  0  0  0
  2  5  1  0  0  0  0
  3  7  1  0  0  0  0
  4  6  1  0  0  0  0
  4  8  1  0  0  0  0
  5  6  2  0  0  0  0
  1  9  1  0  0  0  0
  2 10  1  0  0  0  0
  7 11  1  0  0  0  0
  7 12  1  0  0  0  0
M  END
> <id>
EN300-195047

> <smiles>
NC=1C=NN=C(Cl)C1

> <MDLNUMBER>
MFCD03085861

> <IUPAC Name>
6-chloropyridazin-4-amine

> <CAS>
29049-45-4

> <Purity>
95

> <URL>
https://www.enaminestore.com/catalog/EN300-195047

> <MP>
153-156

> <ROCS_ShapeQuery>
_hit0

> <ROCS_TanimotoCombo>
1.061 

> <ROCS_ShapeTanimoto>
0.528 

> <ROCS_ColorTanimoto>
0.533 

> <ROCS_RefTversky>
1.290 

> <ROCS_RefColorTversky>
0.797 

> <ROCS_RefTverskyCombo>
2.087 

> <ROCS_FitTversky>
0.472 

> <ROCS_FitColorTversky>
0.617 

> <ROCS_FitTverskyCombo>
1.089 

> <ROCS_ColorScore>
-3.240

> <ROCS_Overlap>
154.838

> <ROCS_Rank>
141                 

$$$$
untitled-dbase-20596_0
  -OEChem-06232314393D

 11 11  0     0  0  0  0  0  0999 V2000
   -5.9353    5.8711  -36.7262 C   0  0  0  0  0  0  0  0  0  0  0  0
   -6.4452    3.5784  -37.0292 C   0  0  0  0  0  0  0  0  0  0  0  0
   -5.9548    4.7591  -37.5496 C   0  0  0  0  0  0  0  0  0  0  0  0
   -6.4080    5.7289  -35.4371 C   0  0  0  0  0  0  0  0  0  0  0  0
   -6.9014    3.4680  -35.7635 N   0  0  0  0  0  0  0  0  0  0  0  0
   -6.8826    4.5611  -34.9544 N   0  0  0  0  0  0  0  0  0  0  0  0
   -5.5058    4.8270  -38.8272 O   0  0  0  0  0  0  0  0  0  0  0  0
   -6.4299    7.0391  -34.3346 Cl  0  0  0  0  0  0  0  0  0  0  0  0
   -5.5589    6.8220  -37.0897 H   0  0  0  0  0  0  0  0  0  0  0  0
   -6.4888    2.6697  -37.6190 H   0  0  0  0  0  0  0  0  0  0  0  0
   -5.1964    5.7255  -39.0332 H   0  0  0  0  0  0  0  0  0  0  0  0
  1  3  1  0  0  0  0
  1  4  2  0  0  0  0
  2  3  2  0  0  0  0
  2  5  1  0  0  0  0
  3  7  1  0  0  0  0
  4  6  1  0  0  0  0
  4  8  1  0  0  0  0
  5  6  2  0  0  0  0
  1  9  1  0  0  0  0
  2 10  1  0  0  0  0
  7 11  1  0  0  0  0
M  END
> <id>
EN300-200384

> <smiles>
OC=1C=NN=C(Cl)C1

> <MDLNUMBER>
MFCD22576526

> <IUPAC Name>
6-chloropyridazin-4-ol

> <CAS>
1415928-75-4

> <Purity>
95

> <URL>
https://www.enaminestore.com/catalog/EN300-200384

> <ROCS_ShapeQuery>
_hit0

> <ROCS_TanimotoCombo>
1.061 

> <ROCS_ShapeTanimoto>
0.526 

> <ROCS_ColorTanimoto>
0.535 

> <ROCS_RefTversky>
1.290 

> <ROCS_RefColorTversky>
0.799 

> <ROCS_RefTverskyCombo>
2.089 

> <ROCS_FitTversky>
0.470 

> <ROCS_FitColorTversky>
0.619 

> <ROCS_FitTverskyCombo>
1.089 

> <ROCS_ColorScore>
-3.248

> <ROCS_Overlap>
154.970

> <ROCS_Rank>
142                 

$$$$
untitled-dbase-5300_0
  -OEChem-06232314393D

 14 14  0     0  0  0  0  0  0999 V2000
   -6.4735    3.6762  -36.8520 C   0  0  0  0  0  0  0  0  0  0  0  0
   -6.8984    4.7007  -34.8521 C   0  0  0  0  0  0  0  0  0  0  0  0
   -5.9973    4.8649  -37.3598 C   0  0  0  0  0  0  0  0  0  0  0  0
   -6.4215    5.8892  -35.3596 C   0  0  0  0  0  0  0  0  0  0  0  0
   -6.9327    3.5728  -35.5891 N   0  0  0  0  0  0  0  0  0  0  0  0
   -5.9627    5.9927  -36.6226 N   0  0  0  0  0  0  0  0  0  0  0  0
   -5.5347    4.8864  -38.6943 N   0  0  0  0  0  0  0  0  0  0  0  0
   -6.4204    7.0244  -34.5188 N   0  0  0  0  0  0  0  0  0  0  0  0
   -6.5057    2.7633  -37.4357 H   0  0  0  0  0  0  0  0  0  0  0  0
   -7.2700    4.6064  -33.8381 H   0  0  0  0  0  0  0  0  0  0  0  0
   -5.5203    4.0354  -39.2171 H   0  0  0  0  0  0  0  0  0  0  0  0
   -5.1435    5.7301  -39.0589 H   0  0  0  0  0  0  0  0  0  0  0  0
   -6.8063    6.9490  -33.6006 H   0  0  0  0  0  0  0  0  0  0  0  0
   -6.1214    7.9025  -34.8893 H   0  0  0  0  0  0  0  0  0  0  0  0
  1  3  2  0  0  0  0
  1  5  1  0  0  0  0
  2  4  1  0  0  0  0
  2  5  2  0  0  0  0
  3  6  1  0  0  0  0
  3  7  1  0  0  0  0
  4  6  2  0  0  0  0
  4  8  1  0  0  0  0
  1  9  1  0  0  0  0
  2 10  1  0  0  0  0
  7 11  1  0  0  0  0
  7 12  1  0  0  0  0
  8 13  1  0  0  0  0
  8 14  1  0  0  0  0
M  END
> <id>
EN300-121199

> <smiles>
NC=1C=NC=C(N)N1

> <MDLNUMBER>
MFCD09907864

> <IUPAC Name>
pyrazine-2,6-diamine

> <CAS>
41536-80-5

> <URL>
https://www.enaminestore.com/catalog/EN300-121199

> <ROCS_ShapeQuery>
_hit0

> <ROCS_TanimotoCombo>
1.061 

> <ROCS_ShapeTanimoto>
0.522 

> <ROCS_ColorTanimoto>
0.539 

> <ROCS_RefTversky>
1.307 

> <ROCS_RefColorTversky>
0.930 

> <ROCS_RefTverskyCombo>
2.237 

> <ROCS_FitTversky>
0.465 

> <ROCS_FitColorTversky>
0.562 

> <ROCS_FitTverskyCombo>
1.027 

> <ROCS_ColorScore>
-3.860

> <ROCS_Overlap>
157.594

> <ROCS_Rank>
143                 

$$$$
untitled-dbase-41890_0
  -OEChem-06232314393D

  9  9  0     0  0  0  0  0  0999 V2000
   -6.5330    3.5087  -36.8902 C   0  0  0  0  0  0  0  0  0  0  0  0
   -6.4910    5.1231  -35.5430 C   0  0  0  0  0  0  0  0  0  0  0  0
   -5.9919    4.5830  -37.5518 C   0  0  0  0  0  0  0  0  0  0  0  0
   -6.8505    3.8608  -35.6033 N   0  0  0  0  0  0  0  0  0  0  0  0
   -5.9602    5.6351  -36.6871 O   0  0  0  0  0  0  0  0  0  0  0  0
   -5.5239    4.8114  -38.7644 O   0  0  0  0  0  0  0  0  0  0  0  0
   -6.7092    2.5118  -37.2659 H   0  0  0  0  0  0  0  0  0  0  0  0
   -6.5650    5.7970  -34.7028 H   0  0  0  0  0  0  0  0  0  0  0  0
   -5.2075    5.7378  -38.8789 H   0  0  0  0  0  0  0  0  0  0  0  0
  1  3  2  0  0  0  0
  1  4  1  0  0  0  0
  2  4  2  0  0  0  0
  2  5  1  0  0  0  0
  3  5  1  0  0  0  0
  3  6  1  0  0  0  0
  1  7  1  0  0  0  0
  2  8  1  0  0  0  0
  6  9  1  0  0  0  0
M  END
> <id>
EN300-1776832

> <smiles>
OC1=CN=CO1

> <MDLNUMBER>
MFCD28657310

> <IUPAC Name>
1,3-oxazol-5-ol

> <CAS>
83636-37-7

> <URL>
https://www.enaminestore.com/catalog/EN300-1776832

> <ROCS_ShapeQuery>
_hit0

> <ROCS_TanimotoCombo>
1.060 

> <ROCS_ShapeTanimoto>
0.464 

> <ROCS_ColorTanimoto>
0.596 

> <ROCS_RefTversky>
1.023 

> <ROCS_RefColorTversky>
0.747 

> <ROCS_RefTverskyCombo>
1.770 

> <ROCS_FitTversky>
0.459 

> <ROCS_FitColorTversky>
0.747 

> <ROCS_FitTverskyCombo>
1.207 

> <ROCS_ColorScore>
-2.989

> <ROCS_Overlap>
119.022

> <ROCS_Rank>
144                 

$$$$
untitled-dbase-791_0
  -OEChem-06232314393D

 16 16  0     0  0  0  0  0  0999 V2000
   -5.8472    6.1092  -36.7786 C   0  0  0  0  0  0  0  0  0  0  0  0
   -6.2742    6.1711  -35.4568 C   0  0  0  0  0  0  0  0  0  0  0  0
   -6.4572    3.8107  -36.8135 C   0  0  0  0  0  0  0  0  0  0  0  0
   -5.9371    4.9103  -37.4770 C   0  0  0  0  0  0  0  0  0  0  0  0
   -6.7794    5.0151  -34.8838 C   0  0  0  0  0  0  0  0  0  0  0  0
   -7.2470    5.0452  -33.4670 C   0  0  0  0  0  0  0  0  0  0  0  0
   -6.8821    3.8323  -35.5303 N   0  0  0  0  0  0  0  0  0  0  0  0
   -5.5137    4.8174  -38.8127 N   0  0  0  0  0  0  0  0  0  0  0  0
   -5.4464    7.0001  -37.2547 H   0  0  0  0  0  0  0  0  0  0  0  0
   -6.2095    7.1003  -34.9009 H   0  0  0  0  0  0  0  0  0  0  0  0
   -6.5522    2.8476  -37.3060 H   0  0  0  0  0  0  0  0  0  0  0  0
   -8.3106    5.3084  -33.4223 H   0  0  0  0  0  0  0  0  0  0  0  0
   -7.1083    4.0708  -32.9818 H   0  0  0  0  0  0  0  0  0  0  0  0
   -6.6814    5.7779  -32.8772 H   0  0  0  0  0  0  0  0  0  0  0  0
   -5.1849    5.6388  -39.2849 H   0  0  0  0  0  0  0  0  0  0  0  0
   -5.6324    3.9541  -39.3093 H   0  0  0  0  0  0  0  0  0  0  0  0
  1  2  1  0  0  0  0
  1  4  2  0  0  0  0
  2  5  2  0  0  0  0
  3  4  1  0  0  0  0
  3  7  2  0  0  0  0
  4  8  1  0  0  0  0
  5  6  1  0  0  0  0
  5  7  1  0  0  0  0
  1  9  1  0  0  0  0
  2 10  1  0  0  0  0
  3 11  1  0  0  0  0
  6 12  1  0  0  0  0
  6 13  1  0  0  0  0
  6 14  1  0  0  0  0
  8 15  1  0  0  0  0
  8 16  1  0  0  0  0
M  END
> <id>
EN300-42380

> <smiles>
CC=1C=CC(N)=CN1

> <MDLNUMBER>
MFCD00833389

> <IUPAC Name>
6-methylpyridin-3-amine

> <CAS>
3430-14-6

> <Purity>
95

> <URL>
https://www.enaminestore.com/catalog/EN300-42380

> <MP>
95-99

> <ROCS_ShapeQuery>
_hit0

> <ROCS_TanimotoCombo>
1.060 

> <ROCS_ShapeTanimoto>
0.461 

> <ROCS_ColorTanimoto>
0.600 

> <ROCS_RefTversky>
1.187 

> <ROCS_RefColorTversky>
0.750 

> <ROCS_RefTverskyCombo>
1.936 

> <ROCS_FitTversky>
0.429 

> <ROCS_FitColorTversky>
0.750 

> <ROCS_FitTverskyCombo>
1.179 

> <ROCS_ColorScore>
-2.999

> <ROCS_Overlap>
142.668

> <ROCS_Rank>
145                 

$$$$
untitled-dbase-3446_0
  -OEChem-06232314393D

 15 15  0     0  0  0  0  0  0999 V2000
   -5.8083    6.1004  -36.8063 C   0  0  0  0  0  0  0  0  0  0  0  0
   -6.2272    6.1667  -35.4822 C   0  0  0  0  0  0  0  0  0  0  0  0
   -6.4554    3.8121  -36.8421 C   0  0  0  0  0  0  0  0  0  0  0  0
   -5.9212    4.9044  -37.5064 C   0  0  0  0  0  0  0  0  0  0  0  0
   -6.7480    5.0179  -34.9086 C   0  0  0  0  0  0  0  0  0  0  0  0
   -7.2080    5.0528  -33.4895 C   0  0  0  0  0  0  0  0  0  0  0  0
   -6.8732    3.8381  -35.5567 N   0  0  0  0  0  0  0  0  0  0  0  0
   -5.5202    4.8107  -38.7983 O   0  0  0  0  0  0  0  0  0  0  0  0
   -5.3965    6.9829  -37.2881 H   0  0  0  0  0  0  0  0  0  0  0  0
   -6.1450    7.0935  -34.9247 H   0  0  0  0  0  0  0  0  0  0  0  0
   -6.5677    2.8533  -37.3389 H   0  0  0  0  0  0  0  0  0  0  0  0
   -8.2671    5.3327  -33.4389 H   0  0  0  0  0  0  0  0  0  0  0  0
   -7.0825    4.0753  -33.0066 H   0  0  0  0  0  0  0  0  0  0  0  0
   -6.6280    5.7752  -32.9011 H   0  0  0  0  0  0  0  0  0  0  0  0
   -5.1712    5.6629  -39.1101 H   0  0  0  0  0  0  0  0  0  0  0  0
  1  2  1  0  0  0  0
  1  4  2  0  0  0  0
  2  5  2  0  0  0  0
  3  4  1  0  0  0  0
  3  7  2  0  0  0  0
  4  8  1  0  0  0  0
  5  6  1  0  0  0  0
  5  7  1  0  0  0  0
  1  9  1  0  0  0  0
  2 10  1  0  0  0  0
  3 11  1  0  0  0  0
  6 12  1  0  0  0  0
  6 13  1  0  0  0  0
  6 14  1  0  0  0  0
  8 15  1  0  0  0  0
M  END
> <id>
EN300-55469

> <smiles>
CC=1C=CC(O)=CN1

> <MDLNUMBER>
MFCD00006339

> <IUPAC Name>
6-methylpyridin-3-ol

> <CAS>
1121-78-4

> <Purity>
95

> <URL>
https://www.enaminestore.com/catalog/EN300-55469

> <MP>
168-170

> <ROCS_ShapeQuery>
_hit0

> <ROCS_TanimotoCombo>
1.060 

> <ROCS_ShapeTanimoto>
0.460 

> <ROCS_ColorTanimoto>
0.600 

> <ROCS_RefTversky>
1.190 

> <ROCS_RefColorTversky>
0.750 

> <ROCS_RefTverskyCombo>
1.939 

> <ROCS_FitTversky>
0.429 

> <ROCS_FitColorTversky>
0.750 

> <ROCS_FitTverskyCombo>
1.178 

> <ROCS_ColorScore>
-2.998

> <ROCS_Overlap>
143.142

> <ROCS_Rank>
146                 

$$$$
untitled-dbase-25195_0
  -OEChem-06232314393D

 10 10  0     0  0  0  0  0  0999 V2000
   -6.6445    5.1444  -35.4185 C   0  0  0  0  0  0  0  0  0  0  0  0
   -6.1086    5.8050  -36.5375 C   0  0  0  0  0  0  0  0  0  0  0  0
   -5.9863    4.8128  -37.4738 C   0  0  0  0  0  0  0  0  0  0  0  0
   -6.8397    3.8421  -35.6437 N   0  0  0  0  0  0  0  0  0  0  0  0
   -5.5376    4.8038  -38.7455 N   0  0  0  0  0  0  0  0  0  0  0  0
   -6.4194    3.6365  -36.9523 O   0  0  0  0  0  0  0  0  0  0  0  0
   -5.7220    7.4455  -36.6510 Cl  0  0  0  0  0  0  0  0  0  0  0  0
   -6.9023    5.5485  -34.4502 H   0  0  0  0  0  0  0  0  0  0  0  0
   -5.2365    5.6642  -39.2283 H   0  0  0  0  0  0  0  0  0  0  0  0
   -5.5611    3.9545  -39.3305 H   0  0  0  0  0  0  0  0  0  0  0  0
  1  2  1  0  0  0  0
  1  4  2  0  0  0  0
  2  3  2  0  0  0  0
  2  7  1  0  0  0  0
  3  5  1  0  0  0  0
  3  6  1  0  0  0  0
  4  6  1  0  0  0  0
  1  8  1  0  0  0  0
  5  9  1  0  0  0  0
  5 10  1  0  0  0  0
M  END
> <id>
EN300-6242208

> <smiles>
NC=1ON=CC1Cl

> <MDLNUMBER>
MFCD23881360

> <IUPAC Name>
4-chloro-1,2-oxazol-5-amine

> <CAS>
1516186-02-9

> <Purity>
95

> <URL>
https://www.enaminestore.com/catalog/EN300-6242208

> <ROCS_ShapeQuery>
_hit0

> <ROCS_TanimotoCombo>
1.059 

> <ROCS_ShapeTanimoto>
0.466 

> <ROCS_ColorTanimoto>
0.593 

> <ROCS_RefTversky>
1.099 

> <ROCS_RefColorTversky>
0.745 

> <ROCS_RefTverskyCombo>
1.843 

> <ROCS_FitTversky>
0.448 

> <ROCS_FitColorTversky>
0.745 

> <ROCS_FitTverskyCombo>
1.192 

> <ROCS_ColorScore>
-2.978

> <ROCS_Overlap>
129.636

> <ROCS_Rank>
147                 

$$$$
untitled-dbase-47498_0
  -OEChem-06232314393D

 12 12  0     0  0  0  0  0  0999 V2000
   -6.5511    4.6902  -36.0253 C   0  0  0  0  0  0  0  0  0  0  0  0
   -5.5907    8.1275  -36.9811 C   0  0  0  0  0  0  0  0  0  0  0  0
   -6.0982    5.8787  -36.6851 C   0  0  0  0  0  0  0  0  0  0  0  0
   -6.0783    7.1809  -36.1072 C   0  0  0  0  0  0  0  0  0  0  0  0
   -5.6251    5.8797  -37.9790 C   0  0  0  0  0  0  0  0  0  0  0  0
   -6.9179    3.7275  -35.4911 N   0  0  0  0  0  0  0  0  0  0  0  0
   -5.5094    4.8158  -38.8164 N   0  0  0  0  0  0  0  0  0  0  0  0
   -5.1595    7.4458  -38.4916 S   0  0  0  0  0  0  0  0  0  0  0  0
   -6.5983    7.5353  -34.5130 Cl  0  0  0  0  0  0  0  0  0  0  0  0
   -5.4641    9.1883  -36.8125 H   0  0  0  0  0  0  0  0  0  0  0  0
   -5.7394    3.8630  -38.5129 H   0  0  0  0  0  0  0  0  0  0  0  0
   -5.0993    4.9085  -39.7524 H   0  0  0  0  0  0  0  0  0  0  0  0
  1  3  1  0  0  0  0
  1  6  3  0  0  0  0
  2  4  2  0  0  0  0
  2  8  1  0  0  0  0
  3  4  1  0  0  0  0
  3  5  2  0  0  0  0
  4  9  1  0  0  0  0
  5  7  1  0  0  0  0
  5  8  1  0  0  0  0
  2 10  1  0  0  0  0
  7 11  1  0  0  0  0
  7 12  1  0  0  0  0
M  END
> <id>
EN300-118769

> <smiles>
NC=1SC=C(Cl)C1C#N

> <MDLNUMBER>
MFCD18819293

> <IUPAC Name>
2-amino-4-chlorothiophene-3-carbonitrile

> <CAS>
90312-20-2

> <Purity>
95

> <URL>
https://www.enaminestore.com/catalog/EN300-118769

> <ROCS_ShapeQuery>
_hit0

> <ROCS_TanimotoCombo>
1.059 

> <ROCS_ShapeTanimoto>
0.463 

> <ROCS_ColorTanimoto>
0.597 

> <ROCS_RefTversky>
1.231 

> <ROCS_RefColorTversky>
0.747 

> <ROCS_RefTverskyCombo>
1.978 

> <ROCS_FitTversky>
0.426 

> <ROCS_FitColorTversky>
0.747 

> <ROCS_FitTverskyCombo>
1.173 

> <ROCS_ColorScore>
-2.990

> <ROCS_Overlap>
149.178

> <ROCS_Rank>
148                 

$$$$
untitled-dbase-1660_0
  -OEChem-06232314393D

 13 13  0     0  0  0  0  0  0999 V2000
   -6.5998    5.1391  -35.4087 C   0  0  0  0  0  0  0  0  0  0  0  0
   -6.0580    5.7946  -36.5278 C   0  0  0  0  0  0  0  0  0  0  0  0
   -5.9744    4.8080  -37.4743 C   0  0  0  0  0  0  0  0  0  0  0  0
   -5.6718    7.2090  -36.6476 C   0  0  0  0  0  0  0  0  0  0  0  0
   -6.8343    3.8449  -35.6432 N   0  0  0  0  0  0  0  0  0  0  0  0
   -5.5398    4.7993  -38.7507 N   0  0  0  0  0  0  0  0  0  0  0  0
   -6.4347    3.6397  -36.9584 O   0  0  0  0  0  0  0  0  0  0  0  0
   -6.8336    5.5424  -34.4342 H   0  0  0  0  0  0  0  0  0  0  0  0
   -4.6180    7.3643  -36.3569 H   0  0  0  0  0  0  0  0  0  0  0  0
   -5.7902    7.5896  -37.6785 H   0  0  0  0  0  0  0  0  0  0  0  0
   -6.2911    7.8675  -36.0114 H   0  0  0  0  0  0  0  0  0  0  0  0
   -5.5056    3.9358  -39.3141 H   0  0  0  0  0  0  0  0  0  0  0  0
   -5.1316    5.6346  -39.1981 H   0  0  0  0  0  0  0  0  0  0  0  0
  1  2  1  0  0  0  0
  1  5  2  0  0  0  0
  2  3  2  0  0  0  0
  2  4  1  0  0  0  0
  3  6  1  0  0  0  0
  3  7  1  0  0  0  0
  5  7  1  0  0  0  0
  1  8  1  0  0  0  0
  4  9  1  0  0  0  0
  4 10  1  0  0  0  0
  4 11  1  0  0  0  0
  6 12  1  0  0  0  0
  6 13  1  0  0  0  0
M  END
> <id>
EN300-96607

> <smiles>
CC=1C=NOC1N

> <MDLNUMBER>
MFCD11878418

> <IUPAC Name>
4-methyl-1,2-oxazol-5-amine

> <CAS>
35143-75-0

> <Purity>
95

> <URL>
https://www.enaminestore.com/catalog/EN300-96607

> <ROCS_ShapeQuery>
_hit0

> <ROCS_TanimotoCombo>
1.059 

> <ROCS_ShapeTanimoto>
0.466 

> <ROCS_ColorTanimoto>
0.593 

> <ROCS_RefTversky>
1.112 

> <ROCS_RefColorTversky>
0.745 

> <ROCS_RefTverskyCombo>
1.857 

> <ROCS_FitTversky>
0.445 

> <ROCS_FitColorTversky>
0.745 

> <ROCS_FitTverskyCombo>
1.190 

> <ROCS_ColorScore>
-2.979

> <ROCS_Overlap>
131.596

> <ROCS_Rank>
149                 

$$$$
untitled-dbase-28629_0
  -OEChem-06232314393D

  9  8  0     0  0  0  0  0  0999 V2000
   -5.9289    4.8310  -37.5916 C   0  0  0  0  0  0  0  0  0  0  0  0
   -6.3755    4.8903  -36.2248 C   0  0  0  0  0  0  0  0  0  0  0  0
   -6.6422    6.2787  -34.3363 C   0  0  0  0  0  0  0  0  0  0  0  0
   -5.5692    4.7819  -38.6937 N   0  0  0  0  0  0  0  0  0  0  0  0
   -6.8285    3.9006  -35.6697 O   0  0  0  0  0  0  0  0  0  0  0  0
   -6.2210    6.1333  -35.6966 O   0  0  0  0  0  0  0  0  0  0  0  0
   -6.4763    7.3085  -34.0108 H   0  0  0  0  0  0  0  0  0  0  0  0
   -6.0773    5.5897  -33.7034 H   0  0  0  0  0  0  0  0  0  0  0  0
   -7.7071    6.0441  -34.2670 H   0  0  0  0  0  0  0  0  0  0  0  0
  1  2  1  0  0  0  0
  1  4  3  0  0  0  0
  2  5  2  0  0  0  0
  2  6  1  0  0  0  0
  3  6  1  0  0  0  0
  3  7  1  0  0  0  0
  3  8  1  0  0  0  0
  3  9  1  0  0  0  0
M  END
> <id>
EN300-66501

> <smiles>
COC(=O)C#N

> <MDLNUMBER>
MFCD00013420

> <IUPAC Name>
methyl cyanoformate

> <CAS>
17640-15-2

> <Purity>
95

> <URL>
https://www.enaminestore.com/catalog/EN300-66501

> <ROCS_ShapeQuery>
_hit0

> <ROCS_TanimotoCombo>
1.059 

> <ROCS_ShapeTanimoto>
0.575 

> <ROCS_ColorTanimoto>
0.484 

> <ROCS_RefTversky>
1.100 

> <ROCS_RefColorTversky>
0.502 

> <ROCS_RefTverskyCombo>
1.601 

> <ROCS_FitTversky>
0.547 

> <ROCS_FitColorTversky>
0.931 

> <ROCS_FitTverskyCombo>
1.478 

> <ROCS_ColorScore>
-1.956

> <ROCS_Overlap>
126.378

> <ROCS_Rank>
150                 

$$$$
untitled-dbase-1869_0
  -OEChem-06232314393D

 13 13  0     0  0  0  0  0  0999 V2000
   -5.8548    6.1099  -36.7836 C   0  0  0  0  0  0  0  0  0  0  0  0
   -6.2858    6.1722  -35.4631 C   0  0  0  0  0  0  0  0  0  0  0  0
   -6.4539    3.8085  -36.8160 C   0  0  0  0  0  0  0  0  0  0  0  0
   -5.9370    4.9092  -37.4800 C   0  0  0  0  0  0  0  0  0  0  0  0
   -6.7873    5.0149  -34.8895 C   0  0  0  0  0  0  0  0  0  0  0  0
   -6.8827    3.8304  -35.5341 N   0  0  0  0  0  0  0  0  0  0  0  0
   -5.5091    4.8158  -38.8143 N   0  0  0  0  0  0  0  0  0  0  0  0
   -7.2069    5.0616  -33.6156 F   0  0  0  0  0  0  0  0  0  0  0  0
   -5.4570    7.0015  -37.2606 H   0  0  0  0  0  0  0  0  0  0  0  0
   -6.2309    7.0973  -34.9008 H   0  0  0  0  0  0  0  0  0  0  0  0
   -6.5430    2.8444  -37.3075 H   0  0  0  0  0  0  0  0  0  0  0  0
   -5.1825    5.6378  -39.2870 H   0  0  0  0  0  0  0  0  0  0  0  0
   -5.6223    3.9510  -39.3096 H   0  0  0  0  0  0  0  0  0  0  0  0
  1  2  1  0  0  0  0
  1  4  2  0  0  0  0
  2  5  2  0  0  0  0
  3  4  1  0  0  0  0
  3  6  2  0  0  0  0
  4  7  1  0  0  0  0
  5  6  1  0  0  0  0
  5  8  1  0  0  0  0
  1  9  1  0  0  0  0
  2 10  1  0  0  0  0
  3 11  1  0  0  0  0
  7 12  1  0  0  0  0
  7 13  1  0  0  0  0
M  END
> <id>
EN300-104103

> <smiles>
NC=1C=CC(F)=NC1

> <MDLNUMBER>
MFCD01632180

> <IUPAC Name>
6-fluoropyridin-3-amine

> <CAS>
1827-27-6

> <Purity>
95

> <URL>
https://www.enaminestore.com/catalog/EN300-104103

> <MP>
89-91

> <ROCS_ShapeQuery>
_hit0

> <ROCS_TanimotoCombo>
1.057 

> <ROCS_ShapeTanimoto>
0.457 

> <ROCS_ColorTanimoto>
0.600 

> <ROCS_RefTversky>
1.191 

> <ROCS_RefColorTversky>
0.750 

> <ROCS_RefTverskyCombo>
1.941 

> <ROCS_FitTversky>
0.426 

> <ROCS_FitColorTversky>
0.750 

> <ROCS_FitTverskyCombo>
1.176 

> <ROCS_ColorScore>
-2.999

> <ROCS_Overlap>
143.545

> <ROCS_Rank>
151                 

$$$$
untitled-dbase-32695_0
  -OEChem-06232314393D

 19 19  0     0  0  0  0  0  0999 V2000
   -6.4444    3.7952  -36.8151 C   0  0  0  0  0  0  0  0  0  0  0  0
   -5.8966    6.1091  -36.7674 C   0  0  0  0  0  0  0  0  0  0  0  0
   -6.3380    6.1553  -35.4497 C   0  0  0  0  0  0  0  0  0  0  0  0
   -5.9475    4.9104  -37.4702 C   0  0  0  0  0  0  0  0  0  0  0  0
   -6.8176    4.9844  -34.8851 C   0  0  0  0  0  0  0  0  0  0  0  0
   -5.3693    7.3444  -37.4265 C   0  0  0  0  0  0  0  0  0  0  0  0
   -6.2918    7.4322  -34.6779 C   0  0  0  0  0  0  0  0  0  0  0  0
   -6.8823    3.8013  -35.5361 N   0  0  0  0  0  0  0  0  0  0  0  0
   -5.5131    4.8131  -38.8042 N   0  0  0  0  0  0  0  0  0  0  0  0
   -7.3929    4.9108  -33.2653 Cl  0  0  0  0  0  0  0  0  0  0  0  0
   -6.5093    2.8311  -37.3109 H   0  0  0  0  0  0  0  0  0  0  0  0
   -4.2887    7.4251  -37.2671 H   0  0  0  0  0  0  0  0  0  0  0  0
   -5.5658    7.3300  -38.5046 H   0  0  0  0  0  0  0  0  0  0  0  0
   -5.8523    8.2423  -37.0237 H   0  0  0  0  0  0  0  0  0  0  0  0
   -7.2276    7.9888  -34.8065 H   0  0  0  0  0  0  0  0  0  0  0  0
   -6.1421    7.2439  -33.6073 H   0  0  0  0  0  0  0  0  0  0  0  0
   -5.4599    8.0665  -35.0091 H   0  0  0  0  0  0  0  0  0  0  0  0
   -5.5222    3.9213  -39.2607 H   0  0  0  0  0  0  0  0  0  0  0  0
   -5.1124    5.6157  -39.2506 H   0  0  0  0  0  0  0  0  0  0  0  0
  1  4  2  0  0  0  0
  1  8  1  0  0  0  0
  2  3  2  0  0  0  0
  2  4  1  0  0  0  0
  2  6  1  0  0  0  0
  3  5  1  0  0  0  0
  3  7  1  0  0  0  0
  4  9  1  0  0  0  0
  5  8  2  0  0  0  0
  5 10  1  0  0  0  0
  1 11  1  0  0  0  0
  6 12  1  0  0  0  0
  6 13  1  0  0  0  0
  6 14  1  0  0  0  0
  7 15  1  0  0  0  0
  7 16  1  0  0  0  0
  7 17  1  0  0  0  0
  9 18  1  0  0  0  0
  9 19  1  0  0  0  0
M  END
> <id>
EN300-137442

> <smiles>
CC=1C(C)=C(Cl)N=CC1N

> <MDLNUMBER>
MFCD20040420

> <IUPAC Name>
6-chloro-4,5-dimethylpyridin-3-amine

> <CAS>
147440-83-3

> <Purity>
95

> <URL>
https://www.enaminestore.com/catalog/EN300-137442

> <ROCS_ShapeQuery>
_hit0

> <ROCS_TanimotoCombo>
1.057 

> <ROCS_ShapeTanimoto>
0.457 

> <ROCS_ColorTanimoto>
0.600 

> <ROCS_RefTversky>
1.345 

> <ROCS_RefColorTversky>
0.750 

> <ROCS_RefTverskyCombo>
2.095 

> <ROCS_FitTversky>
0.409 

> <ROCS_FitColorTversky>
0.750 

> <ROCS_FitTverskyCombo>
1.159 

> <ROCS_ColorScore>
-3.000

> <ROCS_Overlap>
167.192

> <ROCS_Rank>
152                 

$$$$
untitled-dbase-19090_3
  -OEChem-06232314393D

 20 20  0     1  0  0  0  0  0999 V2000
   -5.8334    6.1821  -36.8325 C   0  0  0  0  0  0  0  0  0  0  0  0
   -6.5590    6.2532  -35.4946 C   0  0  0  0  0  0  0  0  0  0  0  0
   -6.1818    3.6969  -36.7677 C   0  0  0  0  0  0  0  0  0  0  0  0
   -6.2889    4.9566  -37.6170 C   0  0  2  0  0  0  0  0  0  0  0  0
   -6.4831    4.9306  -34.7256 C   0  0  2  0  0  0  0  0  0  0  0  0
   -5.1124    4.6742  -34.1030 C   0  0  0  0  0  0  0  0  0  0  0  0
   -6.8991    3.8320  -35.5440 O   0  0  0  0  0  0  0  0  0  0  0  0
   -5.5126    4.8169  -38.7985 O   0  0  0  0  0  0  0  0  0  0  0  0
   -6.0536    7.0853  -37.4093 H   0  0  0  0  0  0  0  0  0  0  0  0
   -4.7551    6.1459  -36.6564 H   0  0  0  0  0  0  0  0  0  0  0  0
   -6.1034    7.0575  -34.8895 H   0  0  0  0  0  0  0  0  0  0  0  0
   -7.6115    6.5435  -35.6549 H   0  0  0  0  0  0  0  0  0  0  0  0
   -6.5596    2.8208  -37.3102 H   0  0  0  0  0  0  0  0  0  0  0  0
   -5.1356    3.5018  -36.5050 H   0  0  0  0  0  0  0  0  0  0  0  0
   -7.3414    5.0985  -37.9346 H   0  0  0  0  0  0  0  0  0  0  0  0
   -7.2275    4.9894  -33.8621 H   0  0  0  0  0  0  0  0  0  0  0  0
   -4.3536    4.6076  -34.8834 H   0  0  0  0  0  0  0  0  0  0  0  0
   -5.1252    3.7388  -33.5428 H   0  0  0  0  0  0  0  0  0  0  0  0
   -4.8512    5.4878  -33.4255 H   0  0  0  0  0  0  0  0  0  0  0  0
   -5.6513    5.6250  -39.3156 H   0  0  0  0  0  0  0  0  0  0  0  0
  1  2  1  0  0  0  0
  1  4  1  0  0  0  0
  2  5  1  0  0  0  0
  3  4  1  0  0  0  0
  3  7  1  0  0  0  0
  4  8  1  0  0  0  0
  5  6  1  0  0  0  0
  5  7  1  0  0  0  0
  1  9  1  0  0  0  0
  1 10  1  0  0  0  0
  2 11  1  0  0  0  0
  2 12  1  0  0  0  0
  3 13  1  0  0  0  0
  3 14  1  0  0  0  0
  4 15  1  0  0  0  0
  5 16  1  0  0  0  0
  6 17  1  0  0  0  0
  6 18  1  0  0  0  0
  6 19  1  0  0  0  0
  8 20  1  0  0  0  0
M  END
> <id>
EN300-193695

> <smiles>
CC1CCC(O)CO1

> <MDLNUMBER>
MFCD29033739

> <IUPAC Name>
6-methyloxan-3-ol

> <CAS>
1239275-09-2

> <Purity>
95

> <URL>
https://www.enaminestore.com/catalog/EN300-193695

> <ROCS_ShapeQuery>
_hit0

> <ROCS_TanimotoCombo>
1.057 

> <ROCS_ShapeTanimoto>
0.457 

> <ROCS_ColorTanimoto>
0.600 

> <ROCS_RefTversky>
1.143 

> <ROCS_RefColorTversky>
0.750 

> <ROCS_RefTverskyCombo>
1.893 

> <ROCS_FitTversky>
0.432 

> <ROCS_FitColorTversky>
0.750 

> <ROCS_FitTverskyCombo>
1.182 

> <ROCS_ColorScore>
-2.999

> <ROCS_Overlap>
136.446

> <ROCS_Rank>
153                 

$$$$
untitled-dbase-1918_0
  -OEChem-06232314393D

 12 12  0     0  0  0  0  0  0999 V2000
   -5.8158    6.1021  -36.8083 C   0  0  0  0  0  0  0  0  0  0  0  0
   -6.2389    6.1683  -35.4854 C   0  0  0  0  0  0  0  0  0  0  0  0
   -6.4514    3.8105  -36.8424 C   0  0  0  0  0  0  0  0  0  0  0  0
   -5.9206    4.9045  -37.5068 C   0  0  0  0  0  0  0  0  0  0  0  0
   -6.7556    5.0179  -34.9116 C   0  0  0  0  0  0  0  0  0  0  0  0
   -6.8731    3.8364  -35.5583 N   0  0  0  0  0  0  0  0  0  0  0  0
   -5.5154    4.8106  -38.7973 O   0  0  0  0  0  0  0  0  0  0  0  0
   -7.1681    5.0681  -33.6355 F   0  0  0  0  0  0  0  0  0  0  0  0
   -5.4057    6.9854  -37.2893 H   0  0  0  0  0  0  0  0  0  0  0  0
   -6.1664    7.0910  -34.9212 H   0  0  0  0  0  0  0  0  0  0  0  0
   -6.5561    2.8510  -37.3390 H   0  0  0  0  0  0  0  0  0  0  0  0
   -5.1697    5.6640  -39.1097 H   0  0  0  0  0  0  0  0  0  0  0  0
  1  2  1  0  0  0  0
  1  4  2  0  0  0  0
  2  5  2  0  0  0  0
  3  4  1  0  0  0  0
  3  6  2  0  0  0  0
  4  7  1  0  0  0  0
  5  6  1  0  0  0  0
  5  8  1  0  0  0  0
  1  9  1  0  0  0  0
  2 10  1  0  0  0  0
  3 11  1  0  0  0  0
  7 12  1  0  0  0  0
M  END
> <id>
EN300-109417

> <smiles>
OC=1C=CC(F)=NC1

> <MDLNUMBER>
MFCD01075040

> <IUPAC Name>
6-fluoropyridin-3-ol

> <CAS>
55758-32-2

> <Purity>
95

> <URL>
https://www.enaminestore.com/catalog/EN300-109417

> <MP>
156-157

> <ROCS_ShapeQuery>
_hit0

> <ROCS_TanimotoCombo>
1.057 

> <ROCS_ShapeTanimoto>
0.457 

> <ROCS_ColorTanimoto>
0.600 

> <ROCS_RefTversky>
1.195 

> <ROCS_RefColorTversky>
0.750 

> <ROCS_RefTverskyCombo>
1.945 

> <ROCS_FitTversky>
0.425 

> <ROCS_FitColorTversky>
0.750 

> <ROCS_FitTverskyCombo>
1.175 

> <ROCS_ColorScore>
-2.998

> <ROCS_Overlap>
144.077

> <ROCS_Rank>
154                 

$$$$
untitled-dbase-37845_0
  -OEChem-06232314393D

 19 19  0     0  0  0  0  0  0999 V2000
   -6.4293    3.7893  -36.8118 C   0  0  0  0  0  0  0  0  0  0  0  0
   -5.9730    6.1234  -36.7898 C   0  0  0  0  0  0  0  0  0  0  0  0
   -5.9679    4.9142  -37.4762 C   0  0  0  0  0  0  0  0  0  0  0  0
   -6.4329    6.1700  -35.4785 C   0  0  0  0  0  0  0  0  0  0  0  0
   -6.8737    4.9889  -34.9035 C   0  0  0  0  0  0  0  0  0  0  0  0
   -5.4828    7.3611  -37.4754 C   0  0  0  0  0  0  0  0  0  0  0  0
   -7.3831    4.9580  -33.4986 C   0  0  0  0  0  0  0  0  0  0  0  0
   -6.8837    3.7955  -35.5386 N   0  0  0  0  0  0  0  0  0  0  0  0
   -5.5133    4.8145  -38.8034 N   0  0  0  0  0  0  0  0  0  0  0  0
   -6.4530    7.6528  -34.5946 Cl  0  0  0  0  0  0  0  0  0  0  0  0
   -6.4487    2.8167  -37.2943 H   0  0  0  0  0  0  0  0  0  0  0  0
   -6.3117    7.8607  -37.9872 H   0  0  0  0  0  0  0  0  0  0  0  0
   -5.0403    8.0590  -36.7562 H   0  0  0  0  0  0  0  0  0  0  0  0
   -4.7071    7.1211  -38.2110 H   0  0  0  0  0  0  0  0  0  0  0  0
   -8.4636    5.1394  -33.4836 H   0  0  0  0  0  0  0  0  0  0  0  0
   -7.1837    3.9882  -33.0273 H   0  0  0  0  0  0  0  0  0  0  0  0
   -6.8909    5.7205  -32.8830 H   0  0  0  0  0  0  0  0  0  0  0  0
   -5.2265    5.6428  -39.2886 H   0  0  0  0  0  0  0  0  0  0  0  0
   -5.5705    3.9339  -39.2778 H   0  0  0  0  0  0  0  0  0  0  0  0
  1  3  2  0  0  0  0
  1  8  1  0  0  0  0
  2  3  1  0  0  0  0
  2  4  2  0  0  0  0
  2  6  1  0  0  0  0
  3  9  1  0  0  0  0
  4  5  1  0  0  0  0
  4 10  1  0  0  0  0
  5  7  1  0  0  0  0
  5  8  2  0  0  0  0
  1 11  1  0  0  0  0
  6 12  1  0  0  0  0
  6 13  1  0  0  0  0
  6 14  1  0  0  0  0
  7 15  1  0  0  0  0
  7 16  1  0  0  0  0
  7 17  1  0  0  0  0
  9 18  1  0  0  0  0
  9 19  1  0  0  0  0
M  END
> <id>
EN300-238047

> <smiles>
CC=1N=CC(N)=C(C)C1Cl

> <MDLNUMBER>
MFCD07438053

> <IUPAC Name>
5-chloro-4,6-dimethylpyridin-3-amine

> <CAS>
890092-26-9

> <Purity>
95

> <URL>
https://www.enaminestore.com/catalog/EN300-238047

> <ROCS_ShapeQuery>
_hit0

> <ROCS_TanimotoCombo>
1.057 

> <ROCS_ShapeTanimoto>
0.457 

> <ROCS_ColorTanimoto>
0.600 

> <ROCS_RefTversky>
1.345 

> <ROCS_RefColorTversky>
0.750 

> <ROCS_RefTverskyCombo>
2.095 

> <ROCS_FitTversky>
0.409 

> <ROCS_FitColorTversky>
0.750 

> <ROCS_FitTverskyCombo>
1.159 

> <ROCS_ColorScore>
-3.000

> <ROCS_Overlap>
167.085

> <ROCS_Rank>
155                 

$$$$
untitled-dbase-10379_22
  -OEChem-06232314393D

 20 20  0     1  0  0  0  0  0999 V2000
   -6.3066    6.1949  -35.4046 C   0  0  0  0  0  0  0  0  0  0  0  0
   -5.4824    5.8699  -36.6480 C   0  0  0  0  0  0  0  0  0  0  0  0
   -7.6501    4.8791  -37.6650 C   0  0  0  0  0  0  0  0  0  0  0  0
   -7.1297    5.0200  -34.8631 C   0  0  0  0  0  0  0  0  0  0  0  0
   -7.5724    3.6398  -36.7723 C   0  0  0  0  0  0  0  0  0  0  0  0
   -6.3124    5.5827  -37.9033 C   0  0  2  0  0  0  0  0  0  0  0  0
   -6.8502    3.8087  -35.5549 O   0  0  0  0  0  0  0  0  0  0  0  0
   -5.5084    4.8030  -38.7878 O   0  0  0  0  0  0  0  0  0  0  0  0
   -5.6446    6.5405  -34.6036 H   0  0  0  0  0  0  0  0  0  0  0  0
   -6.9757    7.0345  -35.6217 H   0  0  0  0  0  0  0  0  0  0  0  0
   -4.8311    6.7351  -36.8651 H   0  0  0  0  0  0  0  0  0  0  0  0
   -4.7808    5.0403  -36.4498 H   0  0  0  0  0  0  0  0  0  0  0  0
   -8.0815    4.5999  -38.6362 H   0  0  0  0  0  0  0  0  0  0  0  0
   -8.3507    5.5989  -37.2220 H   0  0  0  0  0  0  0  0  0  0  0  0
   -6.8689    4.8536  -33.8280 H   0  0  0  0  0  0  0  0  0  0  0  0
   -8.1846    5.2387  -34.9251 H   0  0  0  0  0  0  0  0  0  0  0  0
   -8.5892    3.2008  -36.5810 H   0  0  0  0  0  0  0  0  0  0  0  0
   -7.0382    2.8388  -37.3396 H   0  0  0  0  0  0  0  0  0  0  0  0
   -6.5005    6.5471  -38.4229 H   0  0  0  0  0  0  0  0  0  0  0  0
   -4.7266    5.3385  -38.9883 H   0  0  0  0  0  0  0  0  0  0  0  0
  1  2  1  0  0  0  0
  1  4  1  0  0  0  0
  2  6  1  0  0  0  0
  3  5  1  0  0  0  0
  3  6  1  0  0  0  0
  4  7  1  0  0  0  0
  5  7  1  0  0  0  0
  6  8  1  0  0  0  0
  1  9  1  0  0  0  0
  1 10  1  0  0  0  0
  2 11  1  0  0  0  0
  2 12  1  0  0  0  0
  3 13  1  0  0  0  0
  3 14  1  0  0  0  0
  4 15  1  0  0  0  0
  4 16  1  0  0  0  0
  5 17  1  0  0  0  0
  5 18  1  0  0  0  0
  6 19  1  0  0  0  0
  8 20  1  0  0  0  0
M  END
> <id>
EN300-105380

> <smiles>
OC1CCCOCC1

> <MDLNUMBER>
MFCD20484082

> <IUPAC Name>
oxepan-4-ol

> <CAS>
55022-85-0

> <Purity>
95

> <URL>
https://www.enaminestore.com/catalog/EN300-105380

> <ROCS_ShapeQuery>
_hit0

> <ROCS_TanimotoCombo>
1.056 

> <ROCS_ShapeTanimoto>
0.457 

> <ROCS_ColorTanimoto>
0.599 

> <ROCS_RefTversky>
1.130 

> <ROCS_RefColorTversky>
0.749 

> <ROCS_RefTverskyCombo>
1.880 

> <ROCS_FitTversky>
0.434 

> <ROCS_FitColorTversky>
0.749 

> <ROCS_FitTverskyCombo>
1.183 

> <ROCS_ColorScore>
-2.998

> <ROCS_Overlap>
134.577

> <ROCS_Rank>
156                 

$$$$
untitled-dbase-26652_0
  -OEChem-06232314393D

 15 15  0     0  0  0  0  0  0999 V2000
   -6.9464    5.0084  -34.9680 C   0  0  0  0  0  0  0  0  0  0  0  0
   -6.3886    3.7869  -36.8321 C   0  0  0  0  0  0  0  0  0  0  0  0
   -6.5697    6.1987  -35.5690 C   0  0  0  0  0  0  0  0  0  0  0  0
   -5.9860    4.9199  -37.5206 C   0  0  0  0  0  0  0  0  0  0  0  0
   -6.0815    6.1449  -36.8698 C   0  0  0  0  0  0  0  0  0  0  0  0
   -6.7005    7.4742  -34.8089 C   0  0  0  0  0  0  0  0  0  0  0  0
   -6.8681    3.7996  -35.5681 N   0  0  0  0  0  0  0  0  0  0  0  0
   -5.5172    4.8051  -38.7900 O   0  0  0  0  0  0  0  0  0  0  0  0
   -7.2006    7.3121  -33.5478 F   0  0  0  0  0  0  0  0  0  0  0  0
   -5.5165    8.1345  -34.6394 F   0  0  0  0  0  0  0  0  0  0  0  0
   -7.5328    8.3675  -35.4198 F   0  0  0  0  0  0  0  0  0  0  0  0
   -5.5927    7.5911  -37.6821 Cl  0  0  0  0  0  0  0  0  0  0  0  0
   -7.3348    4.9868  -33.9543 H   0  0  0  0  0  0  0  0  0  0  0  0
   -6.3363    2.8040  -37.2900 H   0  0  0  0  0  0  0  0  0  0  0  0
   -5.2749    5.6775  -39.1424 H   0  0  0  0  0  0  0  0  0  0  0  0
  1  3  1  0  0  0  0
  1  7  2  0  0  0  0
  2  4  2  0  0  0  0
  2  7  1  0  0  0  0
  3  5  2  0  0  0  0
  3  6  1  0  0  0  0
  4  5  1  0  0  0  0
  4  8  1  0  0  0  0
  5 12  1  0  0  0  0
  6  9  1  0  0  0  0
  6 10  1  0  0  0  0
  6 11  1  0  0  0  0
  1 13  1  0  0  0  0
  2 14  1  0  0  0  0
  8 15  1  0  0  0  0
M  END
> <id>
EN300-7426408

> <smiles>
OC=1C=NC=C(C1Cl)C(F)(F)F

> <MDLNUMBER>
MFCD22546850

> <IUPAC Name>
4-chloro-5-(trifluoromethyl)pyridin-3-ol

> <CAS>
1393546-59-2

> <Purity>
90

> <URL>
https://www.enaminestore.com/catalog/EN300-7426408

> <ROCS_ShapeQuery>
_hit0

> <ROCS_TanimotoCombo>
1.056 

> <ROCS_ShapeTanimoto>
0.456 

> <ROCS_ColorTanimoto>
0.599 

> <ROCS_RefTversky>
1.548 

> <ROCS_RefColorTversky>
0.750 

> <ROCS_RefTverskyCombo>
2.297 

> <ROCS_FitTversky>
0.393 

> <ROCS_FitColorTversky>
0.750 

> <ROCS_FitTverskyCombo>
1.142 

> <ROCS_ColorScore>
-2.998

> <ROCS_Overlap>
200.615

> <ROCS_Rank>
157                 

$$$$
untitled-dbase-31308_0
  -OEChem-06232314393D

 10 10  0     1  0  0  0  0  0999 V2000
   -4.6179    5.6024  -36.6132 C   0  0  0  0  0  0  0  0  0  0  0  0
   -5.5020    5.8555  -37.8016 C   0  0  2  0  0  0  0  0  0  0  0  0
   -6.1150    5.5656  -36.4546 C   0  0  0  0  0  0  0  0  0  0  0  0
   -5.5370    4.8099  -38.7875 O   0  0  0  0  0  0  0  0  0  0  0  0
   -6.8768    4.0080  -36.1582 Cl  0  0  0  0  0  0  0  0  0  0  0  0
   -6.8874    6.8973  -35.5976 Cl  0  0  0  0  0  0  0  0  0  0  0  0
   -4.0657    4.6702  -36.5781 H   0  0  0  0  0  0  0  0  0  0  0  0
   -4.0699    6.4455  -36.2085 H   0  0  0  0  0  0  0  0  0  0  0  0
   -5.5417    6.8730  -38.1742 H   0  0  0  0  0  0  0  0  0  0  0  0
   -5.8626    4.0247  -38.3280 H   0  0  0  0  0  0  0  0  0  0  0  0
  1  2  1  0  0  0  0
  1  3  1  0  0  0  0
  2  3  1  0  0  0  0
  2  4  1  0  0  0  0
  3  5  1  0  0  0  0
  3  6  1  0  0  0  0
  1  7  1  0  0  0  0
  1  8  1  0  0  0  0
  2  9  1  0  0  0  0
  4 10  1  0  0  0  0
M  END
> <id>
EN300-7576074

> <smiles>
OC1CC1(Cl)Cl

> <MDLNUMBER>
MFCD30173659

> <IUPAC Name>
2,2-dichlorocyclopropan-1-ol

> <CAS>
42039-22-5

> <Purity>
95

> <URL>
https://www.enaminestore.com/catalog/EN300-7576074

> <ROCS_ShapeQuery>
_hit0

> <ROCS_TanimotoCombo>
1.056 

> <ROCS_ShapeTanimoto>
0.556 

> <ROCS_ColorTanimoto>
0.500 

> <ROCS_RefTversky>
1.026 

> <ROCS_RefColorTversky>
0.513 

> <ROCS_RefTverskyCombo>
1.539 

> <ROCS_FitTversky>
0.548 

> <ROCS_FitColorTversky>
0.952 

> <ROCS_FitTverskyCombo>
1.500 

> <ROCS_ColorScore>
-1.999

> <ROCS_Overlap>
116.995

> <ROCS_Rank>
158                 

$$$$
untitled-dbase-17914_3
  -OEChem-06232314393D

 20 20  0     1  0  0  0  0  0999 V2000
   -6.2716    6.1698  -35.3717 C   0  0  0  0  0  0  0  0  0  0  0  0
   -5.6873    6.1239  -36.7802 C   0  0  0  0  0  0  0  0  0  0  0  0
   -6.2349    4.7901  -34.7268 C   0  0  0  0  0  0  0  0  0  0  0  0
   -6.2479    3.6812  -36.8178 C   0  0  0  0  0  0  0  0  0  0  0  0
   -6.2934    4.9876  -37.6166 C   0  0  1  0  0  0  0  0  0  0  0  0
   -7.7269    5.3120  -38.0509 C   0  0  0  0  0  0  0  0  0  0  0  0
   -6.8867    3.8230  -35.5500 O   0  0  0  0  0  0  0  0  0  0  0  0
   -5.5069    4.8116  -38.7951 O   0  0  0  0  0  0  0  0  0  0  0  0
   -5.6824    6.8681  -34.7632 H   0  0  0  0  0  0  0  0  0  0  0  0
   -7.3001    6.5479  -35.3998 H   0  0  0  0  0  0  0  0  0  0  0  0
   -5.8737    7.0900  -37.2732 H   0  0  0  0  0  0  0  0  0  0  0  0
   -4.5962    6.0056  -36.7055 H   0  0  0  0  0  0  0  0  0  0  0  0
   -5.1954    4.4690  -34.5942 H   0  0  0  0  0  0  0  0  0  0  0  0
   -6.7036    4.8005  -33.7340 H   0  0  0  0  0  0  0  0  0  0  0  0
   -6.7225    2.8567  -37.3655 H   0  0  0  0  0  0  0  0  0  0  0  0
   -5.2100    3.3916  -36.6152 H   0  0  0  0  0  0  0  0  0  0  0  0
   -8.1281    4.4897  -38.6405 H   0  0  0  0  0  0  0  0  0  0  0  0
   -7.7331    6.2192  -38.6523 H   0  0  0  0  0  0  0  0  0  0  0  0
   -8.3529    5.4610  -37.1729 H   0  0  0  0  0  0  0  0  0  0  0  0
   -5.5392    5.6546  -39.2699 H   0  0  0  0  0  0  0  0  0  0  0  0
  1  2  1  0  0  0  0
  1  3  1  0  0  0  0
  2  5  1  0  0  0  0
  3  7  1  0  0  0  0
  4  5  1  0  0  0  0
  4  7  1  0  0  0  0
  5  6  1  0  0  0  0
  5  8  1  0  0  0  0
  1  9  1  0  0  0  0
  1 10  1  0  0  0  0
  2 11  1  0  0  0  0
  2 12  1  0  0  0  0
  3 13  1  0  0  0  0
  3 14  1  0  0  0  0
  4 15  1  0  0  0  0
  4 16  1  0  0  0  0
  6 17  1  0  0  0  0
  6 18  1  0  0  0  0
  6 19  1  0  0  0  0
  8 20  1  0  0  0  0
M  END
> <id>
EN300-106642

> <smiles>
CC1(O)CCCOC1

> <MDLNUMBER>
MFCD19670493

> <IUPAC Name>
3-methyloxan-3-ol

> <CAS>
35906-74-2

> <Purity>
95

> <URL>
https://www.enaminestore.com/catalog/EN300-106642

> <ROCS_ShapeQuery>
_hit0

> <ROCS_TanimotoCombo>
1.055 

> <ROCS_ShapeTanimoto>
0.456 

> <ROCS_ColorTanimoto>
0.600 

> <ROCS_RefTversky>
1.146 

> <ROCS_RefColorTversky>
0.750 

> <ROCS_RefTverskyCombo>
1.896 

> <ROCS_FitTversky>
0.431 

> <ROCS_FitColorTversky>
0.750 

> <ROCS_FitTverskyCombo>
1.180 

> <ROCS_ColorScore>
-2.999

> <ROCS_Overlap>
136.984

> <ROCS_Rank>
159                 

$$$$
untitled-dbase-32717_0
  -OEChem-06232314393D

 13 13  0     0  0  0  0  0  0999 V2000
   -6.2769    6.1661  -35.4573 C   0  0  0  0  0  0  0  0  0  0  0  0
   -5.8516    6.0958  -36.7792 C   0  0  0  0  0  0  0  0  0  0  0  0
   -6.7804    5.0137  -34.8758 C   0  0  0  0  0  0  0  0  0  0  0  0
   -5.9415    4.8921  -37.4695 C   0  0  0  0  0  0  0  0  0  0  0  0
   -6.4598    3.7966  -36.7978 C   0  0  0  0  0  0  0  0  0  0  0  0
   -6.8832    3.8265  -35.5143 N   0  0  0  0  0  0  0  0  0  0  0  0
   -5.5119    4.8191  -38.8071 N   0  0  0  0  0  0  0  0  0  0  0  0
   -6.6238    2.2517  -37.5391 Cl  0  0  0  0  0  0  0  0  0  0  0  0
   -6.2158    7.0937  -34.8996 H   0  0  0  0  0  0  0  0  0  0  0  0
   -5.4525    6.9848  -37.2602 H   0  0  0  0  0  0  0  0  0  0  0  0
   -7.1239    5.0155  -33.8465 H   0  0  0  0  0  0  0  0  0  0  0  0
   -5.1881    5.6489  -39.2653 H   0  0  0  0  0  0  0  0  0  0  0  0
   -5.6232    3.9614  -39.3126 H   0  0  0  0  0  0  0  0  0  0  0  0
  1  2  1  0  0  0  0
  1  3  2  0  0  0  0
  2  4  2  0  0  0  0
  3  6  1  0  0  0  0
  4  5  1  0  0  0  0
  4  7  1  0  0  0  0
  5  6  2  0  0  0  0
  5  8  1  0  0  0  0
  1  9  1  0  0  0  0
  2 10  1  0  0  0  0
  3 11  1  0  0  0  0
  7 12  1  0  0  0  0
  7 13  1  0  0  0  0
M  END
> <id>
EN300-19839

> <smiles>
NC=1C=CC=NC1Cl

> <MDLNUMBER>
MFCD00006238

> <IUPAC Name>
2-chloropyridin-3-amine

> <CAS>
6298-19-7

> <Purity>
95

> <URL>
https://www.enaminestore.com/catalog/EN300-19839

> <MP>
76-78

> <ROCS_ShapeQuery>
_hit0

> <ROCS_TanimotoCombo>
1.055 

> <ROCS_ShapeTanimoto>
0.456 

> <ROCS_ColorTanimoto>
0.600 

> <ROCS_RefTversky>
1.166 

> <ROCS_RefColorTversky>
0.750 

> <ROCS_RefTverskyCombo>
1.915 

> <ROCS_FitTversky>
0.428 

> <ROCS_FitColorTversky>
0.750 

> <ROCS_FitTverskyCombo>
1.178 

> <ROCS_ColorScore>
-2.999

> <ROCS_Overlap>
139.801

> <ROCS_Rank>
160                 

$$$$
untitled-dbase-18959_0
  -OEChem-06232314393D

 20 20  0     0  0  0  0  0  0999 V2000
   -6.4063    4.4993  -36.7166 C   0  0  0  0  0  0  0  0  0  0  0  0
   -5.5405    6.6950  -37.5590 C   0  0  0  0  0  0  0  0  0  0  0  0
   -6.4116    5.0896  -35.3061 C   0  0  0  0  0  0  0  0  0  0  0  0
   -5.5734    7.2131  -36.1209 C   0  0  0  0  0  0  0  0  0  0  0  0
   -5.3621    5.1799  -37.5983 C   0  0  0  0  0  0  0  0  0  0  0  0
   -6.6315    6.5423  -35.3519 N   0  0  0  0  0  0  0  0  0  0  0  0
   -6.5911    7.0431  -34.0048 N   0  0  0  0  0  0  0  0  0  0  0  0
   -5.4938    4.7328  -38.9416 O   0  0  0  0  0  0  0  0  0  0  0  0
   -6.2092    3.4212  -36.6742 H   0  0  0  0  0  0  0  0  0  0  0  0
   -7.4009    4.6014  -37.1714 H   0  0  0  0  0  0  0  0  0  0  0  0
   -6.4651    6.9740  -38.0820 H   0  0  0  0  0  0  0  0  0  0  0  0
   -4.7281    7.1789  -38.1146 H   0  0  0  0  0  0  0  0  0  0  0  0
   -7.2160    4.6072  -34.7362 H   0  0  0  0  0  0  0  0  0  0  0  0
   -5.4654    4.8449  -34.8038 H   0  0  0  0  0  0  0  0  0  0  0  0
   -4.5884    7.0662  -35.6565 H   0  0  0  0  0  0  0  0  0  0  0  0
   -5.7606    8.2940  -36.1507 H   0  0  0  0  0  0  0  0  0  0  0  0
   -4.3556    4.9168  -37.2520 H   0  0  0  0  0  0  0  0  0  0  0  0
   -5.6951    6.7958  -33.6006 H   0  0  0  0  0  0  0  0  0  0  0  0
   -7.3013    6.5598  -33.4671 H   0  0  0  0  0  0  0  0  0  0  0  0
   -5.3572    3.7718  -38.9310 H   0  0  0  0  0  0  0  0  0  0  0  0
  1  3  1  0  0  0  0
  1  5  1  0  0  0  0
  2  4  1  0  0  0  0
  2  5  1  0  0  0  0
  3  6  1  0  0  0  0
  4  6  1  0  0  0  0
  5  8  1  0  0  0  0
  6  7  1  0  0  0  0
  1  9  1  0  0  0  0
  1 10  1  0  0  0  0
  2 11  1  0  0  0  0
  2 12  1  0  0  0  0
  3 13  1  0  0  0  0
  3 14  1  0  0  0  0
  4 15  1  0  0  0  0
  4 16  1  0  0  0  0
  5 17  1  0  0  0  0
  7 18  1  0  0  0  0
  7 19  1  0  0  0  0
  8 20  1  0  0  0  0
M  END
> <id>
EN300-1662990

> <smiles>
Cl.NN1CCC(O)CC1

> <MDLNUMBER>
MFCD31616432

> <IUPAC Name>
1-aminopiperidin-4-ol hydrochloride

> <CAS>
2171972-13-5

> <Purity>
95

> <URL>
https://www.enaminestore.com/catalog/EN300-1662990

> <Saltdate>
Cl

> <ROCS_ShapeQuery>
_hit0

> <ROCS_TanimotoCombo>
1.055 

> <ROCS_ShapeTanimoto>
0.510 

> <ROCS_ColorTanimoto>
0.545 

> <ROCS_RefTversky>
1.226 

> <ROCS_RefColorTversky>
0.706 

> <ROCS_RefTverskyCombo>
1.932 

> <ROCS_FitTversky>
0.466 

> <ROCS_FitColorTversky>
0.706 

> <ROCS_FitTverskyCombo>
1.172 

> <ROCS_ColorScore>
-2.824

> <ROCS_Overlap>
146.207

> <ROCS_Rank>
161                 

$$$$
untitled-dbase-17210_0
  -OEChem-06232314393D

 20 20  0     0  0  0  0  0  0999 V2000
   -6.4063    4.4993  -36.7166 C   0  0  0  0  0  0  0  0  0  0  0  0
   -5.5405    6.6950  -37.5590 C   0  0  0  0  0  0  0  0  0  0  0  0
   -6.4116    5.0896  -35.3061 C   0  0  0  0  0  0  0  0  0  0  0  0
   -5.5734    7.2131  -36.1209 C   0  0  0  0  0  0  0  0  0  0  0  0
   -5.3621    5.1799  -37.5983 C   0  0  0  0  0  0  0  0  0  0  0  0
   -6.6315    6.5423  -35.3519 N   0  0  0  0  0  0  0  0  0  0  0  0
   -6.5911    7.0431  -34.0048 N   0  0  0  0  0  0  0  0  0  0  0  0
   -5.4938    4.7328  -38.9416 O   0  0  0  0  0  0  0  0  0  0  0  0
   -6.2092    3.4212  -36.6742 H   0  0  0  0  0  0  0  0  0  0  0  0
   -7.4009    4.6014  -37.1714 H   0  0  0  0  0  0  0  0  0  0  0  0
   -6.4651    6.9740  -38.0820 H   0  0  0  0  0  0  0  0  0  0  0  0
   -4.7281    7.1789  -38.1146 H   0  0  0  0  0  0  0  0  0  0  0  0
   -7.2160    4.6072  -34.7362 H   0  0  0  0  0  0  0  0  0  0  0  0
   -5.4654    4.8449  -34.8038 H   0  0  0  0  0  0  0  0  0  0  0  0
   -4.5884    7.0662  -35.6565 H   0  0  0  0  0  0  0  0  0  0  0  0
   -5.7606    8.2940  -36.1507 H   0  0  0  0  0  0  0  0  0  0  0  0
   -4.3556    4.9168  -37.2520 H   0  0  0  0  0  0  0  0  0  0  0  0
   -5.6951    6.7958  -33.6006 H   0  0  0  0  0  0  0  0  0  0  0  0
   -7.3013    6.5598  -33.4671 H   0  0  0  0  0  0  0  0  0  0  0  0
   -5.3572    3.7718  -38.9310 H   0  0  0  0  0  0  0  0  0  0  0  0
  1  3  1  0  0  0  0
  1  5  1  0  0  0  0
  2  4  1  0  0  0  0
  2  5  1  0  0  0  0
  3  6  1  0  0  0  0
  4  6  1  0  0  0  0
  5  8  1  0  0  0  0
  6  7  1  0  0  0  0
  1  9  1  0  0  0  0
  1 10  1  0  0  0  0
  2 11  1  0  0  0  0
  2 12  1  0  0  0  0
  3 13  1  0  0  0  0
  3 14  1  0  0  0  0
  4 15  1  0  0  0  0
  4 16  1  0  0  0  0
  5 17  1  0  0  0  0
  7 18  1  0  0  0  0
  7 19  1  0  0  0  0
  8 20  1  0  0  0  0
M  END
> <id>
EN300-1268383

> <smiles>
NN1CCC(O)CC1

> <MDLNUMBER>
MFCD07787036

> <IUPAC Name>
1-aminopiperidin-4-ol

> <CAS>
79414-82-7

> <URL>
https://www.enaminestore.com/catalog/EN300-1268383

> <ROCS_ShapeQuery>
_hit0

> <ROCS_TanimotoCombo>
1.055 

> <ROCS_ShapeTanimoto>
0.510 

> <ROCS_ColorTanimoto>
0.545 

> <ROCS_RefTversky>
1.226 

> <ROCS_RefColorTversky>
0.706 

> <ROCS_RefTverskyCombo>
1.932 

> <ROCS_FitTversky>
0.466 

> <ROCS_FitColorTversky>
0.706 

> <ROCS_FitTverskyCombo>
1.172 

> <ROCS_ColorScore>
-2.824

> <ROCS_Overlap>
146.207

> <ROCS_Rank>
162                 

$$$$
untitled-dbase-47856_0
  -OEChem-06232314393D

 16 16  0     0  0  0  0  0  0999 V2000
   -6.0267    5.7994  -36.5302 C   0  0  0  0  0  0  0  0  0  0  0  0
   -6.5772    5.1552  -35.4088 C   0  0  0  0  0  0  0  0  0  0  0  0
   -5.9662    4.8110  -37.4765 C   0  0  0  0  0  0  0  0  0  0  0  0
   -5.6117    7.2062  -36.6603 C   0  0  0  0  0  0  0  0  0  0  0  0
   -6.8754    5.7304  -34.0865 C   0  0  0  0  0  0  0  0  0  0  0  0
   -6.8382    3.8659  -35.6417 N   0  0  0  0  0  0  0  0  0  0  0  0
   -5.5363    4.7943  -38.7545 N   0  0  0  0  0  0  0  0  0  0  0  0
   -6.4477    3.6523  -36.9582 O   0  0  0  0  0  0  0  0  0  0  0  0
   -4.5540    7.3401  -36.3750 H   0  0  0  0  0  0  0  0  0  0  0  0
   -5.7272    7.5817  -37.6928 H   0  0  0  0  0  0  0  0  0  0  0  0
   -6.2149    7.8796  -36.0252 H   0  0  0  0  0  0  0  0  0  0  0  0
   -7.9013    6.1353  -34.0476 H   0  0  0  0  0  0  0  0  0  0  0  0
   -6.7816    4.9851  -33.2764 H   0  0  0  0  0  0  0  0  0  0  0  0
   -6.1842    6.5509  -33.8228 H   0  0  0  0  0  0  0  0  0  0  0  0
   -5.5211    3.9305  -39.3183 H   0  0  0  0  0  0  0  0  0  0  0  0
   -5.1136    5.6216  -39.2029 H   0  0  0  0  0  0  0  0  0  0  0  0
  1  2  1  0  0  0  0
  1  3  2  0  0  0  0
  1  4  1  0  0  0  0
  2  5  1  0  0  0  0
  2  6  2  0  0  0  0
  3  7  1  0  0  0  0
  3  8  1  0  0  0  0
  6  8  1  0  0  0  0
  4  9  1  0  0  0  0
  4 10  1  0  0  0  0
  4 11  1  0  0  0  0
  5 12  1  0  0  0  0
  5 13  1  0  0  0  0
  5 14  1  0  0  0  0
  7 15  1  0  0  0  0
  7 16  1  0  0  0  0
M  END
> <id>
EN300-92103

> <smiles>
CC1=NOC(N)=C1C

> <MDLNUMBER>
MFCD00046081

> <IUPAC Name>
dimethyl-1,2-oxazol-5-amine

> <CAS>
19947-75-2

> <Purity>
95

> <URL>
https://www.enaminestore.com/catalog/EN300-92103

> <MP>
123-125

> <ROCS_ShapeQuery>
_hit0

> <ROCS_TanimotoCombo>
1.055 

> <ROCS_ShapeTanimoto>
0.462 

> <ROCS_ColorTanimoto>
0.593 

> <ROCS_RefTversky>
1.199 

> <ROCS_RefColorTversky>
0.744 

> <ROCS_RefTverskyCombo>
1.943 

> <ROCS_FitTversky>
0.429 

> <ROCS_FitColorTversky>
0.744 

> <ROCS_FitTverskyCombo>
1.174 

> <ROCS_ColorScore>
-2.978

> <ROCS_Overlap>
144.405

> <ROCS_Rank>
163                 

$$$$
untitled-dbase-1245_0
  -OEChem-06232314393D

 13 13  0     0  0  0  0  0  0999 V2000
   -6.0731    5.8147  -36.5450 C   0  0  0  0  0  0  0  0  0  0  0  0
   -6.6149    5.1678  -35.4209 C   0  0  0  0  0  0  0  0  0  0  0  0
   -5.9756    4.8175  -37.4790 C   0  0  0  0  0  0  0  0  0  0  0  0
   -6.9416    5.7432  -34.1048 C   0  0  0  0  0  0  0  0  0  0  0  0
   -6.8365    3.8688  -35.6409 N   0  0  0  0  0  0  0  0  0  0  0  0
   -5.5366    4.7954  -38.7540 N   0  0  0  0  0  0  0  0  0  0  0  0
   -6.4281    3.6514  -36.9514 O   0  0  0  0  0  0  0  0  0  0  0  0
   -5.6510    7.4469  -36.6814 Cl  0  0  0  0  0  0  0  0  0  0  0  0
   -7.9789    6.1184  -34.0784 H   0  0  0  0  0  0  0  0  0  0  0  0
   -6.8337    5.0062  -33.2892 H   0  0  0  0  0  0  0  0  0  0  0  0
   -6.2765    6.5849  -33.8412 H   0  0  0  0  0  0  0  0  0  0  0  0
   -5.2232    5.6482  -39.2423 H   0  0  0  0  0  0  0  0  0  0  0  0
   -5.5801    3.9444  -39.3353 H   0  0  0  0  0  0  0  0  0  0  0  0
  1  2  1  0  0  0  0
  1  3  2  0  0  0  0
  1  8  1  0  0  0  0
  2  4  1  0  0  0  0
  2  5  2  0  0  0  0
  3  6  1  0  0  0  0
  3  7  1  0  0  0  0
  5  7  1  0  0  0  0
  4  9  1  0  0  0  0
  4 10  1  0  0  0  0
  4 11  1  0  0  0  0
  6 12  1  0  0  0  0
  6 13  1  0  0  0  0
M  END
> <id>
EN300-80367

> <smiles>
CC1=NOC(N)=C1Cl

> <MDLNUMBER>
MFCD08443950

> <IUPAC Name>
4-chloro-3-methyl-1,2-oxazol-5-amine

> <CAS>
166964-09-6

> <Purity>
95

> <URL>
https://www.enaminestore.com/catalog/EN300-80367

> <MP>
65-68

> <ROCS_ShapeQuery>
_hit0

> <ROCS_TanimotoCombo>
1.055 

> <ROCS_ShapeTanimoto>
0.462 

> <ROCS_ColorTanimoto>
0.593 

> <ROCS_RefTversky>
1.185 

> <ROCS_RefColorTversky>
0.744 

> <ROCS_RefTverskyCombo>
1.929 

> <ROCS_FitTversky>
0.431 

> <ROCS_FitColorTversky>
0.744 

> <ROCS_FitTverskyCombo>
1.175 

> <ROCS_ColorScore>
-2.978

> <ROCS_Overlap>
142.346

> <ROCS_Rank>
164                 

$$$$
untitled-dbase-19540_3
  -OEChem-06232314393D

 18 19  0     1  0  0  0  0  0999 V2000
   -6.1480    5.7521  -34.0424 C   0  0  0  0  0  0  0  0  0  0  0  0
   -7.5178    6.0964  -34.5567 C   0  0  0  0  0  0  0  0  0  0  0  0
   -5.9674    5.8688  -36.6498 C   0  0  0  0  0  0  0  0  0  0  0  0
   -6.5134    3.5615  -36.9436 C   0  0  0  0  0  0  0  0  0  0  0  0
   -5.5094    4.6174  -37.3860 C   0  0  1  0  0  0  0  0  0  0  0  0
   -6.5734    5.3018  -35.4114 C   0  0  0  0  0  0  0  0  0  0  0  0
   -6.8471    3.8948  -35.5901 O   0  0  0  0  0  0  0  0  0  0  0  0
   -5.5297    4.8019  -38.7857 O   0  0  0  0  0  0  0  0  0  0  0  0
   -5.4248    6.5542  -33.9655 H   0  0  0  0  0  0  0  0  0  0  0  0
   -6.0770    5.0072  -33.2599 H   0  0  0  0  0  0  0  0  0  0  0  0
   -8.3649    5.5830  -34.1172 H   0  0  0  0  0  0  0  0  0  0  0  0
   -7.7098    7.1303  -34.8180 H   0  0  0  0  0  0  0  0  0  0  0  0
   -5.1034    6.4902  -36.3868 H   0  0  0  0  0  0  0  0  0  0  0  0
   -6.6766    6.4642  -37.2347 H   0  0  0  0  0  0  0  0  0  0  0  0
   -7.4277    3.5597  -37.5445 H   0  0  0  0  0  0  0  0  0  0  0  0
   -6.0671    2.5610  -36.9424 H   0  0  0  0  0  0  0  0  0  0  0  0
   -4.4639    4.3339  -37.1026 H   0  0  0  0  0  0  0  0  0  0  0  0
   -4.9266    5.5371  -38.9764 H   0  0  0  0  0  0  0  0  0  0  0  0
  1  2  1  0  0  0  0
  1  6  1  0  0  0  0
  2  6  1  0  0  0  0
  3  5  1  0  0  0  0
  3  6  1  0  0  0  0
  4  5  1  0  0  0  0
  4  7  1  0  0  0  0
  5  8  1  0  0  0  0
  6  7  1  0  0  0  0
  1  9  1  0  0  0  0
  1 10  1  0  0  0  0
  2 11  1  0  0  0  0
  2 12  1  0  0  0  0
  3 13  1  0  0  0  0
  3 14  1  0  0  0  0
  4 15  1  0  0  0  0
  4 16  1  0  0  0  0
  5 17  1  0  0  0  0
  8 18  1  0  0  0  0
M  END
> <id>
EN300-1706909

> <smiles>
OC1COC2(CC2)C1

> <MDLNUMBER>
MFCD30332681

> <IUPAC Name>
4-oxaspiro[2.4]heptan-6-ol

> <CAS>
1221443-32-8

> <Purity>
95

> <URL>
https://www.enaminestore.com/catalog/EN300-1706909

> <ROCS_ShapeQuery>
_hit0

> <ROCS_TanimotoCombo>
1.054 

> <ROCS_ShapeTanimoto>
0.458 

> <ROCS_ColorTanimoto>
0.596 

> <ROCS_RefTversky>
1.182 

> <ROCS_RefColorTversky>
0.747 

> <ROCS_RefTverskyCombo>
1.929 

> <ROCS_FitTversky>
0.428 

> <ROCS_FitColorTversky>
0.747 

> <ROCS_FitTverskyCombo>
1.175 

> <ROCS_ColorScore>
-2.987

> <ROCS_Overlap>
142.067

> <ROCS_Rank>
165                 

$$$$
untitled-dbase-45147_0
  -OEChem-06232314393D

 22 22  0     0  0  0  0  0  0999 V2000
   -6.4336    3.7903  -36.8130 C   0  0  0  0  0  0  0  0  0  0  0  0
   -5.9506    6.1189  -36.7830 C   0  0  0  0  0  0  0  0  0  0  0  0
   -6.4043    6.1652  -35.4695 C   0  0  0  0  0  0  0  0  0  0  0  0
   -5.9622    4.9128  -37.4746 C   0  0  0  0  0  0  0  0  0  0  0  0
   -6.8560    4.9867  -34.8977 C   0  0  0  0  0  0  0  0  0  0  0  0
   -5.4526    7.3630  -37.4481 C   0  0  0  0  0  0  0  0  0  0  0  0
   -6.4047    7.4439  -34.7007 C   0  0  0  0  0  0  0  0  0  0  0  0
   -7.3558    4.9742  -33.4899 C   0  0  0  0  0  0  0  0  0  0  0  0
   -6.8824    3.7962  -35.5378 N   0  0  0  0  0  0  0  0  0  0  0  0
   -5.5140    4.8152  -38.8040 N   0  0  0  0  0  0  0  0  0  0  0  0
   -6.4676    2.8201  -37.2999 H   0  0  0  0  0  0  0  0  0  0  0  0
   -4.3761    7.4756  -37.2804 H   0  0  0  0  0  0  0  0  0  0  0  0
   -5.6392    7.3340  -38.5278 H   0  0  0  0  0  0  0  0  0  0  0  0
   -5.9642    8.2502  -37.0574 H   0  0  0  0  0  0  0  0  0  0  0  0
   -7.3557    7.9720  -34.8397 H   0  0  0  0  0  0  0  0  0  0  0  0
   -6.2602    7.2631  -33.6279 H   0  0  0  0  0  0  0  0  0  0  0  0
   -5.5893    8.1032  -35.0248 H   0  0  0  0  0  0  0  0  0  0  0  0
   -8.4335    5.1726  -33.4681 H   0  0  0  0  0  0  0  0  0  0  0  0
   -7.1687    4.0050  -33.0119 H   0  0  0  0  0  0  0  0  0  0  0  0
   -6.8477    5.7335  -32.8827 H   0  0  0  0  0  0  0  0  0  0  0  0
   -5.4944    3.9192  -39.2521 H   0  0  0  0  0  0  0  0  0  0  0  0
   -5.1319    5.6244  -39.2547 H   0  0  0  0  0  0  0  0  0  0  0  0
  1  4  2  0  0  0  0
  1  9  1  0  0  0  0
  2  3  2  0  0  0  0
  2  4  1  0  0  0  0
  2  6  1  0  0  0  0
  3  5  1  0  0  0  0
  3  7  1  0  0  0  0
  4 10  1  0  0  0  0
  5  8  1  0  0  0  0
  5  9  2  0  0  0  0
  1 11  1  0  0  0  0
  6 12  1  0  0  0  0
  6 13  1  0  0  0  0
  6 14  1  0  0  0  0
  7 15  1  0  0  0  0
  7 16  1  0  0  0  0
  7 17  1  0  0  0  0
  8 18  1  0  0  0  0
  8 19  1  0  0  0  0
  8 20  1  0  0  0  0
 10 21  1  0  0  0  0
 10 22  1  0  0  0  0
M  END
> <id>
EN300-6936065

> <smiles>
CC=1N=CC(N)=C(C)C1C

> <MDLNUMBER>
MFCD26381827

> <IUPAC Name>
4,5,6-trimethylpyridin-3-amine

> <CAS>
1557262-53-9

> <Purity>
95

> <URL>
https://www.enaminestore.com/catalog/EN300-6936065

> <ROCS_ShapeQuery>
_hit0

> <ROCS_TanimotoCombo>
1.054 

> <ROCS_ShapeTanimoto>
0.454 

> <ROCS_ColorTanimoto>
0.600 

> <ROCS_RefTversky>
1.353 

> <ROCS_RefColorTversky>
0.750 

> <ROCS_RefTverskyCombo>
2.103 

> <ROCS_FitTversky>
0.406 

> <ROCS_FitColorTversky>
0.750 

> <ROCS_FitTverskyCombo>
1.156 

> <ROCS_ColorScore>
-3.000

> <ROCS_Overlap>
168.626

> <ROCS_Rank>
166                 

$$$$
untitled-dbase-41336_34
  -OEChem-06232314393D

 27 27  0     0  0  0  0  0  0999 V2000
   -6.0083    7.1517  -37.0925 C   0  0  0  0  0  0  0  0  0  0  0  0
   -6.7772    4.0371  -35.3831 C   0  0  0  0  0  0  0  0  0  0  0  0
   -7.4189    7.0209  -36.5076 C   0  0  0  0  0  0  0  0  0  0  0  0
   -7.8539    5.0193  -34.9165 C   0  0  0  0  0  0  0  0  0  0  0  0
   -5.0092    6.0174  -36.8752 C   0  0  0  0  0  0  0  0  0  0  0  0
   -6.6210    3.9714  -36.9018 C   0  0  0  0  0  0  0  0  0  0  0  0
   -7.5848    6.5278  -35.0591 C   0  0  0  0  0  0  0  0  0  0  0  0
   -5.3709    4.6536  -37.4582 C   0  0  0  0  0  0  0  0  0  0  0  0
   -6.5136    6.9784  -34.1744 N   0  0  0  0  0  0  0  0  0  0  0  0
   -5.5060    4.7808  -38.8739 O   0  0  0  0  0  0  0  0  0  0  0  0
   -6.1414    7.2747  -38.1921 H   0  0  0  0  0  0  0  0  0  0  0  0
   -5.5624    8.1284  -36.7997 H   0  0  0  0  0  0  0  0  0  0  0  0
   -5.8283    4.2342  -34.8928 H   0  0  0  0  0  0  0  0  0  0  0  0
   -7.0843    3.0487  -35.0334 H   0  0  0  0  0  0  0  0  0  0  0  0
   -7.9268    7.9944  -36.6295 H   0  0  0  0  0  0  0  0  0  0  0  0
   -7.9751    6.3279  -37.1655 H   0  0  0  0  0  0  0  0  0  0  0  0
   -8.7705    4.7838  -35.4838 H   0  0  0  0  0  0  0  0  0  0  0  0
   -8.0975    4.7837  -33.8675 H   0  0  0  0  0  0  0  0  0  0  0  0
   -3.9880    6.3141  -37.1844 H   0  0  0  0  0  0  0  0  0  0  0  0
   -4.9033    5.8780  -35.7807 H   0  0  0  0  0  0  0  0  0  0  0  0
   -6.5585    2.9078  -37.1788 H   0  0  0  0  0  0  0  0  0  0  0  0
   -7.5222    4.3262  -37.4195 H   0  0  0  0  0  0  0  0  0  0  0  0
   -8.5260    7.0549  -34.6466 H   0  0  0  0  0  0  0  0  0  0  0  0
   -4.4986    3.9668  -37.2966 H   0  0  0  0  0  0  0  0  0  0  0  0
   -6.4658    7.9635  -34.2424 H   0  0  0  0  0  0  0  0  0  0  0  0
   -6.7453    6.6917  -33.2572 H   0  0  0  0  0  0  0  0  0  0  0  0
   -4.6480    5.0882  -39.1987 H   0  0  0  0  0  0  0  0  0  0  0  0
  1  3  1  0  0  0  0
  1  5  1  0  0  0  0
  2  4  1  0  0  0  0
  2  6  1  0  0  0  0
  3  7  1  0  0  0  0
  4  7  1  0  0  0  0
  5  8  1  0  0  0  0
  6  8  1  0  0  0  0
  7  9  1  0  0  0  0
  8 10  1  0  0  0  0
  1 11  1  0  0  0  0
  1 12  1  0  0  0  0
  2 13  1  0  0  0  0
  2 14  1  0  0  0  0
  3 15  1  0  0  0  0
  3 16  1  0  0  0  0
  4 17  1  0  0  0  0
  4 18  1  0  0  0  0
  5 19  1  0  0  0  0
  5 20  1  0  0  0  0
  6 21  1  0  0  0  0
  6 22  1  0  0  0  0
  7 23  1  0  0  0  0
  8 24  1  0  0  0  0
  9 25  1  0  0  0  0
  9 26  1  0  0  0  0
 10 27  1  0  0  0  0
M  END
> <id>
EN300-1131887

> <smiles>
NC1CCCC(O)CCC1

> <MDLNUMBER>
MFCD19205352

> <IUPAC Name>
5-aminocyclooctan-1-ol

> <CAS>
90226-60-1

> <URL>
https://www.enaminestore.com/catalog/EN300-1131887

> <ROCS_ShapeQuery>
_hit0

> <ROCS_TanimotoCombo>
1.054 

> <ROCS_ShapeTanimoto>
0.467 

> <ROCS_ColorTanimoto>
0.587 

> <ROCS_RefTversky>
1.301 

> <ROCS_RefColorTversky>
0.740 

> <ROCS_RefTverskyCombo>
2.041 

> <ROCS_FitTversky>
0.421 

> <ROCS_FitColorTversky>
0.740 

> <ROCS_FitTverskyCombo>
1.161 

> <ROCS_ColorScore>
-2.958

> <ROCS_Overlap>
159.613

> <ROCS_Rank>
167                 

$$$$
untitled-dbase-135_0
  -OEChem-06232314393D

 12 12  0     0  0  0  0  0  0999 V2000
   -6.2527    6.1605  -35.4867 C   0  0  0  0  0  0  0  0  0  0  0  0
   -5.8320    6.0892  -36.8100 C   0  0  0  0  0  0  0  0  0  0  0  0
   -6.7588    5.0097  -34.9042 C   0  0  0  0  0  0  0  0  0  0  0  0
   -5.9288    4.8863  -37.5006 C   0  0  0  0  0  0  0  0  0  0  0  0
   -6.4492    3.7924  -36.8279 C   0  0  0  0  0  0  0  0  0  0  0  0
   -6.8683    3.8232  -35.5430 N   0  0  0  0  0  0  0  0  0  0  0  0
   -5.5182    4.8133  -38.7928 O   0  0  0  0  0  0  0  0  0  0  0  0
   -6.6161    2.2557  -37.5806 Cl  0  0  0  0  0  0  0  0  0  0  0  0
   -6.1872    7.0876  -34.9291 H   0  0  0  0  0  0  0  0  0  0  0  0
   -5.4307    6.9738  -37.2965 H   0  0  0  0  0  0  0  0  0  0  0  0
   -7.1003    5.0126  -33.8743 H   0  0  0  0  0  0  0  0  0  0  0  0
   -5.6467    3.9149  -39.1398 H   0  0  0  0  0  0  0  0  0  0  0  0
  1  2  1  0  0  0  0
  1  3  2  0  0  0  0
  2  4  2  0  0  0  0
  3  6  1  0  0  0  0
  4  5  1  0  0  0  0
  4  7  1  0  0  0  0
  5  6  2  0  0  0  0
  5  8  1  0  0  0  0
  1  9  1  0  0  0  0
  2 10  1  0  0  0  0
  3 11  1  0  0  0  0
  7 12  1  0  0  0  0
M  END
> <id>
EN300-80718

> <smiles>
OC=1C=CC=NC1Cl

> <MDLNUMBER>
MFCD00006235

> <IUPAC Name>
2-chloropyridin-3-ol

> <CAS>
6636-78-8

> <Purity>
95

> <URL>
https://www.enaminestore.com/catalog/EN300-80718

> <MP>
168-172

> <ROCS_ShapeQuery>
_hit0

> <ROCS_TanimotoCombo>
1.054 

> <ROCS_ShapeTanimoto>
0.454 

> <ROCS_ColorTanimoto>
0.600 

> <ROCS_RefTversky>
1.166 

> <ROCS_RefColorTversky>
0.750 

> <ROCS_RefTverskyCombo>
1.916 

> <ROCS_FitTversky>
0.426 

> <ROCS_FitColorTversky>
0.750 

> <ROCS_FitTverskyCombo>
1.176 

> <ROCS_ColorScore>
-2.999

> <ROCS_Overlap>
139.970

> <ROCS_Rank>
168                 

$$$$
untitled-dbase-20370_0
  -OEChem-06232314393D

 15 15  0     0  0  0  0  0  0999 V2000
   -6.5765    4.6862  -36.0258 C   0  0  0  0  0  0  0  0  0  0  0  0
   -5.7271    8.1405  -37.0097 C   0  0  0  0  0  0  0  0  0  0  0  0
   -6.1574    5.8775  -36.7005 C   0  0  0  0  0  0  0  0  0  0  0  0
   -6.1897    7.1840  -36.1330 C   0  0  0  0  0  0  0  0  0  0  0  0
   -5.6714    5.8852  -37.9896 C   0  0  0  0  0  0  0  0  0  0  0  0
   -6.6621    7.4987  -34.7618 C   0  0  0  0  0  0  0  0  0  0  0  0
   -6.9161    3.7205  -35.4790 N   0  0  0  0  0  0  0  0  0  0  0  0
   -5.5085    4.8189  -38.8158 N   0  0  0  0  0  0  0  0  0  0  0  0
   -5.2565    7.4629  -38.5103 S   0  0  0  0  0  0  0  0  0  0  0  0
   -5.6411    9.2058  -36.8456 H   0  0  0  0  0  0  0  0  0  0  0  0
   -7.7403    7.7137  -34.7612 H   0  0  0  0  0  0  0  0  0  0  0  0
   -6.4796    6.6642  -34.0682 H   0  0  0  0  0  0  0  0  0  0  0  0
   -6.1392    8.3718  -34.3429 H   0  0  0  0  0  0  0  0  0  0  0  0
   -5.7067    3.8610  -38.5059 H   0  0  0  0  0  0  0  0  0  0  0  0
   -5.0926    4.9181  -39.7486 H   0  0  0  0  0  0  0  0  0  0  0  0
  1  3  1  0  0  0  0
  1  7  3  0  0  0  0
  2  4  2  0  0  0  0
  2  9  1  0  0  0  0
  3  4  1  0  0  0  0
  3  5  2  0  0  0  0
  4  6  1  0  0  0  0
  5  8  1  0  0  0  0
  5  9  1  0  0  0  0
  2 10  1  0  0  0  0
  6 11  1  0  0  0  0
  6 12  1  0  0  0  0
  6 13  1  0  0  0  0
  8 14  1  0  0  0  0
  8 15  1  0  0  0  0
M  END
> <id>
EN300-209371

> <smiles>
CC1=CSC(N)=C1C#N

> <MDLNUMBER>
MFCD00277568

> <IUPAC Name>
2-amino-4-methylthiophene-3-carbonitrile

> <CAS>
4623-55-6

> <Purity>
95

> <URL>
https://www.enaminestore.com/catalog/EN300-209371

> <MP>
118-120

> <ROCS_ShapeQuery>
_hit0

> <ROCS_TanimotoCombo>
1.053 

> <ROCS_ShapeTanimoto>
0.457 

> <ROCS_ColorTanimoto>
0.596 

> <ROCS_RefTversky>
1.234 

> <ROCS_RefColorTversky>
0.747 

> <ROCS_RefTverskyCombo>
1.981 

> <ROCS_FitTversky>
0.420 

> <ROCS_FitColorTversky>
0.747 

> <ROCS_FitTverskyCombo>
1.167 

> <ROCS_ColorScore>
-2.988

> <ROCS_Overlap>
149.971

> <ROCS_Rank>
169                 

$$$$
untitled-dbase-40965_0
  -OEChem-06232314393D

 13 13  0     0  0  0  0  0  0999 V2000
   -6.4757    3.6805  -36.8411 C   0  0  0  0  0  0  0  0  0  0  0  0
   -6.9037    4.6985  -34.8386 C   0  0  0  0  0  0  0  0  0  0  0  0
   -6.0009    4.8714  -37.3450 C   0  0  0  0  0  0  0  0  0  0  0  0
   -6.4283    5.8892  -35.3422 C   0  0  0  0  0  0  0  0  0  0  0  0
   -6.9357    3.5727  -35.5788 N   0  0  0  0  0  0  0  0  0  0  0  0
   -5.9686    5.9971  -36.6046 N   0  0  0  0  0  0  0  0  0  0  0  0
   -5.5368    4.8972  -38.6790 N   0  0  0  0  0  0  0  0  0  0  0  0
   -6.4121    7.0097  -34.5607 O   0  0  0  0  0  0  0  0  0  0  0  0
   -6.5061    2.7693  -37.4276 H   0  0  0  0  0  0  0  0  0  0  0  0
   -7.2748    4.6070  -33.8248 H   0  0  0  0  0  0  0  0  0  0  0  0
   -5.5204    4.0476  -39.2040 H   0  0  0  0  0  0  0  0  0  0  0  0
   -5.1466    5.7425  -39.0409 H   0  0  0  0  0  0  0  0  0  0  0  0
   -6.0507    7.7568  -35.0604 H   0  0  0  0  0  0  0  0  0  0  0  0
  1  3  2  0  0  0  0
  1  5  1  0  0  0  0
  2  4  1  0  0  0  0
  2  5  2  0  0  0  0
  3  6  1  0  0  0  0
  3  7  1  0  0  0  0
  4  6  2  0  0  0  0
  4  8  1  0  0  0  0
  1  9  1  0  0  0  0
  2 10  1  0  0  0  0
  7 11  1  0  0  0  0
  7 12  1  0  0  0  0
  8 13  1  0  0  0  0
M  END
> <id>
EN300-85893

> <smiles>
NC=1C=NC=C(O)N1

> <MDLNUMBER>
MFCD12033121

> <IUPAC Name>
6-aminopyrazin-2-ol

> <CAS>
101257-36-7

> <Purity>
95

> <URL>
https://www.enaminestore.com/catalog/EN300-85893

> <ROCS_ShapeQuery>
_hit0

> <ROCS_TanimotoCombo>
1.053 

> <ROCS_ShapeTanimoto>
0.519 

> <ROCS_ColorTanimoto>
0.534 

> <ROCS_RefTversky>
1.306 

> <ROCS_RefColorTversky>
0.924 

> <ROCS_RefTverskyCombo>
2.230 

> <ROCS_FitTversky>
0.463 

> <ROCS_FitColorTversky>
0.559 

> <ROCS_FitTverskyCombo>
1.021 

> <ROCS_ColorScore>
-3.835

> <ROCS_Overlap>
157.572

> <ROCS_Rank>
170                 

$$$$
untitled-dbase-51763_0
  -OEChem-06232314393D

 14 14  0     0  0  0  0  0  0999 V2000
   -5.9642    5.8797  -36.7311 C   0  0  0  0  0  0  0  0  0  0  0  0
   -6.4301    3.5757  -37.0190 C   0  0  0  0  0  0  0  0  0  0  0  0
   -5.9580    4.7611  -37.5457 C   0  0  0  0  0  0  0  0  0  0  0  0
   -6.4425    5.7389  -35.4438 C   0  0  0  0  0  0  0  0  0  0  0  0
   -6.4709    6.9127  -34.5261 C   0  0  0  0  0  0  0  0  0  0  0  0
   -6.8924    3.4669  -35.7554 N   0  0  0  0  0  0  0  0  0  0  0  0
   -6.8988    4.5664  -34.9549 N   0  0  0  0  0  0  0  0  0  0  0  0
   -5.5022    4.8272  -38.8210 O   0  0  0  0  0  0  0  0  0  0  0  0
   -5.6036    6.8356  -37.0968 H   0  0  0  0  0  0  0  0  0  0  0  0
   -6.4533    2.6618  -37.6018 H   0  0  0  0  0  0  0  0  0  0  0  0
   -7.4252    7.4468  -34.6166 H   0  0  0  0  0  0  0  0  0  0  0  0
   -6.3434    6.6050  -33.4797 H   0  0  0  0  0  0  0  0  0  0  0  0
   -5.6573    7.6154  -34.7508 H   0  0  0  0  0  0  0  0  0  0  0  0
   -5.2081    5.7296  -39.0321 H   0  0  0  0  0  0  0  0  0  0  0  0
  1  3  1  0  0  0  0
  1  4  2  0  0  0  0
  2  3  2  0  0  0  0
  2  6  1  0  0  0  0
  3  8  1  0  0  0  0
  4  5  1  0  0  0  0
  4  7  1  0  0  0  0
  6  7  2  0  0  0  0
  1  9  1  0  0  0  0
  2 10  1  0  0  0  0
  5 11  1  0  0  0  0
  5 12  1  0  0  0  0
  5 13  1  0  0  0  0
  8 14  1  0  0  0  0
M  END
> <id>
EN300-2520450

> <smiles>
CC=1C=C(O)C=NN1

> <MDLNUMBER>
MFCD28667659

> <IUPAC Name>
6-methylpyridazin-4-ol

> <CAS>
22390-44-9

> <Purity>
95

> <URL>
https://www.enaminestore.com/catalog/EN300-2520450

> <ROCS_ShapeQuery>
_hit0

> <ROCS_TanimotoCombo>
1.052 

> <ROCS_ShapeTanimoto>
0.517 

> <ROCS_ColorTanimoto>
0.535 

> <ROCS_RefTversky>
1.290 

> <ROCS_RefColorTversky>
0.799 

> <ROCS_RefTverskyCombo>
2.089 

> <ROCS_FitTversky>
0.463 

> <ROCS_FitColorTversky>
0.619 

> <ROCS_FitTverskyCombo>
1.082 

> <ROCS_ColorScore>
-3.248

> <ROCS_Overlap>
155.338

> <ROCS_Rank>
171                 

$$$$
untitled-dbase-5610_0
  -OEChem-06232314393D

 15 15  0     0  0  0  0  0  0999 V2000
   -5.9784    5.8870  -36.7069 C   0  0  0  0  0  0  0  0  0  0  0  0
   -6.4413    3.5810  -36.9840 C   0  0  0  0  0  0  0  0  0  0  0  0
   -5.9706    4.7645  -37.5162 C   0  0  0  0  0  0  0  0  0  0  0  0
   -6.4567    5.7517  -35.4191 C   0  0  0  0  0  0  0  0  0  0  0  0
   -6.4878    6.9299  -34.5071 C   0  0  0  0  0  0  0  0  0  0  0  0
   -6.9035    3.4776  -35.7200 N   0  0  0  0  0  0  0  0  0  0  0  0
   -6.9115    4.5809  -34.9247 N   0  0  0  0  0  0  0  0  0  0  0  0
   -5.4987    4.8280  -38.8373 N   0  0  0  0  0  0  0  0  0  0  0  0
   -5.6195    6.8437  -37.0739 H   0  0  0  0  0  0  0  0  0  0  0  0
   -6.4659    2.6619  -37.5589 H   0  0  0  0  0  0  0  0  0  0  0  0
   -7.4432    7.4615  -34.6005 H   0  0  0  0  0  0  0  0  0  0  0  0
   -6.3599    6.6276  -33.4592 H   0  0  0  0  0  0  0  0  0  0  0  0
   -5.6756    7.6332  -34.7351 H   0  0  0  0  0  0  0  0  0  0  0  0
   -5.4592    3.9910  -39.3885 H   0  0  0  0  0  0  0  0  0  0  0  0
   -5.1184    5.6885  -39.1850 H   0  0  0  0  0  0  0  0  0  0  0  0
  1  3  1  0  0  0  0
  1  4  2  0  0  0  0
  2  3  2  0  0  0  0
  2  6  1  0  0  0  0
  3  8  1  0  0  0  0
  4  5  1  0  0  0  0
  4  7  1  0  0  0  0
  6  7  2  0  0  0  0
  1  9  1  0  0  0  0
  2 10  1  0  0  0  0
  5 11  1  0  0  0  0
  5 12  1  0  0  0  0
  5 13  1  0  0  0  0
  8 14  1  0  0  0  0
  8 15  1  0  0  0  0
M  END
> <id>
EN300-221612

> <smiles>
CC=1C=C(N)C=NN1

> <MDLNUMBER>
MFCD11878428

> <IUPAC Name>
6-methylpyridazin-4-amine

> <CAS>
875215-31-9

> <URL>
https://www.enaminestore.com/catalog/EN300-221612

> <ROCS_ShapeQuery>
_hit0

> <ROCS_TanimotoCombo>
1.052 

> <ROCS_ShapeTanimoto>
0.518 

> <ROCS_ColorTanimoto>
0.534 

> <ROCS_RefTversky>
1.289 

> <ROCS_RefColorTversky>
0.797 

> <ROCS_RefTverskyCombo>
2.086 

> <ROCS_FitTversky>
0.464 

> <ROCS_FitColorTversky>
0.617 

> <ROCS_FitTverskyCombo>
1.082 

> <ROCS_ColorScore>
-3.241

> <ROCS_Overlap>
155.092

> <ROCS_Rank>
172                 

$$$$
untitled-dbase-38222_0
  -OEChem-06232314393D

 15 15  0     0  0  0  0  0  0999 V2000
   -5.9784    5.8870  -36.7069 C   0  0  0  0  0  0  0  0  0  0  0  0
   -6.4413    3.5810  -36.9840 C   0  0  0  0  0  0  0  0  0  0  0  0
   -5.9706    4.7645  -37.5162 C   0  0  0  0  0  0  0  0  0  0  0  0
   -6.4567    5.7517  -35.4191 C   0  0  0  0  0  0  0  0  0  0  0  0
   -6.4878    6.9299  -34.5071 C   0  0  0  0  0  0  0  0  0  0  0  0
   -6.9035    3.4776  -35.7200 N   0  0  0  0  0  0  0  0  0  0  0  0
   -6.9115    4.5809  -34.9247 N   0  0  0  0  0  0  0  0  0  0  0  0
   -5.4987    4.8280  -38.8373 N   0  0  0  0  0  0  0  0  0  0  0  0
   -5.6195    6.8437  -37.0739 H   0  0  0  0  0  0  0  0  0  0  0  0
   -6.4659    2.6619  -37.5589 H   0  0  0  0  0  0  0  0  0  0  0  0
   -7.4432    7.4615  -34.6005 H   0  0  0  0  0  0  0  0  0  0  0  0
   -6.3599    6.6276  -33.4592 H   0  0  0  0  0  0  0  0  0  0  0  0
   -5.6756    7.6332  -34.7351 H   0  0  0  0  0  0  0  0  0  0  0  0
   -5.4592    3.9910  -39.3885 H   0  0  0  0  0  0  0  0  0  0  0  0
   -5.1184    5.6885  -39.1850 H   0  0  0  0  0  0  0  0  0  0  0  0
  1  3  1  0  0  0  0
  1  4  2  0  0  0  0
  2  3  2  0  0  0  0
  2  6  1  0  0  0  0
  3  8  1  0  0  0  0
  4  5  1  0  0  0  0
  4  7  1  0  0  0  0
  6  7  2  0  0  0  0
  1  9  1  0  0  0  0
  2 10  1  0  0  0  0
  5 11  1  0  0  0  0
  5 12  1  0  0  0  0
  5 13  1  0  0  0  0
  8 14  1  0  0  0  0
  8 15  1  0  0  0  0
M  END
> <id>
EN300-266098

> <smiles>
Cl.CC=1C=C(N)C=NN1

> <MDLNUMBER>
MFCD29907144

> <IUPAC Name>
6-methylpyridazin-4-amine hydrochloride

> <CAS>
1892936-61-6

> <Purity>
95

> <URL>
https://www.enaminestore.com/catalog/EN300-266098

> <Saltdate>
Cl

> <MP>
274-279

> <ROCS_ShapeQuery>
_hit0

> <ROCS_TanimotoCombo>
1.052 

> <ROCS_ShapeTanimoto>
0.518 

> <ROCS_ColorTanimoto>
0.534 

> <ROCS_RefTversky>
1.289 

> <ROCS_RefColorTversky>
0.797 

> <ROCS_RefTverskyCombo>
2.086 

> <ROCS_FitTversky>
0.464 

> <ROCS_FitColorTversky>
0.617 

> <ROCS_FitTverskyCombo>
1.082 

> <ROCS_ColorScore>
-3.241

> <ROCS_Overlap>
155.092

> <ROCS_Rank>
173                 

$$$$
untitled-dbase-13493_0
  -OEChem-06232314393D

 10 10  0     1  0  0  0  0  0999 V2000
   -6.3632    4.2753  -36.5048 C   0  0  0  0  0  0  0  0  0  0  0  0
   -6.3725    5.1951  -37.6944 C   0  0  1  0  0  0  0  0  0  0  0  0
   -5.6873    5.6116  -36.4255 C   0  0  1  0  0  0  0  0  0  0  0  0
   -5.5112    4.8239  -38.7824 O   0  0  0  0  0  0  0  0  0  0  0  0
   -6.3829    6.8735  -35.4435 Cl  0  0  0  0  0  0  0  0  0  0  0  0
   -7.2978    4.1287  -35.9768 H   0  0  0  0  0  0  0  0  0  0  0  0
   -5.7333    3.3945  -36.5432 H   0  0  0  0  0  0  0  0  0  0  0  0
   -7.3164    5.6617  -37.9504 H   0  0  0  0  0  0  0  0  0  0  0  0
   -4.6068    5.6442  -36.3966 H   0  0  0  0  0  0  0  0  0  0  0  0
   -5.6298    5.5047  -39.4584 H   0  0  0  0  0  0  0  0  0  0  0  0
  1  2  1  0  0  0  0
  1  3  1  0  0  0  0
  2  3  1  0  0  0  0
  2  4  1  0  0  0  0
  3  5  1  0  0  0  0
  1  6  1  0  0  0  0
  1  7  1  0  0  0  0
  2  8  1  0  0  0  0
  3  9  1  0  0  0  0
  4 10  1  0  0  0  0
M  END
> <id>
EN300-706224

> <smiles>
OC1CC1Cl

> <MDLNUMBER>
MFCD24511618

> <IUPAC Name>
2-chlorocyclopropan-1-ol

> <CAS>
1824242-33-2

> <URL>
https://www.enaminestore.com/catalog/EN300-706224

> <ROCS_ShapeQuery>
_hit0

> <ROCS_TanimotoCombo>
1.051 

> <ROCS_ShapeTanimoto>
0.551 

> <ROCS_ColorTanimoto>
0.500 

> <ROCS_RefTversky>
0.925 

> <ROCS_RefColorTversky>
0.513 

> <ROCS_RefTverskyCombo>
1.437 

> <ROCS_FitTversky>
0.577 

> <ROCS_FitColorTversky>
0.952 

> <ROCS_FitTverskyCombo>
1.529 

> <ROCS_ColorScore>
-1.999

> <ROCS_Overlap>
103.778

> <ROCS_Rank>
174                 

$$$$
untitled-dbase-32198_0
  -OEChem-06232314393D

 13 13  0     0  0  0  0  0  0999 V2000
   -6.4554    3.6994  -36.8811 C   0  0  0  0  0  0  0  0  0  0  0  0
   -6.8964    4.7407  -34.8203 C   0  0  0  0  0  0  0  0  0  0  0  0
   -5.9791    4.8174  -37.4429 C   0  0  0  0  0  0  0  0  0  0  0  0
   -6.4529    5.9330  -35.2309 C   0  0  0  0  0  0  0  0  0  0  0  0
   -5.9462    6.0536  -36.6218 C   0  0  0  0  0  0  0  0  0  0  0  0
   -5.5240    7.1146  -37.0664 O   0  0  0  0  0  0  0  0  0  0  0  0
   -6.9220    3.6024  -35.5911 O   0  0  0  0  0  0  0  0  0  0  0  0
   -5.5263    4.8508  -38.7399 O   0  0  0  0  0  0  0  0  0  0  0  0
   -6.4516    7.0357  -34.4105 O   0  0  0  0  0  0  0  0  0  0  0  0
   -6.5234    2.7472  -37.3884 H   0  0  0  0  0  0  0  0  0  0  0  0
   -7.2843    4.5452  -33.8305 H   0  0  0  0  0  0  0  0  0  0  0  0
   -5.2242    5.7390  -38.9637 H   0  0  0  0  0  0  0  0  0  0  0  0
   -6.0969    7.7993  -34.8809 H   0  0  0  0  0  0  0  0  0  0  0  0
  1  3  2  0  0  0  0
  1  7  1  0  0  0  0
  2  4  2  0  0  0  0
  2  7  1  0  0  0  0
  3  5  1  0  0  0  0
  3  8  1  0  0  0  0
  4  5  1  0  0  0  0
  4  9  1  0  0  0  0
  5  6  2  0  0  0  0
  1 10  1  0  0  0  0
  2 11  1  0  0  0  0
  8 12  1  0  0  0  0
  9 13  1  0  0  0  0
M  END
> <id>
EN300-7626442

> <smiles>
OC1=COC=C(O)C1=O

> <MDLNUMBER>
MFCD18820252

> <IUPAC Name>
3,5-dihydroxy-4H-pyran-4-one

> <CAS>
488-18-6

> <Purity>
95

> <URL>
https://www.enaminestore.com/catalog/EN300-7626442

> <MP>
145-146

> <ROCS_ShapeQuery>
_hit0

> <ROCS_TanimotoCombo>
1.051 

> <ROCS_ShapeTanimoto>
0.497 

> <ROCS_ColorTanimoto>
0.554 

> <ROCS_RefTversky>
1.361 

> <ROCS_RefColorTversky>
0.945 

> <ROCS_RefTverskyCombo>
2.306 

> <ROCS_FitTversky>
0.439 

> <ROCS_FitColorTversky>
0.572 

> <ROCS_FitTverskyCombo>
1.011 

> <ROCS_ColorScore>
-3.922

> <ROCS_Overlap>
167.106

> <ROCS_Rank>
175                 

$$$$
untitled-dbase-2340_0
  -OEChem-06232314393D

 16 16  0     0  0  0  0  0  0999 V2000
   -6.2644    6.1625  -35.4525 C   0  0  0  0  0  0  0  0  0  0  0  0
   -5.8404    6.0966  -36.7750 C   0  0  0  0  0  0  0  0  0  0  0  0
   -6.7723    5.0094  -34.8760 C   0  0  0  0  0  0  0  0  0  0  0  0
   -5.9360    4.8966  -37.4709 C   0  0  0  0  0  0  0  0  0  0  0  0
   -6.4584    3.8002  -36.8040 C   0  0  0  0  0  0  0  0  0  0  0  0
   -6.5861    2.4832  -37.4986 C   0  0  0  0  0  0  0  0  0  0  0  0
   -6.8806    3.8257  -35.5200 N   0  0  0  0  0  0  0  0  0  0  0  0
   -5.5099    4.8196  -38.8089 N   0  0  0  0  0  0  0  0  0  0  0  0
   -6.1994    7.0871  -34.8905 H   0  0  0  0  0  0  0  0  0  0  0  0
   -5.4377    6.9857  -37.2529 H   0  0  0  0  0  0  0  0  0  0  0  0
   -7.1165    5.0083  -33.8470 H   0  0  0  0  0  0  0  0  0  0  0  0
   -5.6745    1.8913  -37.3593 H   0  0  0  0  0  0  0  0  0  0  0  0
   -7.4376    1.9119  -37.1097 H   0  0  0  0  0  0  0  0  0  0  0  0
   -6.7556    2.6180  -38.5738 H   0  0  0  0  0  0  0  0  0  0  0  0
   -5.5399    3.9384  -39.2849 H   0  0  0  0  0  0  0  0  0  0  0  0
   -5.0945    5.6232  -39.2397 H   0  0  0  0  0  0  0  0  0  0  0  0
  1  2  1  0  0  0  0
  1  3  2  0  0  0  0
  2  4  2  0  0  0  0
  3  7  1  0  0  0  0
  4  5  1  0  0  0  0
  4  8  1  0  0  0  0
  5  6  1  0  0  0  0
  5  7  2  0  0  0  0
  1  9  1  0  0  0  0
  2 10  1  0  0  0  0
  3 11  1  0  0  0  0
  6 12  1  0  0  0  0
  6 13  1  0  0  0  0
  6 14  1  0  0  0  0
  8 15  1  0  0  0  0
  8 16  1  0  0  0  0
M  END
> <id>
EN300-84026

> <smiles>
CC=1N=CC=CC1N

> <MDLNUMBER>
MFCD03788195

> <IUPAC Name>
2-methylpyridin-3-amine

> <CAS>
3430-10-2

> <Purity>
95

> <URL>
https://www.enaminestore.com/catalog/EN300-84026

> <MP>
114-119

> <ROCS_ShapeQuery>
_hit0

> <ROCS_TanimotoCombo>
1.049 

> <ROCS_ShapeTanimoto>
0.450 

> <ROCS_ColorTanimoto>
0.600 

> <ROCS_RefTversky>
1.170 

> <ROCS_RefColorTversky>
0.750 

> <ROCS_RefTverskyCombo>
1.920 

> <ROCS_FitTversky>
0.422 

> <ROCS_FitColorTversky>
0.750 

> <ROCS_FitTverskyCombo>
1.172 

> <ROCS_ColorScore>
-2.999

> <ROCS_Overlap>
140.730

> <ROCS_Rank>
176                 

$$$$
untitled-dbase-7537_0
  -OEChem-06232314393D

 12 11  0     0  0  0  0  0  0999 V2000
   -5.6716    5.4216  -37.9073 C   0  0  0  0  0  0  0  0  0  0  0  0
   -6.4407    5.6174  -35.5410 C   0  0  0  0  0  0  0  0  0  0  0  0
   -6.1810    7.9497  -34.5959 C   0  0  0  0  0  0  0  0  0  0  0  0
   -5.4632    4.8735  -38.9084 N   0  0  0  0  0  0  0  0  0  0  0  0
   -5.9128    6.0674  -36.7402 N   0  0  0  0  0  0  0  0  0  0  0  0
   -6.5553    6.5506  -34.5311 N   0  0  0  0  0  0  0  0  0  0  0  0
   -6.9363    4.0358  -35.2584 S   0  0  0  0  0  0  0  0  0  0  0  0
   -5.1328    8.0643  -34.2825 H   0  0  0  0  0  0  0  0  0  0  0  0
   -6.2968    8.3127  -35.6278 H   0  0  0  0  0  0  0  0  0  0  0  0
   -6.8297    8.5340  -33.9267 H   0  0  0  0  0  0  0  0  0  0  0  0
   -5.6502    7.0472  -36.7868 H   0  0  0  0  0  0  0  0  0  0  0  0
   -6.9421    6.2229  -33.6512 H   0  0  0  0  0  0  0  0  0  0  0  0
  1  4  3  0  0  0  0
  1  5  1  0  0  0  0
  2  5  1  0  0  0  0
  2  6  1  0  0  0  0
  2  7  2  0  0  0  0
  3  6  1  0  0  0  0
  3  8  1  0  0  0  0
  3  9  1  0  0  0  0
  3 10  1  0  0  0  0
  5 11  1  0  0  0  0
  6 12  1  0  0  0  0
M  END
> <id>
EN300-211481

> <smiles>
CNC(=S)NC#N

> <MDLNUMBER>
MFCD13176349

> <IUPAC Name>
3-cyano-1-methylthiourea

> <CAS>
78286-57-4

> <URL>
https://www.enaminestore.com/catalog/EN300-211481

> <ROCS_ShapeQuery>
_hit0

> <ROCS_TanimotoCombo>
1.049 

> <ROCS_ShapeTanimoto>
0.621 

> <ROCS_ColorTanimoto>
0.428 

> <ROCS_RefTversky>
1.228 

> <ROCS_RefColorTversky>
0.667 

> <ROCS_RefTverskyCombo>
1.895 

> <ROCS_FitTversky>
0.557 

> <ROCS_FitColorTversky>
0.545 

> <ROCS_FitTverskyCombo>
1.101 

> <ROCS_ColorScore>
-2.700

> <ROCS_Overlap>
142.797

> <ROCS_Rank>
177                 

$$$$
untitled-dbase-6567_3
  -OEChem-06232314393D

 20 20  0     1  0  0  0  0  0999 V2000
   -7.6562    4.8254  -37.6691 C   0  0  0  0  0  0  0  0  0  0  0  0
   -7.4760    3.5538  -36.8455 C   0  0  0  0  0  0  0  0  0  0  0  0
   -5.5289    4.3766  -35.7779 C   0  0  0  0  0  0  0  0  0  0  0  0
   -5.5725    5.7180  -36.5223 C   0  0  1  0  0  0  0  0  0  0  0  0
   -6.3279    5.5602  -37.8528 C   0  0  1  0  0  0  0  0  0  0  0  0
   -6.2153    6.7990  -35.6482 C   0  0  0  0  0  0  0  0  0  0  0  0
   -6.8398    3.8388  -35.6007 O   0  0  0  0  0  0  0  0  0  0  0  0
   -5.5280    4.7996  -38.7606 O   0  0  0  0  0  0  0  0  0  0  0  0
   -8.0599    4.5655  -38.6581 H   0  0  0  0  0  0  0  0  0  0  0  0
   -8.3968    5.4867  -37.2013 H   0  0  0  0  0  0  0  0  0  0  0  0
   -8.4382    3.0596  -36.6614 H   0  0  0  0  0  0  0  0  0  0  0  0
   -6.8422    2.8459  -37.3906 H   0  0  0  0  0  0  0  0  0  0  0  0
   -4.9506    3.6449  -36.3549 H   0  0  0  0  0  0  0  0  0  0  0  0
   -5.0419    4.4754  -34.7984 H   0  0  0  0  0  0  0  0  0  0  0  0
   -4.5516    6.0348  -36.7472 H   0  0  0  0  0  0  0  0  0  0  0  0
   -6.5084    6.5369  -38.3092 H   0  0  0  0  0  0  0  0  0  0  0  0
   -7.2373    6.5154  -35.4038 H   0  0  0  0  0  0  0  0  0  0  0  0
   -6.2257    7.7469  -36.1831 H   0  0  0  0  0  0  0  0  0  0  0  0
   -5.6464    6.9143  -34.7274 H   0  0  0  0  0  0  0  0  0  0  0  0
   -4.6917    5.2805  -38.8641 H   0  0  0  0  0  0  0  0  0  0  0  0
  1  2  1  0  0  0  0
  1  5  1  0  0  0  0
  2  7  1  0  0  0  0
  3  4  1  0  0  0  0
  3  7  1  0  0  0  0
  4  5  1  0  0  0  0
  4  6  1  0  0  0  0
  5  8  1  0  0  0  0
  1  9  1  0  0  0  0
  1 10  1  0  0  0  0
  2 11  1  0  0  0  0
  2 12  1  0  0  0  0
  3 13  1  0  0  0  0
  3 14  1  0  0  0  0
  4 15  1  0  0  0  0
  5 16  1  0  0  0  0
  6 17  1  0  0  0  0
  6 18  1  0  0  0  0
  6 19  1  0  0  0  0
  8 20  1  0  0  0  0
M  END
> <id>
EN300-196673

> <smiles>
CC1COCCC1O

> <MDLNUMBER>
MFCD18432479

> <IUPAC Name>
3-methyloxan-4-ol

> <CAS>
89534-37-2

> <Purity>
95

> <URL>
https://www.enaminestore.com/catalog/EN300-196673

> <ROCS_ShapeQuery>
_hit0

> <ROCS_TanimotoCombo>
1.048 

> <ROCS_ShapeTanimoto>
0.451 

> <ROCS_ColorTanimoto>
0.597 

> <ROCS_RefTversky>
1.128 

> <ROCS_RefColorTversky>
0.747 

> <ROCS_RefTverskyCombo>
1.875 

> <ROCS_FitTversky>
0.429 

> <ROCS_FitColorTversky>
0.747 

> <ROCS_FitTverskyCombo>
1.177 

> <ROCS_ColorScore>
-2.989

> <ROCS_Overlap>
134.460

> <ROCS_Rank>
178                 

$$$$
untitled-dbase-37983_0
  -OEChem-06232314393D

 13 13  0     0  0  0  0  0  0999 V2000
   -5.8914    5.8814  -36.6524 C   0  0  0  0  0  0  0  0  0  0  0  0
   -5.9438    4.7970  -37.5011 C   0  0  0  0  0  0  0  0  0  0  0  0
   -6.5026    3.6742  -36.8264 C   0  0  0  0  0  0  0  0  0  0  0  0
   -6.7149    2.3354  -37.4207 C   0  0  0  0  0  0  0  0  0  0  0  0
   -6.8629    3.8439  -35.5565 N   0  0  0  0  0  0  0  0  0  0  0  0
   -5.5223    4.8122  -38.7858 N   0  0  0  0  0  0  0  0  0  0  0  0
   -6.5259    5.4147  -35.1314 S   0  0  0  0  0  0  0  0  0  0  0  0
   -5.5279    6.8822  -36.8400 H   0  0  0  0  0  0  0  0  0  0  0  0
   -5.8315    1.6952  -37.2736 H   0  0  0  0  0  0  0  0  0  0  0  0
   -7.5826    1.8224  -36.9756 H   0  0  0  0  0  0  0  0  0  0  0  0
   -6.9139    2.3944  -38.5030 H   0  0  0  0  0  0  0  0  0  0  0  0
   -5.5344    3.9676  -39.3746 H   0  0  0  0  0  0  0  0  0  0  0  0
   -5.0827    5.6429  -39.2063 H   0  0  0  0  0  0  0  0  0  0  0  0
  1  2  2  0  0  0  0
  1  7  1  0  0  0  0
  2  3  1  0  0  0  0
  2  6  1  0  0  0  0
  3  4  1  0  0  0  0
  3  5  2  0  0  0  0
  5  7  1  0  0  0  0
  1  8  1  0  0  0  0
  4  9  1  0  0  0  0
  4 10  1  0  0  0  0
  4 11  1  0  0  0  0
  6 12  1  0  0  0  0
  6 13  1  0  0  0  0
M  END
> <id>
EN300-120283

> <smiles>
CC1=NSC=C1N

> <MDLNUMBER>
MFCD10700204

> <IUPAC Name>
3-methyl-1,2-thiazol-4-amine

> <CAS>
53483-97-9

> <URL>
https://www.enaminestore.com/catalog/EN300-120283

> <ROCS_ShapeQuery>
_hit0

> <ROCS_TanimotoCombo>
1.047 

> <ROCS_ShapeTanimoto>
0.448 

> <ROCS_ColorTanimoto>
0.599 

> <ROCS_RefTversky>
1.038 

> <ROCS_RefColorTversky>
0.749 

> <ROCS_RefTverskyCombo>
1.787 

> <ROCS_FitTversky>
0.441 

> <ROCS_FitColorTversky>
0.749 

> <ROCS_FitTverskyCombo>
1.190 

> <ROCS_ColorScore>
-2.997

> <ROCS_Overlap>
121.748

> <ROCS_Rank>
179                 

$$$$
untitled-dbase-19437_0
  -OEChem-06232314393D

 13 13  0     0  0  0  0  0  0999 V2000
   -5.8914    5.8814  -36.6524 C   0  0  0  0  0  0  0  0  0  0  0  0
   -5.9438    4.7970  -37.5011 C   0  0  0  0  0  0  0  0  0  0  0  0
   -6.5026    3.6742  -36.8264 C   0  0  0  0  0  0  0  0  0  0  0  0
   -6.7149    2.3354  -37.4207 C   0  0  0  0  0  0  0  0  0  0  0  0
   -6.8629    3.8439  -35.5565 N   0  0  0  0  0  0  0  0  0  0  0  0
   -5.5223    4.8122  -38.7858 N   0  0  0  0  0  0  0  0  0  0  0  0
   -6.5259    5.4147  -35.1314 S   0  0  0  0  0  0  0  0  0  0  0  0
   -5.5279    6.8822  -36.8400 H   0  0  0  0  0  0  0  0  0  0  0  0
   -5.8315    1.6952  -37.2736 H   0  0  0  0  0  0  0  0  0  0  0  0
   -7.5826    1.8224  -36.9756 H   0  0  0  0  0  0  0  0  0  0  0  0
   -6.9139    2.3944  -38.5030 H   0  0  0  0  0  0  0  0  0  0  0  0
   -5.5344    3.9676  -39.3746 H   0  0  0  0  0  0  0  0  0  0  0  0
   -5.0827    5.6429  -39.2063 H   0  0  0  0  0  0  0  0  0  0  0  0
  1  2  2  0  0  0  0
  1  7  1  0  0  0  0
  2  3  1  0  0  0  0
  2  6  1  0  0  0  0
  3  4  1  0  0  0  0
  3  5  2  0  0  0  0
  5  7  1  0  0  0  0
  1  8  1  0  0  0  0
  4  9  1  0  0  0  0
  4 10  1  0  0  0  0
  4 11  1  0  0  0  0
  6 12  1  0  0  0  0
  6 13  1  0  0  0  0
M  END
> <id>
EN300-1590030

> <smiles>
Cl.CC1=NSC=C1N

> <MDLNUMBER>
MFCD30478635

> <IUPAC Name>
3-methyl-1,2-thiazol-4-amine hydrochloride

> <CAS>
1958100-55-4

> <Purity>
95

> <URL>
https://www.enaminestore.com/catalog/EN300-1590030

> <Saltdate>
Cl

> <ROCS_ShapeQuery>
_hit0

> <ROCS_TanimotoCombo>
1.047 

> <ROCS_ShapeTanimoto>
0.448 

> <ROCS_ColorTanimoto>
0.599 

> <ROCS_RefTversky>
1.038 

> <ROCS_RefColorTversky>
0.749 

> <ROCS_RefTverskyCombo>
1.787 

> <ROCS_FitTversky>
0.441 

> <ROCS_FitColorTversky>
0.749 

> <ROCS_FitTverskyCombo>
1.190 

> <ROCS_ColorScore>
-2.997

> <ROCS_Overlap>
121.748

> <ROCS_Rank>
180                 

$$$$
untitled-dbase-7086_0
  -OEChem-06232314393D

 15 15  0     0  0  0  0  0  0999 V2000
   -6.2952    6.1764  -35.4980 C   0  0  0  0  0  0  0  0  0  0  0  0
   -5.8613    6.1040  -36.8170 C   0  0  0  0  0  0  0  0  0  0  0  0
   -6.7867    5.0208  -34.9126 C   0  0  0  0  0  0  0  0  0  0  0  0
   -5.9312    4.8953  -37.5006 C   0  0  0  0  0  0  0  0  0  0  0  0
   -6.4389    3.7969  -36.8255 C   0  0  0  0  0  0  0  0  0  0  0  0
   -6.5374    2.4756  -37.5144 C   0  0  0  0  0  0  0  0  0  0  0  0
   -6.8701    3.8287  -35.5446 N   0  0  0  0  0  0  0  0  0  0  0  0
   -5.5127    4.8138  -38.7894 O   0  0  0  0  0  0  0  0  0  0  0  0
   -6.2499    7.1083  -34.9459 H   0  0  0  0  0  0  0  0  0  0  0  0
   -5.4726    6.9928  -37.3059 H   0  0  0  0  0  0  0  0  0  0  0  0
   -7.1387    5.0245  -33.8862 H   0  0  0  0  0  0  0  0  0  0  0  0
   -5.6160    1.9004  -37.3668 H   0  0  0  0  0  0  0  0  0  0  0  0
   -7.3809    1.8895  -37.1291 H   0  0  0  0  0  0  0  0  0  0  0  0
   -6.7021    2.6016  -38.5918 H   0  0  0  0  0  0  0  0  0  0  0  0
   -5.1914    5.6775  -39.0977 H   0  0  0  0  0  0  0  0  0  0  0  0
  1  2  1  0  0  0  0
  1  3  2  0  0  0  0
  2  4  2  0  0  0  0
  3  7  1  0  0  0  0
  4  5  1  0  0  0  0
  4  8  1  0  0  0  0
  5  6  1  0  0  0  0
  5  7  2  0  0  0  0
  1  9  1  0  0  0  0
  2 10  1  0  0  0  0
  3 11  1  0  0  0  0
  6 12  1  0  0  0  0
  6 13  1  0  0  0  0
  6 14  1  0  0  0  0
  8 15  1  0  0  0  0
M  END
> <id>
EN300-55470

> <smiles>
CC=1N=CC=CC1O

> <MDLNUMBER>
MFCD00082538

> <IUPAC Name>
2-methylpyridin-3-ol

> <CAS>
1121-25-1

> <Purity>
95

> <URL>
https://www.enaminestore.com/catalog/EN300-55470

> <MP>
168-169

> <ROCS_ShapeQuery>
_hit0

> <ROCS_TanimotoCombo>
1.047 

> <ROCS_ShapeTanimoto>
0.447 

> <ROCS_ColorTanimoto>
0.600 

> <ROCS_RefTversky>
1.169 

> <ROCS_RefColorTversky>
0.750 

> <ROCS_RefTverskyCombo>
1.919 

> <ROCS_FitTversky>
0.420 

> <ROCS_FitColorTversky>
0.750 

> <ROCS_FitTverskyCombo>
1.170 

> <ROCS_ColorScore>
-2.999

> <ROCS_Overlap>
140.784

> <ROCS_Rank>
181                 

$$$$
untitled-dbase-25712_0
  -OEChem-06232314393D

 14 14  0     1  0  0  0  0  0999 V2000
   -6.3650    3.5237  -36.9066 C   0  0  0  0  0  0  0  0  0  0  0  0
   -6.7485    5.2658  -35.4016 C   0  0  0  0  0  0  0  0  0  0  0  0
   -6.4279    4.8119  -37.6934 C   0  0  1  0  0  0  0  0  0  0  0  0
   -6.0727    5.8178  -36.6331 C   0  0  0  0  0  0  0  0  0  0  0  0
   -6.8530    3.8424  -35.5951 O   0  0  0  0  0  0  0  0  0  0  0  0
   -5.5180    4.8107  -38.7712 O   0  0  0  0  0  0  0  0  0  0  0  0
   -4.7360    5.8716  -36.4405 F   0  0  0  0  0  0  0  0  0  0  0  0
   -6.5026    7.0527  -36.9424 F   0  0  0  0  0  0  0  0  0  0  0  0
   -6.9817    2.7349  -37.3475 H   0  0  0  0  0  0  0  0  0  0  0  0
   -5.3418    3.1407  -36.8182 H   0  0  0  0  0  0  0  0  0  0  0  0
   -6.1754    5.4564  -34.4901 H   0  0  0  0  0  0  0  0  0  0  0  0
   -7.7604    5.6640  -35.2788 H   0  0  0  0  0  0  0  0  0  0  0  0
   -7.4406    4.9892  -38.0729 H   0  0  0  0  0  0  0  0  0  0  0  0
   -4.6250    4.7024  -38.3979 H   0  0  0  0  0  0  0  0  0  0  0  0
  1  3  1  0  0  0  0
  1  5  1  0  0  0  0
  2  4  1  0  0  0  0
  2  5  1  0  0  0  0
  3  4  1  0  0  0  0
  3  6  1  0  0  0  0
  4  7  1  0  0  0  0
  4  8  1  0  0  0  0
  1  9  1  0  0  0  0
  1 10  1  0  0  0  0
  2 11  1  0  0  0  0
  2 12  1  0  0  0  0
  3 13  1  0  0  0  0
  6 14  1  0  0  0  0
M  END
> <id>
EN300-1703301

> <smiles>
OC1COCC1(F)F

> <MDLNUMBER>
MFCD29046525

> <IUPAC Name>
4,4-difluorooxolan-3-ol

> <CAS>
1782515-61-0

> <Purity>
95

> <URL>
https://www.enaminestore.com/catalog/EN300-1703301

> <ROCS_ShapeQuery>
_hit0

> <ROCS_TanimotoCombo>
1.046 

> <ROCS_ShapeTanimoto>
0.448 

> <ROCS_ColorTanimoto>
0.598 

> <ROCS_RefTversky>
1.176 

> <ROCS_RefColorTversky>
0.748 

> <ROCS_RefTverskyCombo>
1.924 

> <ROCS_FitTversky>
0.420 

> <ROCS_FitColorTversky>
0.748 

> <ROCS_FitTverskyCombo>
1.168 

> <ROCS_ColorScore>
-2.993

> <ROCS_Overlap>
141.768

> <ROCS_Rank>
182                 

$$$$
untitled-dbase-43081_0
  -OEChem-06232314393D

 21 21  0     0  0  0  0  0  0999 V2000
   -6.8546    4.9938  -34.9251 C   0  0  0  0  0  0  0  0  0  0  0  0
   -6.4080    6.1687  -35.5081 C   0  0  0  0  0  0  0  0  0  0  0  0
   -5.9529    6.1118  -36.8207 C   0  0  0  0  0  0  0  0  0  0  0  0
   -5.9583    4.8989  -37.5006 C   0  0  0  0  0  0  0  0  0  0  0  0
   -6.4248    3.7809  -36.8283 C   0  0  0  0  0  0  0  0  0  0  0  0
   -6.4249    7.4400  -34.7323 C   0  0  0  0  0  0  0  0  0  0  0  0
   -5.4595    7.3477  -37.5017 C   0  0  0  0  0  0  0  0  0  0  0  0
   -6.4519    2.4531  -37.5118 C   0  0  0  0  0  0  0  0  0  0  0  0
   -6.8748    3.7971  -35.5536 N   0  0  0  0  0  0  0  0  0  0  0  0
   -5.5191    4.8139  -38.7838 O   0  0  0  0  0  0  0  0  0  0  0  0
   -7.2216    4.9761  -33.9033 H   0  0  0  0  0  0  0  0  0  0  0  0
   -5.4779    7.5739  -34.1940 H   0  0  0  0  0  0  0  0  0  0  0  0
   -6.5758    8.3077  -35.3888 H   0  0  0  0  0  0  0  0  0  0  0  0
   -7.2440    7.4515  -34.0003 H   0  0  0  0  0  0  0  0  0  0  0  0
   -4.3830    7.4672  -37.3358 H   0  0  0  0  0  0  0  0  0  0  0  0
   -5.6453    7.3048  -38.5814 H   0  0  0  0  0  0  0  0  0  0  0  0
   -5.9738    8.2393  -37.1232 H   0  0  0  0  0  0  0  0  0  0  0  0
   -5.5073    1.9220  -37.3472 H   0  0  0  0  0  0  0  0  0  0  0  0
   -7.2732    1.8306  -37.1360 H   0  0  0  0  0  0  0  0  0  0  0  0
   -6.6058    2.5667  -38.5921 H   0  0  0  0  0  0  0  0  0  0  0  0
   -5.2289    5.6850  -39.1006 H   0  0  0  0  0  0  0  0  0  0  0  0
  1  2  2  0  0  0  0
  1  9  1  0  0  0  0
  2  3  1  0  0  0  0
  2  6  1  0  0  0  0
  3  4  2  0  0  0  0
  3  7  1  0  0  0  0
  4  5  1  0  0  0  0
  4 10  1  0  0  0  0
  5  8  1  0  0  0  0
  5  9  2  0  0  0  0
  1 11  1  0  0  0  0
  6 12  1  0  0  0  0
  6 13  1  0  0  0  0
  6 14  1  0  0  0  0
  7 15  1  0  0  0  0
  7 16  1  0  0  0  0
  7 17  1  0  0  0  0
  8 18  1  0  0  0  0
  8 19  1  0  0  0  0
  8 20  1  0  0  0  0
 10 21  1  0  0  0  0
M  END
> <id>
EN300-114980

> <smiles>
CC=1C=NC(C)=C(O)C1C

> <MDLNUMBER>
MFCD17015035

> <IUPAC Name>
2,4,5-trimethylpyridin-3-ol

> <CAS>
5622-78-6

> <URL>
https://www.enaminestore.com/catalog/EN300-114980

> <ROCS_ShapeQuery>
_hit0

> <ROCS_TanimotoCombo>
1.045 

> <ROCS_ShapeTanimoto>
0.445 

> <ROCS_ColorTanimoto>
0.600 

> <ROCS_RefTversky>
1.339 

> <ROCS_RefColorTversky>
0.750 

> <ROCS_RefTverskyCombo>
2.089 

> <ROCS_FitTversky>
0.400 

> <ROCS_FitColorTversky>
0.750 

> <ROCS_FitTverskyCombo>
1.150 

> <ROCS_ColorScore>
-2.999

> <ROCS_Overlap>
167.027

> <ROCS_Rank>
183                 

$$$$
untitled-dbase-43629_0
  -OEChem-06232314393D

 21 21  0     0  0  0  0  0  0999 V2000
   -6.8546    4.9938  -34.9251 C   0  0  0  0  0  0  0  0  0  0  0  0
   -6.4080    6.1687  -35.5081 C   0  0  0  0  0  0  0  0  0  0  0  0
   -5.9529    6.1118  -36.8207 C   0  0  0  0  0  0  0  0  0  0  0  0
   -5.9583    4.8989  -37.5006 C   0  0  0  0  0  0  0  0  0  0  0  0
   -6.4248    3.7809  -36.8283 C   0  0  0  0  0  0  0  0  0  0  0  0
   -6.4249    7.4400  -34.7323 C   0  0  0  0  0  0  0  0  0  0  0  0
   -5.4595    7.3477  -37.5017 C   0  0  0  0  0  0  0  0  0  0  0  0
   -6.4519    2.4531  -37.5118 C   0  0  0  0  0  0  0  0  0  0  0  0
   -6.8748    3.7971  -35.5536 N   0  0  0  0  0  0  0  0  0  0  0  0
   -5.5191    4.8139  -38.7838 O   0  0  0  0  0  0  0  0  0  0  0  0
   -7.2216    4.9761  -33.9033 H   0  0  0  0  0  0  0  0  0  0  0  0
   -5.4779    7.5739  -34.1940 H   0  0  0  0  0  0  0  0  0  0  0  0
   -6.5758    8.3077  -35.3888 H   0  0  0  0  0  0  0  0  0  0  0  0
   -7.2440    7.4515  -34.0003 H   0  0  0  0  0  0  0  0  0  0  0  0
   -4.3830    7.4672  -37.3358 H   0  0  0  0  0  0  0  0  0  0  0  0
   -5.6453    7.3048  -38.5814 H   0  0  0  0  0  0  0  0  0  0  0  0
   -5.9738    8.2393  -37.1232 H   0  0  0  0  0  0  0  0  0  0  0  0
   -5.5073    1.9220  -37.3472 H   0  0  0  0  0  0  0  0  0  0  0  0
   -7.2732    1.8306  -37.1360 H   0  0  0  0  0  0  0  0  0  0  0  0
   -6.6058    2.5667  -38.5921 H   0  0  0  0  0  0  0  0  0  0  0  0
   -5.2289    5.6850  -39.1006 H   0  0  0  0  0  0  0  0  0  0  0  0
  1  2  2  0  0  0  0
  1  9  1  0  0  0  0
  2  3  1  0  0  0  0
  2  6  1  0  0  0  0
  3  4  2  0  0  0  0
  3  7  1  0  0  0  0
  4  5  1  0  0  0  0
  4 10  1  0  0  0  0
  5  8  1  0  0  0  0
  5  9  2  0  0  0  0
  1 11  1  0  0  0  0
  6 12  1  0  0  0  0
  6 13  1  0  0  0  0
  6 14  1  0  0  0  0
  7 15  1  0  0  0  0
  7 16  1  0  0  0  0
  7 17  1  0  0  0  0
  8 18  1  0  0  0  0
  8 19  1  0  0  0  0
  8 20  1  0  0  0  0
 10 21  1  0  0  0  0
M  END
> <id>
EN300-28220796

> <smiles>
Cl.CC=1C=NC(C)=C(O)C1C

> <MDLNUMBER>
MFCD34168527

> <IUPAC Name>
2,4,5-trimethylpyridin-3-ol hydrochloride

> <CAS>
101870-79-5

> <Purity>
95

> <URL>
https://www.enaminestore.com/catalog/EN300-28220796

> <Saltdate>
Cl

> <ROCS_ShapeQuery>
_hit0

> <ROCS_TanimotoCombo>
1.045 

> <ROCS_ShapeTanimoto>
0.445 

> <ROCS_ColorTanimoto>
0.600 

> <ROCS_RefTversky>
1.339 

> <ROCS_RefColorTversky>
0.750 

> <ROCS_RefTverskyCombo>
2.089 

> <ROCS_FitTversky>
0.400 

> <ROCS_FitColorTversky>
0.750 

> <ROCS_FitTverskyCombo>
1.150 

> <ROCS_ColorScore>
-2.999

> <ROCS_Overlap>
167.027

> <ROCS_Rank>
184                 

$$$$
untitled-dbase-24489_0
  -OEChem-06232314393D

  8  7  0     0  0  0  0  0  0999 V2000
   -5.9345    4.8370  -37.5714 C   0  0  0  0  0  0  0  0  0  0  0  0
   -6.3977    4.8865  -36.2052 C   0  0  0  0  0  0  0  0  0  0  0  0
   -6.3260    6.2226  -35.5279 C   0  0  0  0  0  0  0  0  0  0  0  0
   -5.5620    4.7969  -38.6695 N   0  0  0  0  0  0  0  0  0  0  0  0
   -6.8194    3.8708  -35.6686 O   0  0  0  0  0  0  0  0  0  0  0  0
   -7.2571    6.7727  -35.6892 H   0  0  0  0  0  0  0  0  0  0  0  0
   -5.4992    6.8018  -35.9491 H   0  0  0  0  0  0  0  0  0  0  0  0
   -6.1511    6.0881  -34.4571 H   0  0  0  0  0  0  0  0  0  0  0  0
  1  2  1  0  0  0  0
  1  4  3  0  0  0  0
  2  3  1  0  0  0  0
  2  5  2  0  0  0  0
  3  6  1  0  0  0  0
  3  7  1  0  0  0  0
  3  8  1  0  0  0  0
M  END
> <id>
EN300-95845

> <smiles>
CC(=O)C#N

> <MDLNUMBER>
MFCD00001838

> <IUPAC Name>
acetyl cyanide

> <CAS>
631-57-2

> <Purity>
95

> <URL>
https://www.enaminestore.com/catalog/EN300-95845

> <ROCS_ShapeQuery>
_hit0

> <ROCS_TanimotoCombo>
1.045 

> <ROCS_ShapeTanimoto>
0.561 

> <ROCS_ColorTanimoto>
0.483 

> <ROCS_RefTversky>
0.952 

> <ROCS_RefColorTversky>
0.501 

> <ROCS_RefTverskyCombo>
1.453 

> <ROCS_FitTversky>
0.577 

> <ROCS_FitColorTversky>
0.931 

> <ROCS_FitTverskyCombo>
1.509 

> <ROCS_ColorScore>
-1.955

> <ROCS_Overlap>
107.111

> <ROCS_Rank>
185                 

$$$$
untitled-dbase-53157_7
  -OEChem-06232314393D

 16 16  0     1  0  0  0  0  0999 V2000
   -6.8809    6.3546  -37.1630 C   0  0  0  0  0  0  0  0  0  0  0  0
   -5.8528    6.1562  -36.0334 C   0  0  2  0  0  0  0  0  0  0  0  0
   -6.5052    4.9420  -37.6707 C   0  0  2  0  0  0  0  0  0  0  0  0
   -5.9903    4.6294  -36.2375 C   0  0  2  0  0  0  0  0  0  0  0  0
   -6.4395    6.5617  -34.7621 N   0  0  0  0  0  0  0  0  0  0  0  0
   -5.5116    4.8936  -38.7133 O   0  0  0  0  0  0  0  0  0  0  0  0
   -6.9184    3.9153  -35.3943 O   0  0  0  0  0  0  0  0  0  0  0  0
   -7.9225    6.4906  -36.8722 H   0  0  0  0  0  0  0  0  0  0  0  0
   -6.6074    7.1505  -37.8603 H   0  0  0  0  0  0  0  0  0  0  0  0
   -4.8500    6.5747  -36.2259 H   0  0  0  0  0  0  0  0  0  0  0  0
   -7.3785    4.3444  -37.9533 H   0  0  0  0  0  0  0  0  0  0  0  0
   -5.0272    4.1276  -36.2461 H   0  0  0  0  0  0  0  0  0  0  0  0
   -5.8391    6.2562  -34.0343 H   0  0  0  0  0  0  0  0  0  0  0  0
   -6.5194    7.5502  -34.7617 H   0  0  0  0  0  0  0  0  0  0  0  0
   -5.3894    3.9572  -38.9173 H   0  0  0  0  0  0  0  0  0  0  0  0
   -6.6133    4.0584  -34.4893 H   0  0  0  0  0  0  0  0  0  0  0  0
  1  2  1  0  0  0  0
  1  3  1  0  0  0  0
  2  4  1  0  0  0  0
  2  5  1  6  0  0  0
  3  4  1  0  0  0  0
  3  6  1  1  0  0  0
  4  7  1  6  0  0  0
  1  8  1  0  0  0  0
  1  9  1  0  0  0  0
  2 10  1  0  0  0  0
  3 11  1  0  0  0  0
  4 12  1  0  0  0  0
  5 13  1  0  0  0  0
  5 14  1  0  0  0  0
  6 15  1  0  0  0  0
  7 16  1  0  0  0  0
M  END
> <id>
EN300-43382262

> <smiles>
N[C@@H]1C[C@@H](O)[C@@H]1O |&1:1,3,5,r|

> <IUPAC Name>
rac-(1R,2R,3R)-3-aminocyclobutane-1,2-diol

> <URL>
https://www.enaminestore.com/catalog/EN300-43382262

> <ROCS_ShapeQuery>
_hit0

> <ROCS_TanimotoCombo>
1.044 

> <ROCS_ShapeTanimoto>
0.544 

> <ROCS_ColorTanimoto>
0.501 

> <ROCS_RefTversky>
1.173 

> <ROCS_RefColorTversky>
0.884 

> <ROCS_RefTverskyCombo>
2.057 

> <ROCS_FitTversky>
0.503 

> <ROCS_FitColorTversky>
0.536 

> <ROCS_FitTverskyCombo>
1.039 

> <ROCS_ColorScore>
-3.670

> <ROCS_Overlap>
137.359

> <ROCS_Rank>
186                 

$$$$
untitled-dbase-53097_7
  -OEChem-06232314393D

 16 16  0     1  0  0  0  0  0999 V2000
   -6.8809    6.3546  -37.1630 C   0  0  0  0  0  0  0  0  0  0  0  0
   -5.8528    6.1562  -36.0334 C   0  0  2  0  0  0  0  0  0  0  0  0
   -6.5052    4.9420  -37.6707 C   0  0  2  0  0  0  0  0  0  0  0  0
   -5.9903    4.6294  -36.2375 C   0  0  2  0  0  0  0  0  0  0  0  0
   -6.4395    6.5617  -34.7621 N   0  0  0  0  0  0  0  0  0  0  0  0
   -5.5116    4.8936  -38.7133 O   0  0  0  0  0  0  0  0  0  0  0  0
   -6.9184    3.9153  -35.3943 O   0  0  0  0  0  0  0  0  0  0  0  0
   -7.9225    6.4906  -36.8722 H   0  0  0  0  0  0  0  0  0  0  0  0
   -6.6074    7.1505  -37.8603 H   0  0  0  0  0  0  0  0  0  0  0  0
   -4.8500    6.5747  -36.2259 H   0  0  0  0  0  0  0  0  0  0  0  0
   -7.3785    4.3444  -37.9533 H   0  0  0  0  0  0  0  0  0  0  0  0
   -5.0272    4.1276  -36.2461 H   0  0  0  0  0  0  0  0  0  0  0  0
   -5.8391    6.2562  -34.0343 H   0  0  0  0  0  0  0  0  0  0  0  0
   -6.5194    7.5502  -34.7617 H   0  0  0  0  0  0  0  0  0  0  0  0
   -5.3894    3.9572  -38.9173 H   0  0  0  0  0  0  0  0  0  0  0  0
   -6.6133    4.0584  -34.4893 H   0  0  0  0  0  0  0  0  0  0  0  0
  1  2  1  0  0  0  0
  1  3  1  0  0  0  0
  2  4  1  0  0  0  0
  2  5  1  6  0  0  0
  3  4  1  0  0  0  0
  3  6  1  1  0  0  0
  4  7  1  6  0  0  0
  1  8  1  0  0  0  0
  1  9  1  0  0  0  0
  2 10  1  0  0  0  0
  3 11  1  0  0  0  0
  4 12  1  0  0  0  0
  5 13  1  0  0  0  0
  5 14  1  0  0  0  0
  6 15  1  0  0  0  0
  7 16  1  0  0  0  0
M  END
> <id>
EN300-43382261

> <smiles>
Cl.N[C@@H]1C[C@@H](O)[C@@H]1O |&1:2,4,6,r|

> <IUPAC Name>
rac-(1R,2R,3R)-3-aminocyclobutane-1,2-diol hydrochloride

> <Purity>
95

> <URL>
https://www.enaminestore.com/catalog/EN300-43382261

> <ROCS_ShapeQuery>
_hit0

> <ROCS_TanimotoCombo>
1.044 

> <ROCS_ShapeTanimoto>
0.544 

> <ROCS_ColorTanimoto>
0.501 

> <ROCS_RefTversky>
1.173 

> <ROCS_RefColorTversky>
0.884 

> <ROCS_RefTverskyCombo>
2.057 

> <ROCS_FitTversky>
0.503 

> <ROCS_FitColorTversky>
0.536 

> <ROCS_FitTverskyCombo>
1.039 

> <ROCS_ColorScore>
-3.670

> <ROCS_Overlap>
137.359

> <ROCS_Rank>
187                 

$$$$
untitled-dbase-21477_0
  -OEChem-06232314393D

 12 12  0     0  0  0  0  0  0999 V2000
   -5.9628    5.8882  -36.7021 C   0  0  0  0  0  0  0  0  0  0  0  0
   -6.4481    3.5872  -36.9821 C   0  0  0  0  0  0  0  0  0  0  0  0
   -5.9676    4.7672  -37.5134 C   0  0  0  0  0  0  0  0  0  0  0  0
   -6.4392    5.7550  -35.4133 C   0  0  0  0  0  0  0  0  0  0  0  0
   -6.9082    3.4858  -35.7172 N   0  0  0  0  0  0  0  0  0  0  0  0
   -6.9039    4.5877  -34.9199 N   0  0  0  0  0  0  0  0  0  0  0  0
   -5.4979    4.8284  -38.8354 N   0  0  0  0  0  0  0  0  0  0  0  0
   -6.4462    6.8256  -34.6059 F   0  0  0  0  0  0  0  0  0  0  0  0
   -5.5984    6.8458  -37.0584 H   0  0  0  0  0  0  0  0  0  0  0  0
   -6.4817    2.6694  -37.5591 H   0  0  0  0  0  0  0  0  0  0  0  0
   -5.1976    5.7078  -39.2128 H   0  0  0  0  0  0  0  0  0  0  0  0
   -5.5555    4.0140  -39.4180 H   0  0  0  0  0  0  0  0  0  0  0  0
  1  3  1  0  0  0  0
  1  4  2  0  0  0  0
  2  3  2  0  0  0  0
  2  5  1  0  0  0  0
  3  7  1  0  0  0  0
  4  6  1  0  0  0  0
  4  8  1  0  0  0  0
  5  6  2  0  0  0  0
  1  9  1  0  0  0  0
  2 10  1  0  0  0  0
  7 11  1  0  0  0  0
  7 12  1  0  0  0  0
M  END
> <id>
EN300-37408307

> <smiles>
NC=1C=NN=C(F)C1

> <IUPAC Name>
6-fluoropyridazin-4-amine

> <CAS>
2770428-06-1

> <Purity>
95

> <URL>
https://www.enaminestore.com/catalog/EN300-37408307

> <ROCS_ShapeQuery>
_hit0

> <ROCS_TanimotoCombo>
1.044 

> <ROCS_ShapeTanimoto>
0.511 

> <ROCS_ColorTanimoto>
0.533 

> <ROCS_RefTversky>
1.288 

> <ROCS_RefColorTversky>
0.797 

> <ROCS_RefTverskyCombo>
2.085 

> <ROCS_FitTversky>
0.458 

> <ROCS_FitColorTversky>
0.617 

> <ROCS_FitTverskyCombo>
1.076 

> <ROCS_ColorScore>
-3.240

> <ROCS_Overlap>
155.318

> <ROCS_Rank>
188                 

$$$$
untitled-dbase-32521_0
  -OEChem-06232314393D

 12 12  0     0  0  0  0  0  0999 V2000
   -5.9861    6.1169  -36.7726 C   0  0  0  0  0  0  0  0  0  0  0  0
   -6.8828    5.0463  -34.8600 C   0  0  0  0  0  0  0  0  0  0  0  0
   -6.4379    6.2032  -35.4675 C   0  0  0  0  0  0  0  0  0  0  0  0
   -6.0088    4.8793  -37.3837 C   0  0  0  0  0  0  0  0  0  0  0  0
   -6.8938    3.8484  -35.4822 N   0  0  0  0  0  0  0  0  0  0  0  0
   -6.4494    3.7636  -36.7648 N   0  0  0  0  0  0  0  0  0  0  0  0
   -5.5469    4.7910  -38.7176 N   0  0  0  0  0  0  0  0  0  0  0  0
   -6.4453    7.7001  -34.6307 Cl  0  0  0  0  0  0  0  0  0  0  0  0
   -5.6250    6.9956  -37.2989 H   0  0  0  0  0  0  0  0  0  0  0  0
   -7.2514    5.0355  -33.8400 H   0  0  0  0  0  0  0  0  0  0  0  0
   -5.2661    5.6249  -39.1887 H   0  0  0  0  0  0  0  0  0  0  0  0
   -5.6001    3.9139  -39.1908 H   0  0  0  0  0  0  0  0  0  0  0  0
  1  3  1  0  0  0  0
  1  4  2  0  0  0  0
  2  3  2  0  0  0  0
  2  5  1  0  0  0  0
  3  8  1  0  0  0  0
  4  6  1  0  0  0  0
  4  7  1  0  0  0  0
  5  6  2  0  0  0  0
  1  9  1  0  0  0  0
  2 10  1  0  0  0  0
  7 11  1  0  0  0  0
  7 12  1  0  0  0  0
M  END
> <id>
EN300-170972

> <smiles>
NC=1C=C(Cl)C=NN1

> <MDLNUMBER>
MFCD19214495

> <IUPAC Name>
5-chloropyridazin-3-amine

> <CAS>
1314978-36-3

> <Purity>
95

> <URL>
https://www.enaminestore.com/catalog/EN300-170972

> <ROCS_ShapeQuery>
_hit0

> <ROCS_TanimotoCombo>
1.044 

> <ROCS_ShapeTanimoto>
0.530 

> <ROCS_ColorTanimoto>
0.514 

> <ROCS_RefTversky>
1.292 

> <ROCS_RefColorTversky>
0.778 

> <ROCS_RefTverskyCombo>
2.070 

> <ROCS_FitTversky>
0.473 

> <ROCS_FitColorTversky>
0.602 

> <ROCS_FitTverskyCombo>
1.075 

> <ROCS_ColorScore>
-3.164

> <ROCS_Overlap>
155.075

> <ROCS_Rank>
189                 

$$$$
untitled-dbase-1760_0
  -OEChem-06232314393D

 12 12  0     0  0  0  0  0  0999 V2000
   -6.3063    6.1789  -35.4969 C   0  0  0  0  0  0  0  0  0  0  0  0
   -5.8715    6.1131  -36.8160 C   0  0  0  0  0  0  0  0  0  0  0  0
   -6.7949    5.0195  -34.9165 C   0  0  0  0  0  0  0  0  0  0  0  0
   -5.9376    4.9070  -37.5046 C   0  0  0  0  0  0  0  0  0  0  0  0
   -6.4425    3.8045  -36.8343 C   0  0  0  0  0  0  0  0  0  0  0  0
   -6.8745    3.8297  -35.5535 N   0  0  0  0  0  0  0  0  0  0  0  0
   -5.5189    4.8156  -38.7912 O   0  0  0  0  0  0  0  0  0  0  0  0
   -6.5133    2.6305  -37.4821 F   0  0  0  0  0  0  0  0  0  0  0  0
   -6.2647    7.1080  -34.9399 H   0  0  0  0  0  0  0  0  0  0  0  0
   -5.4818    7.0034  -37.3011 H   0  0  0  0  0  0  0  0  0  0  0  0
   -7.1474    5.0193  -33.8903 H   0  0  0  0  0  0  0  0  0  0  0  0
   -5.6322    3.9089  -39.1234 H   0  0  0  0  0  0  0  0  0  0  0  0
  1  2  1  0  0  0  0
  1  3  2  0  0  0  0
  2  4  2  0  0  0  0
  3  6  1  0  0  0  0
  4  5  1  0  0  0  0
  4  7  1  0  0  0  0
  5  6  2  0  0  0  0
  5  8  1  0  0  0  0
  1  9  1  0  0  0  0
  2 10  1  0  0  0  0
  3 11  1  0  0  0  0
  7 12  1  0  0  0  0
M  END
> <id>
EN300-104296

> <smiles>
OC=1C=CC=NC1F

> <MDLNUMBER>
MFCD04112569

> <IUPAC Name>
2-fluoropyridin-3-ol

> <CAS>
174669-74-0

> <Purity>
95

> <URL>
https://www.enaminestore.com/catalog/EN300-104296

> <MP>
131-133

> <ROCS_ShapeQuery>
_hit0

> <ROCS_TanimotoCombo>
1.043 

> <ROCS_ShapeTanimoto>
0.443 

> <ROCS_ColorTanimoto>
0.600 

> <ROCS_RefTversky>
1.173 

> <ROCS_RefColorTversky>
0.750 

> <ROCS_RefTverskyCombo>
1.923 

> <ROCS_FitTversky>
0.416 

> <ROCS_FitColorTversky>
0.750 

> <ROCS_FitTverskyCombo>
1.165 

> <ROCS_ColorScore>
-2.999

> <ROCS_Overlap>
141.532

> <ROCS_Rank>
190                 

$$$$
untitled-dbase-33979_0
  -OEChem-06232314393D

 16 16  0     0  0  0  0  0  0999 V2000
   -5.9552    6.1099  -36.8064 C   0  0  0  0  0  0  0  0  0  0  0  0
   -5.9665    4.8938  -37.4804 C   0  0  0  0  0  0  0  0  0  0  0  0
   -6.4080    6.1750  -35.4934 C   0  0  0  0  0  0  0  0  0  0  0  0
   -6.4366    3.7808  -36.8021 C   0  0  0  0  0  0  0  0  0  0  0  0
   -6.8585    5.0047  -34.9041 C   0  0  0  0  0  0  0  0  0  0  0  0
   -6.4747    2.4463  -37.4732 C   0  0  0  0  0  0  0  0  0  0  0  0
   -6.8845    3.8050  -35.5268 N   0  0  0  0  0  0  0  0  0  0  0  0
   -5.5115    4.8177  -38.8089 N   0  0  0  0  0  0  0  0  0  0  0  0
   -6.3875    7.6899  -34.6744 Cl  0  0  0  0  0  0  0  0  0  0  0  0
   -7.4500    4.9330  -33.2884 Cl  0  0  0  0  0  0  0  0  0  0  0  0
   -5.5925    7.0039  -37.3095 H   0  0  0  0  0  0  0  0  0  0  0  0
   -5.5329    1.9112  -37.3066 H   0  0  0  0  0  0  0  0  0  0  0  0
   -7.2986    1.8333  -37.0884 H   0  0  0  0  0  0  0  0  0  0  0  0
   -6.6316    2.5512  -38.5536 H   0  0  0  0  0  0  0  0  0  0  0  0
   -5.4803    3.9277  -39.2680 H   0  0  0  0  0  0  0  0  0  0  0  0
   -5.1362    5.6366  -39.2477 H   0  0  0  0  0  0  0  0  0  0  0  0
  1  2  2  0  0  0  0
  1  3  1  0  0  0  0
  2  4  1  0  0  0  0
  2  8  1  0  0  0  0
  3  5  2  0  0  0  0
  3  9  1  0  0  0  0
  4  6  1  0  0  0  0
  4  7  2  0  0  0  0
  5  7  1  0  0  0  0
  5 10  1  0  0  0  0
  1 11  1  0  0  0  0
  6 12  1  0  0  0  0
  6 13  1  0  0  0  0
  6 14  1  0  0  0  0
  8 15  1  0  0  0  0
  8 16  1  0  0  0  0
M  END
> <id>
EN300-6729875

> <smiles>
CC=1N=C(Cl)C(Cl)=CC1N

> <MDLNUMBER>
MFCD31719615

> <IUPAC Name>
5,6-dichloro-2-methylpyridin-3-amine

> <CAS>
2230279-22-6

> <Purity>
95

> <URL>
https://www.enaminestore.com/catalog/EN300-6729875

> <ROCS_ShapeQuery>
_hit0

> <ROCS_TanimotoCombo>
1.041 

> <ROCS_ShapeTanimoto>
0.441 

> <ROCS_ColorTanimoto>
0.600 

> <ROCS_RefTversky>
1.300 

> <ROCS_RefColorTversky>
0.750 

> <ROCS_RefTverskyCombo>
2.050 

> <ROCS_FitTversky>
0.401 

> <ROCS_FitColorTversky>
0.750 

> <ROCS_FitTverskyCombo>
1.151 

> <ROCS_ColorScore>
-3.000

> <ROCS_Overlap>
161.057

> <ROCS_Rank>
191                 

$$$$
untitled-dbase-21027_0
  -OEChem-06232314393D

 13 13  0     0  0  0  0  0  0999 V2000
   -5.9572    6.1093  -36.8060 C   0  0  0  0  0  0  0  0  0  0  0  0
   -5.9641    4.8915  -37.4769 C   0  0  0  0  0  0  0  0  0  0  0  0
   -6.4123    6.1764  -35.4938 C   0  0  0  0  0  0  0  0  0  0  0  0
   -6.4322    3.7789  -36.7966 C   0  0  0  0  0  0  0  0  0  0  0  0
   -6.8606    5.0063  -34.9024 C   0  0  0  0  0  0  0  0  0  0  0  0
   -6.8823    3.8050  -35.5221 N   0  0  0  0  0  0  0  0  0  0  0  0
   -5.5040    4.8216  -38.8045 N   0  0  0  0  0  0  0  0  0  0  0  0
   -6.4116    7.3419  -34.8350 F   0  0  0  0  0  0  0  0  0  0  0  0
   -6.4926    2.2153  -37.5135 Cl  0  0  0  0  0  0  0  0  0  0  0  0
   -7.4411    4.9888  -33.2876 Cl  0  0  0  0  0  0  0  0  0  0  0  0
   -5.5998    7.0117  -37.2947 H   0  0  0  0  0  0  0  0  0  0  0  0
   -5.2190    5.6611  -39.2707 H   0  0  0  0  0  0  0  0  0  0  0  0
   -5.5558    3.9509  -39.2971 H   0  0  0  0  0  0  0  0  0  0  0  0
  1  2  2  0  0  0  0
  1  3  1  0  0  0  0
  2  4  1  0  0  0  0
  2  7  1  0  0  0  0
  3  5  2  0  0  0  0
  3  8  1  0  0  0  0
  4  6  2  0  0  0  0
  4  9  1  0  0  0  0
  5  6  1  0  0  0  0
  5 10  1  0  0  0  0
  1 11  1  0  0  0  0
  7 12  1  0  0  0  0
  7 13  1  0  0  0  0
M  END
> <id>
EN300-1982054

> <smiles>
NC=1C=C(F)C(Cl)=NC1Cl

> <MDLNUMBER>
MFCD11044255

> <IUPAC Name>
2,6-dichloro-5-fluoropyridin-3-amine

> <CAS>
152840-65-8

> <Purity>
95

> <URL>
https://www.enaminestore.com/catalog/EN300-1982054

> <MP>
146-147

> <ROCS_ShapeQuery>
_hit0

> <ROCS_TanimotoCombo>
1.041 

> <ROCS_ShapeTanimoto>
0.441 

> <ROCS_ColorTanimoto>
0.600 

> <ROCS_RefTversky>
1.309 

> <ROCS_RefColorTversky>
0.750 

> <ROCS_RefTverskyCombo>
2.059 

> <ROCS_FitTversky>
0.400 

> <ROCS_FitColorTversky>
0.750 

> <ROCS_FitTverskyCombo>
1.149 

> <ROCS_ColorScore>
-2.999

> <ROCS_Overlap>
162.573

> <ROCS_Rank>
192                 

$$$$
untitled-dbase-21033_0
  -OEChem-06232314393D

 12 12  0     0  0  0  0  0  0999 V2000
   -5.9321    6.1089  -36.8395 C   0  0  0  0  0  0  0  0  0  0  0  0
   -5.9540    4.8897  -37.5076 C   0  0  0  0  0  0  0  0  0  0  0  0
   -6.3809    6.1835  -35.5256 C   0  0  0  0  0  0  0  0  0  0  0  0
   -6.4303    3.7834  -36.8228 C   0  0  0  0  0  0  0  0  0  0  0  0
   -6.8384    5.0193  -34.9296 C   0  0  0  0  0  0  0  0  0  0  0  0
   -6.8747    3.8169  -35.5465 N   0  0  0  0  0  0  0  0  0  0  0  0
   -5.5172    4.8132  -38.7910 O   0  0  0  0  0  0  0  0  0  0  0  0
   -6.3658    7.3505  -34.8696 F   0  0  0  0  0  0  0  0  0  0  0  0
   -6.5047    2.2265  -37.5477 Cl  0  0  0  0  0  0  0  0  0  0  0  0
   -7.4125    5.0112  -33.3125 Cl  0  0  0  0  0  0  0  0  0  0  0  0
   -5.5677    7.0034  -37.3365 H   0  0  0  0  0  0  0  0  0  0  0  0
   -5.5929    3.9028  -39.1218 H   0  0  0  0  0  0  0  0  0  0  0  0
  1  2  2  0  0  0  0
  1  3  1  0  0  0  0
  2  4  1  0  0  0  0
  2  7  1  0  0  0  0
  3  5  2  0  0  0  0
  3  8  1  0  0  0  0
  4  6  2  0  0  0  0
  4  9  1  0  0  0  0
  5  6  1  0  0  0  0
  5 10  1  0  0  0  0
  1 11  1  0  0  0  0
  7 12  1  0  0  0  0
M  END
> <id>
EN300-1975850

> <smiles>
OC=1C=C(F)C(Cl)=NC1Cl

> <MDLNUMBER>
MFCD33500946

> <IUPAC Name>
2,6-dichloro-5-fluoropyridin-3-ol

> <CAS>
2228660-63-5

> <URL>
https://www.enaminestore.com/catalog/EN300-1975850

> <ROCS_ShapeQuery>
_hit0

> <ROCS_TanimotoCombo>
1.040 

> <ROCS_ShapeTanimoto>
0.440 

> <ROCS_ColorTanimoto>
0.600 

> <ROCS_RefTversky>
1.311 

> <ROCS_RefColorTversky>
0.750 

> <ROCS_RefTverskyCombo>
2.061 

> <ROCS_FitTversky>
0.399 

> <ROCS_FitColorTversky>
0.750 

> <ROCS_FitTverskyCombo>
1.149 

> <ROCS_ColorScore>
-2.999

> <ROCS_Overlap>
162.874

> <ROCS_Rank>
193                 

$$$$
untitled-dbase-9738_0
  -OEChem-06232314393D

 15 15  0     0  0  0  0  0  0999 V2000
   -5.9559    6.1178  -36.7663 C   0  0  0  0  0  0  0  0  0  0  0  0
   -6.8639    5.0523  -34.8562 C   0  0  0  0  0  0  0  0  0  0  0  0
   -6.4019    6.2048  -35.4593 C   0  0  0  0  0  0  0  0  0  0  0  0
   -6.0013    4.8839  -37.3837 C   0  0  0  0  0  0  0  0  0  0  0  0
   -6.3841    7.4992  -34.7270 C   0  0  0  0  0  0  0  0  0  0  0  0
   -6.8970    3.8580  -35.4846 N   0  0  0  0  0  0  0  0  0  0  0  0
   -6.4584    3.7725  -36.7691 N   0  0  0  0  0  0  0  0  0  0  0  0
   -5.5454    4.7951  -38.7196 N   0  0  0  0  0  0  0  0  0  0  0  0
   -5.5830    6.9957  -37.2850 H   0  0  0  0  0  0  0  0  0  0  0  0
   -7.2284    5.0468  -33.8349 H   0  0  0  0  0  0  0  0  0  0  0  0
   -7.3291    8.0392  -34.8745 H   0  0  0  0  0  0  0  0  0  0  0  0
   -6.2377    7.3494  -33.6479 H   0  0  0  0  0  0  0  0  0  0  0  0
   -5.5618    8.1439  -35.0690 H   0  0  0  0  0  0  0  0  0  0  0  0
   -5.2522    5.6266  -39.1872 H   0  0  0  0  0  0  0  0  0  0  0  0
   -5.6147    3.9215  -39.1973 H   0  0  0  0  0  0  0  0  0  0  0  0
  1  3  1  0  0  0  0
  1  4  2  0  0  0  0
  2  3  2  0  0  0  0
  2  6  1  0  0  0  0
  3  5  1  0  0  0  0
  4  7  1  0  0  0  0
  4  8  1  0  0  0  0
  6  7  2  0  0  0  0
  1  9  1  0  0  0  0
  2 10  1  0  0  0  0
  5 11  1  0  0  0  0
  5 12  1  0  0  0  0
  5 13  1  0  0  0  0
  8 14  1  0  0  0  0
  8 15  1  0  0  0  0
M  END
> <id>
EN300-317543

> <smiles>
CC=1C=NN=C(N)C1

> <MDLNUMBER>
MFCD10698051

> <IUPAC Name>
5-methylpyridazin-3-amine

> <CAS>
144294-43-9

> <Purity>
95

> <URL>
https://www.enaminestore.com/catalog/EN300-317543

> <MP>
183-184

> <ROCS_ShapeQuery>
_hit0

> <ROCS_TanimotoCombo>
1.040 

> <ROCS_ShapeTanimoto>
0.526 

> <ROCS_ColorTanimoto>
0.514 

> <ROCS_RefTversky>
1.301 

> <ROCS_RefColorTversky>
0.778 

> <ROCS_RefTverskyCombo>
2.079 

> <ROCS_FitTversky>
0.469 

> <ROCS_FitColorTversky>
0.602 

> <ROCS_FitTverskyCombo>
1.071 

> <ROCS_ColorScore>
-3.164

> <ROCS_Overlap>
156.521

> <ROCS_Rank>
194                 

$$$$
untitled-dbase-41484_0
  -OEChem-06232314393D

 19 19  0     0  0  0  0  0  0999 V2000
   -5.9861    6.1214  -36.8246 C   0  0  0  0  0  0  0  0  0  0  0  0
   -5.9747    4.8986  -37.4864 C   0  0  0  0  0  0  0  0  0  0  0  0
   -6.4484    6.1926  -35.5152 C   0  0  0  0  0  0  0  0  0  0  0  0
   -6.4325    3.7854  -36.8000 C   0  0  0  0  0  0  0  0  0  0  0  0
   -6.8852    5.0216  -34.9172 C   0  0  0  0  0  0  0  0  0  0  0  0
   -6.4447    2.4439  -37.4583 C   0  0  0  0  0  0  0  0  0  0  0  0
   -7.3952    5.0215  -33.5126 C   0  0  0  0  0  0  0  0  0  0  0  0
   -6.8891    3.8155  -35.5279 N   0  0  0  0  0  0  0  0  0  0  0  0
   -5.5101    4.8154  -38.8114 N   0  0  0  0  0  0  0  0  0  0  0  0
   -6.4609    7.7061  -34.6983 Cl  0  0  0  0  0  0  0  0  0  0  0  0
   -5.6336    7.0163  -37.3328 H   0  0  0  0  0  0  0  0  0  0  0  0
   -5.4959    1.9254  -37.2795 H   0  0  0  0  0  0  0  0  0  0  0  0
   -7.2618    1.8219  -37.0734 H   0  0  0  0  0  0  0  0  0  0  0  0
   -6.5951    2.5359  -38.5408 H   0  0  0  0  0  0  0  0  0  0  0  0
   -8.4764    5.2000  -33.5019 H   0  0  0  0  0  0  0  0  0  0  0  0
   -7.1934    4.0635  -33.0185 H   0  0  0  0  0  0  0  0  0  0  0  0
   -6.9057    5.7995  -32.9141 H   0  0  0  0  0  0  0  0  0  0  0  0
   -5.4629    3.9213  -39.2607 H   0  0  0  0  0  0  0  0  0  0  0  0
   -5.1443    5.6352  -39.2563 H   0  0  0  0  0  0  0  0  0  0  0  0
  1  2  2  0  0  0  0
  1  3  1  0  0  0  0
  2  4  1  0  0  0  0
  2  9  1  0  0  0  0
  3  5  2  0  0  0  0
  3 10  1  0  0  0  0
  4  6  1  0  0  0  0
  4  8  2  0  0  0  0
  5  7  1  0  0  0  0
  5  8  1  0  0  0  0
  1 11  1  0  0  0  0
  6 12  1  0  0  0  0
  6 13  1  0  0  0  0
  6 14  1  0  0  0  0
  7 15  1  0  0  0  0
  7 16  1  0  0  0  0
  7 17  1  0  0  0  0
  9 18  1  0  0  0  0
  9 19  1  0  0  0  0
M  END
> <id>
EN300-1622641

> <smiles>
CC=1N=C(C)C(Cl)=CC1N

> <MDLNUMBER>
MFCD28099907

> <IUPAC Name>
5-chloro-2,6-dimethylpyridin-3-amine

> <CAS>
1823370-46-2

> <URL>
https://www.enaminestore.com/catalog/EN300-1622641

> <ROCS_ShapeQuery>
_hit0

> <ROCS_TanimotoCombo>
1.039 

> <ROCS_ShapeTanimoto>
0.439 

> <ROCS_ColorTanimoto>
0.600 

> <ROCS_RefTversky>
1.308 

> <ROCS_RefColorTversky>
0.750 

> <ROCS_RefTverskyCombo>
2.058 

> <ROCS_FitTversky>
0.398 

> <ROCS_FitColorTversky>
0.750 

> <ROCS_FitTverskyCombo>
1.148 

> <ROCS_ColorScore>
-2.999

> <ROCS_Overlap>
162.489

> <ROCS_Rank>
195                 

$$$$
untitled-dbase-42825_0
  -OEChem-06232314393D

 19 19  0     0  0  0  0  0  0999 V2000
   -5.9861    6.1214  -36.8246 C   0  0  0  0  0  0  0  0  0  0  0  0
   -5.9747    4.8986  -37.4864 C   0  0  0  0  0  0  0  0  0  0  0  0
   -6.4484    6.1926  -35.5152 C   0  0  0  0  0  0  0  0  0  0  0  0
   -6.4325    3.7854  -36.8000 C   0  0  0  0  0  0  0  0  0  0  0  0
   -6.8852    5.0216  -34.9172 C   0  0  0  0  0  0  0  0  0  0  0  0
   -6.4447    2.4439  -37.4583 C   0  0  0  0  0  0  0  0  0  0  0  0
   -7.3952    5.0215  -33.5126 C   0  0  0  0  0  0  0  0  0  0  0  0
   -6.8891    3.8155  -35.5279 N   0  0  0  0  0  0  0  0  0  0  0  0
   -5.5101    4.8154  -38.8114 N   0  0  0  0  0  0  0  0  0  0  0  0
   -6.4609    7.7061  -34.6983 Cl  0  0  0  0  0  0  0  0  0  0  0  0
   -5.6336    7.0163  -37.3328 H   0  0  0  0  0  0  0  0  0  0  0  0
   -5.4959    1.9254  -37.2795 H   0  0  0  0  0  0  0  0  0  0  0  0
   -7.2618    1.8219  -37.0734 H   0  0  0  0  0  0  0  0  0  0  0  0
   -6.5951    2.5359  -38.5408 H   0  0  0  0  0  0  0  0  0  0  0  0
   -8.4764    5.2000  -33.5019 H   0  0  0  0  0  0  0  0  0  0  0  0
   -7.1934    4.0635  -33.0185 H   0  0  0  0  0  0  0  0  0  0  0  0
   -6.9057    5.7995  -32.9141 H   0  0  0  0  0  0  0  0  0  0  0  0
   -5.4629    3.9213  -39.2607 H   0  0  0  0  0  0  0  0  0  0  0  0
   -5.1443    5.6352  -39.2563 H   0  0  0  0  0  0  0  0  0  0  0  0
  1  2  2  0  0  0  0
  1  3  1  0  0  0  0
  2  4  1  0  0  0  0
  2  9  1  0  0  0  0
  3  5  2  0  0  0  0
  3 10  1  0  0  0  0
  4  6  1  0  0  0  0
  4  8  2  0  0  0  0
  5  7  1  0  0  0  0
  5  8  1  0  0  0  0
  1 11  1  0  0  0  0
  6 12  1  0  0  0  0
  6 13  1  0  0  0  0
  6 14  1  0  0  0  0
  7 15  1  0  0  0  0
  7 16  1  0  0  0  0
  7 17  1  0  0  0  0
  9 18  1  0  0  0  0
  9 19  1  0  0  0  0
M  END
> <id>
EN300-27719523

> <smiles>
Cl.CC=1N=C(C)C(Cl)=CC1N

> <MDLNUMBER>
MFCD33020492

> <IUPAC Name>
5-chloro-2,6-dimethylpyridin-3-amine hydrochloride

> <CAS>
2580239-92-3

> <Purity>
95

> <URL>
https://www.enaminestore.com/catalog/EN300-27719523

> <ROCS_ShapeQuery>
_hit0

> <ROCS_TanimotoCombo>
1.039 

> <ROCS_ShapeTanimoto>
0.439 

> <ROCS_ColorTanimoto>
0.600 

> <ROCS_RefTversky>
1.308 

> <ROCS_RefColorTversky>
0.750 

> <ROCS_RefTverskyCombo>
2.058 

> <ROCS_FitTversky>
0.398 

> <ROCS_FitColorTversky>
0.750 

> <ROCS_FitTverskyCombo>
1.148 

> <ROCS_ColorScore>
-2.999

> <ROCS_Overlap>
162.489

> <ROCS_Rank>
196                 

$$$$
untitled-dbase-4122_0
  -OEChem-06232314393D

 13 13  0     0  0  0  0  0  0999 V2000
   -6.6554    5.0928  -35.2331 C   0  0  0  0  0  0  0  0  0  0  0  0
   -6.4770    3.6324  -36.8596 C   0  0  0  0  0  0  0  0  0  0  0  0
   -5.9723    4.7357  -37.5153 C   0  0  0  0  0  0  0  0  0  0  0  0
   -6.6321    2.2753  -37.4248 C   0  0  0  0  0  0  0  0  0  0  0  0
   -6.8689    3.8351  -35.5507 N   0  0  0  0  0  0  0  0  0  0  0  0
   -5.5195    4.8158  -38.7898 N   0  0  0  0  0  0  0  0  0  0  0  0
   -5.9859    6.0879  -36.4605 S   0  0  0  0  0  0  0  0  0  0  0  0
   -6.8860    5.4854  -34.2523 H   0  0  0  0  0  0  0  0  0  0  0  0
   -5.7273    1.6706  -37.2546 H   0  0  0  0  0  0  0  0  0  0  0  0
   -7.4852    1.7383  -36.9780 H   0  0  0  0  0  0  0  0  0  0  0  0
   -6.8210    2.3009  -38.5109 H   0  0  0  0  0  0  0  0  0  0  0  0
   -5.4711    3.9912  -39.4021 H   0  0  0  0  0  0  0  0  0  0  0  0
   -5.1171    5.6823  -39.1698 H   0  0  0  0  0  0  0  0  0  0  0  0
  1  5  2  0  0  0  0
  1  7  1  0  0  0  0
  2  3  2  0  0  0  0
  2  4  1  0  0  0  0
  2  5  1  0  0  0  0
  3  6  1  0  0  0  0
  3  7  1  0  0  0  0
  1  8  1  0  0  0  0
  4  9  1  0  0  0  0
  4 10  1  0  0  0  0
  4 11  1  0  0  0  0
  6 12  1  0  0  0  0
  6 13  1  0  0  0  0
M  END
> <id>
EN300-172991

> <smiles>
Cl.Cl.CC=1N=CSC1N

> <MDLNUMBER>
MFCD27980956

> <IUPAC Name>
4-methyl-1,3-thiazol-5-amine dihydrochloride

> <CAS>
1797246-54-8

> <Purity>
95

> <URL>
https://www.enaminestore.com/catalog/EN300-172991

> <Saltdate>
Cl

> <ROCS_ShapeQuery>
_hit0

> <ROCS_TanimotoCombo>
1.038 

> <ROCS_ShapeTanimoto>
0.438 

> <ROCS_ColorTanimoto>
0.599 

> <ROCS_RefTversky>
1.021 

> <ROCS_RefColorTversky>
0.750 

> <ROCS_RefTverskyCombo>
1.770 

> <ROCS_FitTversky>
0.434 

> <ROCS_FitColorTversky>
0.750 

> <ROCS_FitTverskyCombo>
1.184 

> <ROCS_ColorScore>
-2.998

> <ROCS_Overlap>
119.650

> <ROCS_Rank>
197                 

$$$$
untitled-dbase-1839_0
  -OEChem-06232314393D

 13 13  0     0  0  0  0  0  0999 V2000
   -6.6554    5.0928  -35.2331 C   0  0  0  0  0  0  0  0  0  0  0  0
   -6.4770    3.6324  -36.8596 C   0  0  0  0  0  0  0  0  0  0  0  0
   -5.9723    4.7357  -37.5153 C   0  0  0  0  0  0  0  0  0  0  0  0
   -6.6321    2.2753  -37.4248 C   0  0  0  0  0  0  0  0  0  0  0  0
   -6.8689    3.8351  -35.5507 N   0  0  0  0  0  0  0  0  0  0  0  0
   -5.5195    4.8158  -38.7898 N   0  0  0  0  0  0  0  0  0  0  0  0
   -5.9859    6.0879  -36.4605 S   0  0  0  0  0  0  0  0  0  0  0  0
   -6.8860    5.4854  -34.2523 H   0  0  0  0  0  0  0  0  0  0  0  0
   -5.7273    1.6706  -37.2546 H   0  0  0  0  0  0  0  0  0  0  0  0
   -7.4852    1.7383  -36.9780 H   0  0  0  0  0  0  0  0  0  0  0  0
   -6.8210    2.3009  -38.5109 H   0  0  0  0  0  0  0  0  0  0  0  0
   -5.4711    3.9912  -39.4021 H   0  0  0  0  0  0  0  0  0  0  0  0
   -5.1171    5.6823  -39.1698 H   0  0  0  0  0  0  0  0  0  0  0  0
  1  5  2  0  0  0  0
  1  7  1  0  0  0  0
  2  3  2  0  0  0  0
  2  4  1  0  0  0  0
  2  5  1  0  0  0  0
  3  6  1  0  0  0  0
  3  7  1  0  0  0  0
  1  8  1  0  0  0  0
  4  9  1  0  0  0  0
  4 10  1  0  0  0  0
  4 11  1  0  0  0  0
  6 12  1  0  0  0  0
  6 13  1  0  0  0  0
M  END
> <id>
EN300-108241

> <smiles>
CC=1N=CSC1N

> <MDLNUMBER>
MFCD13179592

> <IUPAC Name>
4-methyl-1,3-thiazol-5-amine

> <CAS>
72632-65-6

> <URL>
https://www.enaminestore.com/catalog/EN300-108241

> <ROCS_ShapeQuery>
_hit0

> <ROCS_TanimotoCombo>
1.038 

> <ROCS_ShapeTanimoto>
0.438 

> <ROCS_ColorTanimoto>
0.599 

> <ROCS_RefTversky>
1.021 

> <ROCS_RefColorTversky>
0.750 

> <ROCS_RefTverskyCombo>
1.770 

> <ROCS_FitTversky>
0.434 

> <ROCS_FitColorTversky>
0.750 

> <ROCS_FitTverskyCombo>
1.184 

> <ROCS_ColorScore>
-2.998

> <ROCS_Overlap>
119.650

> <ROCS_Rank>
198                 

$$$$
untitled-dbase-2908_0
  -OEChem-06232314393D

 13 13  0     0  0  0  0  0  0999 V2000
   -5.9799    6.1231  -36.8099 C   0  0  0  0  0  0  0  0  0  0  0  0
   -6.4274    3.7873  -36.8088 C   0  0  0  0  0  0  0  0  0  0  0  0
   -6.8791    5.0046  -34.9135 C   0  0  0  0  0  0  0  0  0  0  0  0
   -5.9692    4.9071  -37.4840 C   0  0  0  0  0  0  0  0  0  0  0  0
   -6.4419    6.1815  -35.4998 C   0  0  0  0  0  0  0  0  0  0  0  0
   -6.8837    3.8048  -35.5363 N   0  0  0  0  0  0  0  0  0  0  0  0
   -5.5091    4.8163  -38.8079 N   0  0  0  0  0  0  0  0  0  0  0  0
   -6.4721    7.8093  -34.5527 Br  0  0  0  0  0  0  0  0  0  0  0  0
   -5.6276    7.0219  -37.3108 H   0  0  0  0  0  0  0  0  0  0  0  0
   -6.4441    2.8103  -37.2827 H   0  0  0  0  0  0  0  0  0  0  0  0
   -7.2515    4.9820  -33.8937 H   0  0  0  0  0  0  0  0  0  0  0  0
   -5.4674    3.9200  -39.2558 H   0  0  0  0  0  0  0  0  0  0  0  0
   -5.1391    5.6321  -39.2588 H   0  0  0  0  0  0  0  0  0  0  0  0
  1  4  1  0  0  0  0
  1  5  2  0  0  0  0
  2  4  2  0  0  0  0
  2  6  1  0  0  0  0
  3  5  1  0  0  0  0
  3  6  2  0  0  0  0
  4  7  1  0  0  0  0
  5  8  1  0  0  0  0
  1  9  1  0  0  0  0
  2 10  1  0  0  0  0
  3 11  1  0  0  0  0
  7 12  1  0  0  0  0
  7 13  1  0  0  0  0
M  END
> <id>
EN300-105759

> <smiles>
NC=1C=NC=C(Br)C1

> <MDLNUMBER>
MFCD01646060

> <IUPAC Name>
5-bromopyridin-3-amine

> <CAS>
13535-01-8

> <Purity>
95

> <URL>
https://www.enaminestore.com/catalog/EN300-105759

> <MP>
65-69

> <ROCS_ShapeQuery>
_hit0

> <ROCS_TanimotoCombo>
1.037 

> <ROCS_ShapeTanimoto>
0.537 

> <ROCS_ColorTanimoto>
0.500 

> <ROCS_RefTversky>
1.289 

> <ROCS_RefColorTversky>
0.741 

> <ROCS_RefTverskyCombo>
2.030 

> <ROCS_FitTversky>
0.479 

> <ROCS_FitColorTversky>
0.606 

> <ROCS_FitTverskyCombo>
1.085 

> <ROCS_ColorScore>
-3.000

> <ROCS_Overlap>
154.318

> <ROCS_Rank>
199                 

$$$$
untitled-dbase-20769_0
  -OEChem-06232314393D

 12 12  0     0  0  0  0  0  0999 V2000
   -6.5744    5.0842  -35.2358 C   0  0  0  0  0  0  0  0  0  0  0  0
   -6.5119    3.6377  -36.8831 C   0  0  0  0  0  0  0  0  0  0  0  0
   -5.9527    4.7175  -37.5339 C   0  0  0  0  0  0  0  0  0  0  0  0
   -6.7547    2.3030  -37.4678 C   0  0  0  0  0  0  0  0  0  0  0  0
   -6.8687    3.8460  -35.5651 N   0  0  0  0  0  0  0  0  0  0  0  0
   -5.5190    4.8133  -38.7853 O   0  0  0  0  0  0  0  0  0  0  0  0
   -5.8670    6.0538  -36.4623 S   0  0  0  0  0  0  0  0  0  0  0  0
   -6.7640    5.4768  -34.2462 H   0  0  0  0  0  0  0  0  0  0  0  0
   -5.8845    1.6428  -37.3227 H   0  0  0  0  0  0  0  0  0  0  0  0
   -7.6311    1.8081  -37.0168 H   0  0  0  0  0  0  0  0  0  0  0  0
   -6.9583    2.3578  -38.5506 H   0  0  0  0  0  0  0  0  0  0  0  0
   -5.1647    5.7075  -38.9861 H   0  0  0  0  0  0  0  0  0  0  0  0
  1  5  2  0  0  0  0
  1  7  1  0  0  0  0
  2  3  2  0  0  0  0
  2  4  1  0  0  0  0
  2  5  1  0  0  0  0
  3  6  1  0  0  0  0
  3  7  1  0  0  0  0
  1  8  1  0  0  0  0
  4  9  1  0  0  0  0
  4 10  1  0  0  0  0
  4 11  1  0  0  0  0
  6 12  1  0  0  0  0
M  END
> <id>
EN300-1827170

> <smiles>
CC=1N=CSC1O

> <MDLNUMBER>
MFCD28665410

> <IUPAC Name>
4-methyl-1,3-thiazol-5-ol

> <CAS>
105600-03-1

> <URL>
https://www.enaminestore.com/catalog/EN300-1827170

> <ROCS_ShapeQuery>
_hit0

> <ROCS_TanimotoCombo>
1.037 

> <ROCS_ShapeTanimoto>
0.438 

> <ROCS_ColorTanimoto>
0.599 

> <ROCS_RefTversky>
1.021 

> <ROCS_RefColorTversky>
0.749 

> <ROCS_RefTverskyCombo>
1.771 

> <ROCS_FitTversky>
0.434 

> <ROCS_FitColorTversky>
0.749 

> <ROCS_FitTverskyCombo>
1.183 

> <ROCS_ColorScore>
-2.997

> <ROCS_Overlap>
119.793

> <ROCS_Rank>
200                 

$$$$
untitled-dbase-12283_0
  -OEChem-06232314393D

 11 11  0     0  0  0  0  0  0999 V2000
   -5.9560    6.1356  -36.7927 C   0  0  0  0  0  0  0  0  0  0  0  0
   -6.8593    5.0493  -34.8922 C   0  0  0  0  0  0  0  0  0  0  0  0
   -6.4067    6.2100  -35.4865 C   0  0  0  0  0  0  0  0  0  0  0  0
   -5.9875    4.9054  -37.4180 C   0  0  0  0  0  0  0  0  0  0  0  0
   -6.8788    3.8588  -35.5281 N   0  0  0  0  0  0  0  0  0  0  0  0
   -6.4355    3.7857  -36.8118 N   0  0  0  0  0  0  0  0  0  0  0  0
   -5.5510    4.7899  -38.7091 O   0  0  0  0  0  0  0  0  0  0  0  0
   -6.4020    7.6970  -34.6325 Cl  0  0  0  0  0  0  0  0  0  0  0  0
   -5.5889    7.0135  -37.3151 H   0  0  0  0  0  0  0  0  0  0  0  0
   -7.2281    5.0295  -33.8724 H   0  0  0  0  0  0  0  0  0  0  0  0
   -5.6355    3.8718  -39.0048 H   0  0  0  0  0  0  0  0  0  0  0  0
  1  3  1  0  0  0  0
  1  4  2  0  0  0  0
  2  3  2  0  0  0  0
  2  5  1  0  0  0  0
  3  8  1  0  0  0  0
  4  6  1  0  0  0  0
  4  7  1  0  0  0  0
  5  6  2  0  0  0  0
  1  9  1  0  0  0  0
  2 10  1  0  0  0  0
  7 11  1  0  0  0  0
M  END
> <id>
EN300-124398

> <smiles>
OC=1C=C(Cl)C=NN1

> <MDLNUMBER>
MFCD10698049

> <IUPAC Name>
5-chloropyridazin-3-ol

> <CAS>
660425-07-0

> <Purity>
95

> <URL>
https://www.enaminestore.com/catalog/EN300-124398

> <ROCS_ShapeQuery>
_hit0

> <ROCS_TanimotoCombo>
1.036 

> <ROCS_ShapeTanimoto>
0.528 

> <ROCS_ColorTanimoto>
0.508 

> <ROCS_RefTversky>
1.294 

> <ROCS_RefColorTversky>
0.773 

> <ROCS_RefTverskyCombo>
2.066 

> <ROCS_FitTversky>
0.472 

> <ROCS_FitColorTversky>
0.597 

> <ROCS_FitTverskyCombo>
1.069 

> <ROCS_ColorScore>
-3.141

> <ROCS_Overlap>
155.373

> <ROCS_Rank>
201                 

$$$$
untitled-dbase-41869_0
  -OEChem-06232314393D

 15 15  0     0  0  0  0  0  0999 V2000
   -6.2117    6.1473  -36.9488 C   0  0  0  0  0  0  0  0  0  0  0  0
   -6.3528    3.7771  -36.8121 C   0  0  0  0  0  0  0  0  0  0  0  0
   -6.7304    6.2220  -35.6608 C   0  0  0  0  0  0  0  0  0  0  0  0
   -6.0163    4.9053  -37.5426 C   0  0  0  0  0  0  0  0  0  0  0  0
   -7.0351    5.0348  -35.0147 C   0  0  0  0  0  0  0  0  0  0  0  0
   -6.9382    7.5553  -35.0283 C   0  0  0  0  0  0  0  0  0  0  0  0
   -6.8589    3.8099  -35.5590 N   0  0  0  0  0  0  0  0  0  0  0  0
   -5.5127    4.8020  -38.7972 O   0  0  0  0  0  0  0  0  0  0  0  0
   -6.5771    8.6037  -35.8268 F   0  0  0  0  0  0  0  0  0  0  0  0
   -8.2374    7.8021  -34.6845 F   0  0  0  0  0  0  0  0  0  0  0  0
   -6.2204    7.7092  -33.8771 F   0  0  0  0  0  0  0  0  0  0  0  0
   -7.6821    4.9972  -33.4216 Cl  0  0  0  0  0  0  0  0  0  0  0  0
   -5.9591    7.0541  -37.4924 H   0  0  0  0  0  0  0  0  0  0  0  0
   -6.2219    2.7821  -37.2256 H   0  0  0  0  0  0  0  0  0  0  0  0
   -5.3317    5.6832  -39.1662 H   0  0  0  0  0  0  0  0  0  0  0  0
  1  3  2  0  0  0  0
  1  4  1  0  0  0  0
  2  4  2  0  0  0  0
  2  7  1  0  0  0  0
  3  5  1  0  0  0  0
  3  6  1  0  0  0  0
  4  8  1  0  0  0  0
  5  7  2  0  0  0  0
  5 12  1  0  0  0  0
  6  9  1  0  0  0  0
  6 10  1  0  0  0  0
  6 11  1  0  0  0  0
  1 13  1  0  0  0  0
  2 14  1  0  0  0  0
  8 15  1  0  0  0  0
M  END
> <id>
EN300-3179868

> <smiles>
OC=1C=NC(Cl)=C(C1)C(F)(F)F

> <MDLNUMBER>
MFCD18256162

> <IUPAC Name>
6-chloro-5-(trifluoromethyl)pyridin-3-ol

> <CAS>
1211578-93-6

> <Purity>
95

> <URL>
https://www.enaminestore.com/catalog/EN300-3179868

> <ROCS_ShapeQuery>
_hit0

> <ROCS_TanimotoCombo>
1.036 

> <ROCS_ShapeTanimoto>
0.437 

> <ROCS_ColorTanimoto>
0.600 

> <ROCS_RefTversky>
1.501 

> <ROCS_RefColorTversky>
0.750 

> <ROCS_RefTverskyCombo>
2.251 

> <ROCS_FitTversky>
0.381 

> <ROCS_FitColorTversky>
0.750 

> <ROCS_FitTverskyCombo>
1.131 

> <ROCS_ColorScore>
-2.999

> <ROCS_Overlap>
194.548

> <ROCS_Rank>
202                 

$$$$
untitled-dbase-24488_0
  -OEChem-06232314393D

 11 10  0     0  0  0  0  0  0999 V2000
   -5.8702    5.4271  -36.5575 C   0  0  0  0  0  0  0  0  0  0  0  0
   -6.3109    6.2600  -35.8128 C   0  0  0  0  0  0  0  0  0  0  0  0
   -5.3333    4.4132  -37.4641 C   0  0  0  0  0  0  0  0  0  0  0  0
   -6.8441    7.2693  -34.9043 C   0  0  0  0  0  0  0  0  0  0  0  0
   -5.5263    4.8238  -38.8102 O   0  0  0  0  0  0  0  0  0  0  0  0
   -7.6304    8.7443  -35.9023 Br  0  0  0  0  0  0  0  0  0  0  0  0
   -5.8412    3.4552  -37.3176 H   0  0  0  0  0  0  0  0  0  0  0  0
   -4.2616    4.2708  -37.2951 H   0  0  0  0  0  0  0  0  0  0  0  0
   -7.6377    6.8681  -34.2692 H   0  0  0  0  0  0  0  0  0  0  0  0
   -6.0639    7.7037  -34.2741 H   0  0  0  0  0  0  0  0  0  0  0  0
   -6.4835    4.9259  -38.9383 H   0  0  0  0  0  0  0  0  0  0  0  0
  1  2  3  0  0  0  0
  1  3  1  0  0  0  0
  2  4  1  0  0  0  0
  3  5  1  0  0  0  0
  4  6  1  0  0  0  0
  3  7  1  0  0  0  0
  3  8  1  0  0  0  0
  4  9  1  0  0  0  0
  4 10  1  0  0  0  0
  5 11  1  0  0  0  0
M  END
> <id>
EN300-83766

> <smiles>
OCC#CCBr

> <MDLNUMBER>
MFCD20617490

> <IUPAC Name>
4-bromobut-2-yn-1-ol

> <CAS>
13280-08-5

> <Purity>
95

> <URL>
https://www.enaminestore.com/catalog/EN300-83766

> <ROCS_ShapeQuery>
_hit0

> <ROCS_TanimotoCombo>
1.036 

> <ROCS_ShapeTanimoto>
0.636 

> <ROCS_ColorTanimoto>
0.400 

> <ROCS_RefTversky>
1.089 

> <ROCS_RefColorTversky>
0.506 

> <ROCS_RefTverskyCombo>
1.595 

> <ROCS_FitTversky>
0.605 

> <ROCS_FitColorTversky>
0.656 

> <ROCS_FitTverskyCombo>
1.261 

> <ROCS_ColorScore>
-1.999

> <ROCS_Overlap>
123.567

> <ROCS_Rank>
203                 

$$$$
untitled-dbase-33159_0
  -OEChem-06232314393D

 16 16  0     0  0  0  0  0  0999 V2000
   -6.1815    6.1388  -36.8787 C   0  0  0  0  0  0  0  0  0  0  0  0
   -6.3781    3.7702  -36.7898 C   0  0  0  0  0  0  0  0  0  0  0  0
   -6.6873    6.1989  -35.5849 C   0  0  0  0  0  0  0  0  0  0  0  0
   -6.0209    4.9052  -37.4998 C   0  0  0  0  0  0  0  0  0  0  0  0
   -7.0148    5.0060  -34.9607 C   0  0  0  0  0  0  0  0  0  0  0  0
   -6.8578    7.5232  -34.9231 C   0  0  0  0  0  0  0  0  0  0  0  0
   -6.8727    3.7889  -35.5318 N   0  0  0  0  0  0  0  0  0  0  0  0
   -5.5126    4.8128  -38.8056 N   0  0  0  0  0  0  0  0  0  0  0  0
   -6.4784    8.5791  -35.7030 F   0  0  0  0  0  0  0  0  0  0  0  0
   -8.1477    7.7936  -34.5627 F   0  0  0  0  0  0  0  0  0  0  0  0
   -6.1268    7.6359  -33.7754 F   0  0  0  0  0  0  0  0  0  0  0  0
   -7.6486    4.9498  -33.3626 Cl  0  0  0  0  0  0  0  0  0  0  0  0
   -5.9128    7.0532  -37.4024 H   0  0  0  0  0  0  0  0  0  0  0  0
   -6.2755    2.7791  -37.2215 H   0  0  0  0  0  0  0  0  0  0  0  0
   -5.3057    5.6513  -39.3156 H   0  0  0  0  0  0  0  0  0  0  0  0
   -5.4504    3.9153  -39.2489 H   0  0  0  0  0  0  0  0  0  0  0  0
  1  3  2  0  0  0  0
  1  4  1  0  0  0  0
  2  4  2  0  0  0  0
  2  7  1  0  0  0  0
  3  5  1  0  0  0  0
  3  6  1  0  0  0  0
  4  8  1  0  0  0  0
  5  7  2  0  0  0  0
  5 12  1  0  0  0  0
  6  9  1  0  0  0  0
  6 10  1  0  0  0  0
  6 11  1  0  0  0  0
  1 13  1  0  0  0  0
  2 14  1  0  0  0  0
  8 15  1  0  0  0  0
  8 16  1  0  0  0  0
M  END
> <id>
EN300-252484

> <smiles>
NC=1C=NC(Cl)=C(C1)C(F)(F)F

> <MDLNUMBER>
MFCD11101042

> <IUPAC Name>
6-chloro-5-(trifluoromethyl)pyridin-3-amine

> <CAS>
99368-68-0

> <Purity>
95

> <URL>
https://www.enaminestore.com/catalog/EN300-252484

> <ROCS_ShapeQuery>
_hit0

> <ROCS_TanimotoCombo>
1.036 

> <ROCS_ShapeTanimoto>
0.436 

> <ROCS_ColorTanimoto>
0.600 

> <ROCS_RefTversky>
1.497 

> <ROCS_RefColorTversky>
0.750 

> <ROCS_RefTverskyCombo>
2.247 

> <ROCS_FitTversky>
0.381 

> <ROCS_FitColorTversky>
0.750 

> <ROCS_FitTverskyCombo>
1.131 

> <ROCS_ColorScore>
-2.999

> <ROCS_Overlap>
193.907

> <ROCS_Rank>
204                 

$$$$
untitled-dbase-17572_0
  -OEChem-06232314393D

 17 17  0     1  0  0  0  0  0999 V2000
   -6.2421    4.4059  -35.9812 C   0  0  0  0  0  0  0  0  0  0  0  0
   -5.0944    3.8364  -36.7847 C   0  0  0  0  0  0  0  0  0  0  0  0
   -5.1194    6.2338  -36.9800 C   0  0  0  0  0  0  0  0  0  0  0  0
   -4.7205    4.9749  -37.7282 C   0  0  2  0  0  0  0  0  0  0  0  0
   -7.0704    6.7295  -35.4572 C   0  0  0  0  0  0  0  0  0  0  0  0
   -6.2100    5.7883  -36.1411 N   0  0  0  0  0  0  0  0  0  0  0  0
   -7.0049    3.7422  -35.2948 O   0  0  0  0  0  0  0  0  0  0  0  0
   -5.4893    4.8551  -38.9222 O   0  0  0  0  0  0  0  0  0  0  0  0
   -4.2788    3.6086  -36.0914 H   0  0  0  0  0  0  0  0  0  0  0  0
   -5.4162    2.9350  -37.3130 H   0  0  0  0  0  0  0  0  0  0  0  0
   -4.3188    6.5891  -36.3235 H   0  0  0  0  0  0  0  0  0  0  0  0
   -5.4622    7.0375  -37.6382 H   0  0  0  0  0  0  0  0  0  0  0  0
   -3.6628    4.9544  -37.9989 H   0  0  0  0  0  0  0  0  0  0  0  0
   -6.5974    7.0413  -34.5143 H   0  0  0  0  0  0  0  0  0  0  0  0
   -7.2306    7.6107  -36.0959 H   0  0  0  0  0  0  0  0  0  0  0  0
   -8.0377    6.2522  -35.2418 H   0  0  0  0  0  0  0  0  0  0  0  0
   -5.2268    5.5917  -39.4962 H   0  0  0  0  0  0  0  0  0  0  0  0
  1  2  1  0  0  0  0
  1  6  1  0  0  0  0
  1  7  2  0  0  0  0
  2  4  1  0  0  0  0
  3  4  1  0  0  0  0
  3  6  1  0  0  0  0
  4  8  1  6  0  0  0
  5  6  1  0  0  0  0
  2  9  1  0  0  0  0
  2 10  1  0  0  0  0
  3 11  1  0  0  0  0
  3 12  1  0  0  0  0
  4 13  1  0  0  0  0
  5 14  1  0  0  0  0
  5 15  1  0  0  0  0
  5 16  1  0  0  0  0
  8 17  1  0  0  0  0
M  END
> <id>
EN300-266620

> <smiles>
CN1C[C@H](O)CC1=O

> <MDLNUMBER>
MFCD19690593

> <IUPAC Name>
(4R)-4-hydroxy-1-methylpyrrolidin-2-one

> <CAS>
252642-41-4

> <Purity>
95

> <URL>
https://www.enaminestore.com/catalog/EN300-266620

> <ROCS_ShapeQuery>
_hit0

> <ROCS_TanimotoCombo>
1.036 

> <ROCS_ShapeTanimoto>
0.470 

> <ROCS_ColorTanimoto>
0.566 

> <ROCS_RefTversky>
1.193 

> <ROCS_RefColorTversky>
0.723 

> <ROCS_RefTverskyCombo>
1.915 

> <ROCS_FitTversky>
0.437 

> <ROCS_FitColorTversky>
0.723 

> <ROCS_FitTverskyCombo>
1.160 

> <ROCS_ColorScore>
-2.891

> <ROCS_Overlap>
143.098

> <ROCS_Rank>
205                 

$$$$
untitled-dbase-28645_9
  -OEChem-06232314393D

 16 15  0     0  0  0  0  0  0999 V2000
   -6.3970    5.2929  -36.4059 C   0  0  0  0  0  0  0  0  0  0  0  0
   -5.4999    4.1141  -38.4787 C   0  0  0  0  0  0  0  0  0  0  0  0
   -6.8174    7.7941  -36.6745 C   0  0  0  0  0  0  0  0  0  0  0  0
   -6.4664    6.7790  -34.5003 N   0  0  0  0  0  0  0  0  0  0  0  0
   -5.8157    5.2810  -37.6756 N   0  0  0  0  0  0  0  0  0  0  0  0
   -6.5782    6.5886  -35.8839 N   0  0  0  0  0  0  0  0  0  0  0  0
   -6.8401    3.8851  -35.5824 S   0  0  0  0  0  0  0  0  0  0  0  0
   -4.4780    3.7769  -38.2505 H   0  0  0  0  0  0  0  0  0  0  0  0
   -6.2119    3.3076  -38.2491 H   0  0  0  0  0  0  0  0  0  0  0  0
   -5.5708    4.3732  -39.5454 H   0  0  0  0  0  0  0  0  0  0  0  0
   -7.8996    7.9313  -36.8166 H   0  0  0  0  0  0  0  0  0  0  0  0
   -6.4034    8.6663  -36.1474 H   0  0  0  0  0  0  0  0  0  0  0  0
   -6.3291    7.6923  -37.6549 H   0  0  0  0  0  0  0  0  0  0  0  0
   -6.0817    7.7116  -34.3552 H   0  0  0  0  0  0  0  0  0  0  0  0
   -5.7681    6.1192  -34.1600 H   0  0  0  0  0  0  0  0  0  0  0  0
   -5.5899    6.1842  -38.0807 H   0  0  0  0  0  0  0  0  0  0  0  0
  1  5  1  0  0  0  0
  1  6  1  0  0  0  0
  1  7  2  0  0  0  0
  2  5  1  0  0  0  0
  3  6  1  0  0  0  0
  4  6  1  0  0  0  0
  2  8  1  0  0  0  0
  2  9  1  0  0  0  0
  2 10  1  0  0  0  0
  3 11  1  0  0  0  0
  3 12  1  0  0  0  0
  3 13  1  0  0  0  0
  4 14  1  0  0  0  0
  4 15  1  0  0  0  0
  5 16  1  0  0  0  0
M  END
> <id>
EN300-253600

> <smiles>
Cl.CNC(=S)N(C)N

> <MDLNUMBER>
MFCD29055180

> <IUPAC Name>
1-amino-1,3-dimethylthiourea hydrochloride

> <CAS>
1955522-70-9

> <URL>
https://www.enaminestore.com/catalog/EN300-253600

> <Saltdate>
Cl

> <ROCS_ShapeQuery>
_hit0

> <ROCS_TanimotoCombo>
1.036 

> <ROCS_ShapeTanimoto>
0.592 

> <ROCS_ColorTanimoto>
0.443 

> <ROCS_RefTversky>
1.183 

> <ROCS_RefColorTversky>
0.544 

> <ROCS_RefTverskyCombo>
1.728 

> <ROCS_FitTversky>
0.543 

> <ROCS_FitColorTversky>
0.705 

> <ROCS_FitTverskyCombo>
1.247 

> <ROCS_ColorScore>
-2.150

> <ROCS_Overlap>
137.371

> <ROCS_Rank>
206                 

$$$$
untitled-dbase-7440_9
  -OEChem-06232314393D

 16 15  0     0  0  0  0  0  0999 V2000
   -6.3970    5.2929  -36.4059 C   0  0  0  0  0  0  0  0  0  0  0  0
   -5.4999    4.1141  -38.4787 C   0  0  0  0  0  0  0  0  0  0  0  0
   -6.8174    7.7941  -36.6745 C   0  0  0  0  0  0  0  0  0  0  0  0
   -6.4664    6.7790  -34.5003 N   0  0  0  0  0  0  0  0  0  0  0  0
   -5.8157    5.2810  -37.6756 N   0  0  0  0  0  0  0  0  0  0  0  0
   -6.5782    6.5886  -35.8839 N   0  0  0  0  0  0  0  0  0  0  0  0
   -6.8401    3.8851  -35.5824 S   0  0  0  0  0  0  0  0  0  0  0  0
   -4.4780    3.7769  -38.2505 H   0  0  0  0  0  0  0  0  0  0  0  0
   -6.2119    3.3076  -38.2491 H   0  0  0  0  0  0  0  0  0  0  0  0
   -5.5708    4.3732  -39.5454 H   0  0  0  0  0  0  0  0  0  0  0  0
   -7.8996    7.9313  -36.8166 H   0  0  0  0  0  0  0  0  0  0  0  0
   -6.4034    8.6663  -36.1474 H   0  0  0  0  0  0  0  0  0  0  0  0
   -6.3291    7.6923  -37.6549 H   0  0  0  0  0  0  0  0  0  0  0  0
   -6.0817    7.7116  -34.3552 H   0  0  0  0  0  0  0  0  0  0  0  0
   -5.7681    6.1192  -34.1600 H   0  0  0  0  0  0  0  0  0  0  0  0
   -5.5899    6.1842  -38.0807 H   0  0  0  0  0  0  0  0  0  0  0  0
  1  5  1  0  0  0  0
  1  6  1  0  0  0  0
  1  7  2  0  0  0  0
  2  5  1  0  0  0  0
  3  6  1  0  0  0  0
  4  6  1  0  0  0  0
  2  8  1  0  0  0  0
  2  9  1  0  0  0  0
  2 10  1  0  0  0  0
  3 11  1  0  0  0  0
  3 12  1  0  0  0  0
  3 13  1  0  0  0  0
  4 14  1  0  0  0  0
  4 15  1  0  0  0  0
  5 16  1  0  0  0  0
M  END
> <id>
EN300-252660

> <smiles>
CNC(=S)N(C)N

> <MDLNUMBER>
MFCD00015563

> <IUPAC Name>
3-amino-1,3-dimethylthiourea

> <CAS>
6621-75-6

> <Purity>
95

> <URL>
https://www.enaminestore.com/catalog/EN300-252660

> <MP>
135-137

> <ROCS_ShapeQuery>
_hit0

> <ROCS_TanimotoCombo>
1.036 

> <ROCS_ShapeTanimoto>
0.592 

> <ROCS_ColorTanimoto>
0.443 

> <ROCS_RefTversky>
1.183 

> <ROCS_RefColorTversky>
0.544 

> <ROCS_RefTverskyCombo>
1.728 

> <ROCS_FitTversky>
0.543 

> <ROCS_FitColorTversky>
0.705 

> <ROCS_FitTverskyCombo>
1.247 

> <ROCS_ColorScore>
-2.150

> <ROCS_Overlap>
137.371

> <ROCS_Rank>
207                 

$$$$
untitled-dbase-6211_0
  -OEChem-06232314393D

 12 12  0     0  0  0  0  0  0999 V2000
   -5.9788    6.1195  -36.8345 C   0  0  0  0  0  0  0  0  0  0  0  0
   -6.4117    3.7809  -36.8272 C   0  0  0  0  0  0  0  0  0  0  0  0
   -6.8657    4.9995  -34.9332 C   0  0  0  0  0  0  0  0  0  0  0  0
   -5.9624    4.9021  -37.5061 C   0  0  0  0  0  0  0  0  0  0  0  0
   -6.4374    6.1777  -35.5232 C   0  0  0  0  0  0  0  0  0  0  0  0
   -6.8646    3.7983  -35.5536 N   0  0  0  0  0  0  0  0  0  0  0  0
   -5.5193    4.8149  -38.7847 O   0  0  0  0  0  0  0  0  0  0  0  0
   -6.4737    7.8063  -34.5781 Br  0  0  0  0  0  0  0  0  0  0  0  0
   -5.6312    7.0168  -37.3410 H   0  0  0  0  0  0  0  0  0  0  0  0
   -6.4219    2.8055  -37.3029 H   0  0  0  0  0  0  0  0  0  0  0  0
   -7.2358    4.9765  -33.9127 H   0  0  0  0  0  0  0  0  0  0  0  0
   -5.2412    5.6879  -39.1100 H   0  0  0  0  0  0  0  0  0  0  0  0
  1  4  1  0  0  0  0
  1  5  2  0  0  0  0
  2  4  2  0  0  0  0
  2  6  1  0  0  0  0
  3  5  1  0  0  0  0
  3  6  2  0  0  0  0
  4  7  1  0  0  0  0
  5  8  1  0  0  0  0
  1  9  1  0  0  0  0
  2 10  1  0  0  0  0
  3 11  1  0  0  0  0
  7 12  1  0  0  0  0
M  END
> <id>
EN300-75258

> <smiles>
OC=1C=NC=C(Br)C1

> <MDLNUMBER>
MFCD00661305

> <IUPAC Name>
5-bromopyridin-3-ol

> <CAS>
74115-13-2

> <Purity>
95

> <URL>
https://www.enaminestore.com/catalog/EN300-75258

> <MP>
168-169

> <ROCS_ShapeQuery>
_hit0

> <ROCS_TanimotoCombo>
1.035 

> <ROCS_ShapeTanimoto>
0.536 

> <ROCS_ColorTanimoto>
0.500 

> <ROCS_RefTversky>
1.291 

> <ROCS_RefColorTversky>
0.740 

> <ROCS_RefTverskyCombo>
2.031 

> <ROCS_FitTversky>
0.478 

> <ROCS_FitColorTversky>
0.606 

> <ROCS_FitTverskyCombo>
1.084 

> <ROCS_ColorScore>
-2.999

> <ROCS_Overlap>
154.605

> <ROCS_Rank>
208                 

$$$$
untitled-dbase-23267_4
  -OEChem-06232314393D

 17 17  0     1  0  0  0  0  0999 V2000
   -5.6283    5.1876  -37.7964 C   0  0  0  0  0  0  0  0  0  0  0  0
   -6.5244    4.9907  -35.4921 C   0  0  0  0  0  0  0  0  0  0  0  0
   -6.8831    5.6198  -34.1606 C   0  0  0  0  0  0  0  0  0  0  0  0
   -6.3486    7.2316  -36.6052 C   0  0  0  0  0  0  0  0  0  0  0  0
   -7.0622    7.7061  -35.3368 C   0  0  0  0  0  0  0  0  0  0  0  0
   -5.7316    5.8326  -36.4789 C   0  0  2  0  0  0  0  0  0  0  0  0
   -5.5469    4.6787  -38.8359 N   0  0  0  0  0  0  0  0  0  0  0  0
   -6.5433    7.0424  -34.1449 N   0  0  0  0  0  0  0  0  0  0  0  0
   -6.8251    3.8168  -35.7168 O   0  0  0  0  0  0  0  0  0  0  0  0
   -7.9662    5.5053  -33.9899 H   0  0  0  0  0  0  0  0  0  0  0  0
   -6.3706    5.0729  -33.3511 H   0  0  0  0  0  0  0  0  0  0  0  0
   -7.0665    7.2540  -37.4496 H   0  0  0  0  0  0  0  0  0  0  0  0
   -5.5628    7.9625  -36.8750 H   0  0  0  0  0  0  0  0  0  0  0  0
   -6.9783    8.8002  -35.2331 H   0  0  0  0  0  0  0  0  0  0  0  0
   -8.1380    7.4906  -35.4238 H   0  0  0  0  0  0  0  0  0  0  0  0
   -4.7076    5.9248  -36.0600 H   0  0  0  0  0  0  0  0  0  0  0  0
   -6.9357    7.4736  -33.3143 H   0  0  0  0  0  0  0  0  0  0  0  0
  1  6  1  0  0  0  0
  1  7  3  0  0  0  0
  2  3  1  0  0  0  0
  2  6  1  0  0  0  0
  2  9  2  0  0  0  0
  3  8  1  0  0  0  0
  4  5  1  0  0  0  0
  4  6  1  0  0  0  0
  5  8  1  0  0  0  0
  3 10  1  0  0  0  0
  3 11  1  0  0  0  0
  4 12  1  0  0  0  0
  4 13  1  0  0  0  0
  5 14  1  0  0  0  0
  5 15  1  0  0  0  0
  6 16  1  0  0  0  0
  8 17  1  0  0  0  0
M  END
> <id>
EN300-7465603

> <smiles>
Cl.O=C1CNCCC1C#N

> <MDLNUMBER>
MFCD31556081

> <IUPAC Name>
3-oxopiperidine-4-carbonitrile hydrochloride

> <CAS>
2102409-15-2

> <URL>
https://www.enaminestore.com/catalog/EN300-7465603

> <Saltdate>
Cl

> <ROCS_ShapeQuery>
_hit0

> <ROCS_TanimotoCombo>
1.034 

> <ROCS_ShapeTanimoto>
0.561 

> <ROCS_ColorTanimoto>
0.474 

> <ROCS_RefTversky>
1.425 

> <ROCS_RefColorTversky>
0.714 

> <ROCS_RefTverskyCombo>
2.140 

> <ROCS_FitTversky>
0.480 

> <ROCS_FitColorTversky>
0.585 

> <ROCS_FitTverskyCombo>
1.065 

> <ROCS_ColorScore>
-2.893

> <ROCS_Overlap>
173.565

> <ROCS_Rank>
209                 

$$$$
untitled-dbase-52795_4
  -OEChem-06232314393D

 17 17  0     1  0  0  0  0  0999 V2000
   -5.6283    5.1876  -37.7964 C   0  0  0  0  0  0  0  0  0  0  0  0
   -6.5244    4.9907  -35.4921 C   0  0  0  0  0  0  0  0  0  0  0  0
   -6.8831    5.6198  -34.1606 C   0  0  0  0  0  0  0  0  0  0  0  0
   -6.3486    7.2316  -36.6052 C   0  0  0  0  0  0  0  0  0  0  0  0
   -7.0622    7.7061  -35.3368 C   0  0  0  0  0  0  0  0  0  0  0  0
   -5.7316    5.8326  -36.4789 C   0  0  2  0  0  0  0  0  0  0  0  0
   -5.5469    4.6787  -38.8359 N   0  0  0  0  0  0  0  0  0  0  0  0
   -6.5433    7.0424  -34.1449 N   0  0  0  0  0  0  0  0  0  0  0  0
   -6.8251    3.8168  -35.7168 O   0  0  0  0  0  0  0  0  0  0  0  0
   -7.9662    5.5053  -33.9899 H   0  0  0  0  0  0  0  0  0  0  0  0
   -6.3706    5.0729  -33.3511 H   0  0  0  0  0  0  0  0  0  0  0  0
   -7.0665    7.2540  -37.4496 H   0  0  0  0  0  0  0  0  0  0  0  0
   -5.5628    7.9625  -36.8750 H   0  0  0  0  0  0  0  0  0  0  0  0
   -6.9783    8.8002  -35.2331 H   0  0  0  0  0  0  0  0  0  0  0  0
   -8.1380    7.4906  -35.4238 H   0  0  0  0  0  0  0  0  0  0  0  0
   -4.7076    5.9248  -36.0600 H   0  0  0  0  0  0  0  0  0  0  0  0
   -6.9357    7.4736  -33.3143 H   0  0  0  0  0  0  0  0  0  0  0  0
  1  6  1  0  0  0  0
  1  7  3  0  0  0  0
  2  3  1  0  0  0  0
  2  6  1  0  0  0  0
  2  9  2  0  0  0  0
  3  8  1  0  0  0  0
  4  5  1  0  0  0  0
  4  6  1  0  0  0  0
  5  8  1  0  0  0  0
  3 10  1  0  0  0  0
  3 11  1  0  0  0  0
  4 12  1  0  0  0  0
  4 13  1  0  0  0  0
  5 14  1  0  0  0  0
  5 15  1  0  0  0  0
  6 16  1  0  0  0  0
  8 17  1  0  0  0  0
M  END
> <id>
EN300-325735

> <smiles>
O=C1CNCCC1C#N

> <MDLNUMBER>
MFCD14583113

> <IUPAC Name>
3-oxopiperidine-4-carbonitrile

> <CAS>
1378793-22-6

> <URL>
https://www.enaminestore.com/catalog/EN300-325735

> <ROCS_ShapeQuery>
_hit0

> <ROCS_TanimotoCombo>
1.034 

> <ROCS_ShapeTanimoto>
0.561 

> <ROCS_ColorTanimoto>
0.474 

> <ROCS_RefTversky>
1.425 

> <ROCS_RefColorTversky>
0.714 

> <ROCS_RefTverskyCombo>
2.140 

> <ROCS_FitTversky>
0.480 

> <ROCS_FitColorTversky>
0.585 

> <ROCS_FitTverskyCombo>
1.065 

> <ROCS_ColorScore>
-2.893

> <ROCS_Overlap>
173.565

> <ROCS_Rank>
210                 

$$$$
untitled-dbase-21257_0
  -OEChem-06232314393D

 15 15  0     0  0  0  0  0  0999 V2000
   -6.1787    6.1334  -36.9358 C   0  0  0  0  0  0  0  0  0  0  0  0
   -7.0134    5.0278  -35.0026 C   0  0  0  0  0  0  0  0  0  0  0  0
   -6.6882    6.2119  -35.6445 C   0  0  0  0  0  0  0  0  0  0  0  0
   -6.0122    4.8909  -37.5373 C   0  0  0  0  0  0  0  0  0  0  0  0
   -6.3674    3.7659  -36.8105 C   0  0  0  0  0  0  0  0  0  0  0  0
   -6.8779    7.5255  -34.9729 C   0  0  0  0  0  0  0  0  0  0  0  0
   -6.8656    3.8025  -35.5543 N   0  0  0  0  0  0  0  0  0  0  0  0
   -5.5142    4.8102  -38.7979 O   0  0  0  0  0  0  0  0  0  0  0  0
   -6.5089    8.5956  -35.7404 F   0  0  0  0  0  0  0  0  0  0  0  0
   -8.1730    7.7788  -34.6145 F   0  0  0  0  0  0  0  0  0  0  0  0
   -6.1536    7.6396  -33.8199 F   0  0  0  0  0  0  0  0  0  0  0  0
   -6.2074    2.1792  -37.4530 Cl  0  0  0  0  0  0  0  0  0  0  0  0
   -5.9112    7.0387  -37.4746 H   0  0  0  0  0  0  0  0  0  0  0  0
   -7.4153    5.0264  -33.9942 H   0  0  0  0  0  0  0  0  0  0  0  0
   -5.4560    3.8826  -39.0813 H   0  0  0  0  0  0  0  0  0  0  0  0
  1  3  1  0  0  0  0
  1  4  2  0  0  0  0
  2  3  2  0  0  0  0
  2  7  1  0  0  0  0
  3  6  1  0  0  0  0
  4  5  1  0  0  0  0
  4  8  1  0  0  0  0
  5  7  2  0  0  0  0
  5 12  1  0  0  0  0
  6  9  1  0  0  0  0
  6 10  1  0  0  0  0
  6 11  1  0  0  0  0
  1 13  1  0  0  0  0
  2 14  1  0  0  0  0
  8 15  1  0  0  0  0
M  END
> <id>
EN300-1936723

> <smiles>
OC=1C=C(C=NC1Cl)C(F)(F)F

> <MDLNUMBER>
MFCD13189916

> <IUPAC Name>
2-chloro-5-(trifluoromethyl)pyridin-3-ol

> <CAS>
1196153-98-6

> <Purity>
95

> <URL>
https://www.enaminestore.com/catalog/EN300-1936723

> <ROCS_ShapeQuery>
_hit0

> <ROCS_TanimotoCombo>
1.034 

> <ROCS_ShapeTanimoto>
0.434 

> <ROCS_ColorTanimoto>
0.600 

> <ROCS_RefTversky>
1.493 

> <ROCS_RefColorTversky>
0.750 

> <ROCS_RefTverskyCombo>
2.243 

> <ROCS_FitTversky>
0.380 

> <ROCS_FitColorTversky>
0.750 

> <ROCS_FitTverskyCombo>
1.130 

> <ROCS_ColorScore>
-2.999

> <ROCS_Overlap>
193.360

> <ROCS_Rank>
211                 

$$$$
untitled-dbase-51376_0
  -OEChem-06232314393D

 11 11  0     0  0  0  0  0  0999 V2000
   -6.4172    3.5595  -37.0485 C   0  0  0  0  0  0  0  0  0  0  0  0
   -5.9629    4.7617  -37.5521 C   0  0  0  0  0  0  0  0  0  0  0  0
   -5.9964    5.8667  -36.7197 C   0  0  0  0  0  0  0  0  0  0  0  0
   -6.4822    5.6962  -35.4389 C   0  0  0  0  0  0  0  0  0  0  0  0
   -6.8874    3.4217  -35.7907 N   0  0  0  0  0  0  0  0  0  0  0  0
   -6.9206    4.5078  -34.9728 N   0  0  0  0  0  0  0  0  0  0  0  0
   -5.5035    4.8252  -38.8287 O   0  0  0  0  0  0  0  0  0  0  0  0
   -5.4413    7.3972  -37.2931 Cl  0  0  0  0  0  0  0  0  0  0  0  0
   -6.5921    6.9619  -34.2806 Cl  0  0  0  0  0  0  0  0  0  0  0  0
   -6.4192    2.6543  -37.6455 H   0  0  0  0  0  0  0  0  0  0  0  0
   -5.2193    5.7293  -39.0424 H   0  0  0  0  0  0  0  0  0  0  0  0
  1  2  2  0  0  0  0
  1  5  1  0  0  0  0
  2  3  1  0  0  0  0
  2  7  1  0  0  0  0
  3  4  2  0  0  0  0
  3  8  1  0  0  0  0
  4  6  1  0  0  0  0
  4  9  1  0  0  0  0
  5  6  2  0  0  0  0
  1 10  1  0  0  0  0
  7 11  1  0  0  0  0
M  END
> <id>
EN300-257804

> <smiles>
OC=1C=NN=C(Cl)C1Cl

> <MDLNUMBER>
MFCD18820770

> <IUPAC Name>
5,6-dichloropyridazin-4-ol

> <CAS>
55609-72-8

> <Purity>
95

> <URL>
https://www.enaminestore.com/catalog/EN300-257804

> <ROCS_ShapeQuery>
_hit0

> <ROCS_TanimotoCombo>
1.034 

> <ROCS_ShapeTanimoto>
0.498 

> <ROCS_ColorTanimoto>
0.536 

> <ROCS_RefTversky>
1.326 

> <ROCS_RefColorTversky>
0.799 

> <ROCS_RefTverskyCombo>
2.125 

> <ROCS_FitTversky>
0.443 

> <ROCS_FitColorTversky>
0.619 

> <ROCS_FitTverskyCombo>
1.063 

> <ROCS_ColorScore>
-3.250

> <ROCS_Overlap>
161.674

> <ROCS_Rank>
212                 

$$$$
untitled-dbase-1821_0
  -OEChem-06232314393D

 12 12  0     0  0  0  0  0  0999 V2000
   -6.4378    3.5792  -37.0074 C   0  0  0  0  0  0  0  0  0  0  0  0
   -5.9648    4.7732  -37.5134 C   0  0  0  0  0  0  0  0  0  0  0  0
   -5.9713    5.8778  -36.6799 C   0  0  0  0  0  0  0  0  0  0  0  0
   -6.4507    5.7153  -35.3957 C   0  0  0  0  0  0  0  0  0  0  0  0
   -6.9011    3.4491  -35.7462 N   0  0  0  0  0  0  0  0  0  0  0  0
   -6.9078    4.5349  -34.9272 N   0  0  0  0  0  0  0  0  0  0  0  0
   -5.4978    4.8297  -38.8398 N   0  0  0  0  0  0  0  0  0  0  0  0
   -5.3940    7.4064  -37.2440 Cl  0  0  0  0  0  0  0  0  0  0  0  0
   -6.5292    6.9803  -34.2335 Cl  0  0  0  0  0  0  0  0  0  0  0  0
   -6.4631    2.6721  -37.6016 H   0  0  0  0  0  0  0  0  0  0  0  0
   -5.4703    3.9912  -39.3867 H   0  0  0  0  0  0  0  0  0  0  0  0
   -5.1119    5.6856  -39.1882 H   0  0  0  0  0  0  0  0  0  0  0  0
  1  2  2  0  0  0  0
  1  5  1  0  0  0  0
  2  3  1  0  0  0  0
  2  7  1  0  0  0  0
  3  4  2  0  0  0  0
  3  8  1  0  0  0  0
  4  6  1  0  0  0  0
  4  9  1  0  0  0  0
  5  6  2  0  0  0  0
  1 10  1  0  0  0  0
  7 11  1  0  0  0  0
  7 12  1  0  0  0  0
M  END
> <id>
EN300-108014

> <smiles>
NC=1C=NN=C(Cl)C1Cl

> <MDLNUMBER>
MFCD01647252

> <IUPAC Name>
5,6-dichloropyridazin-4-amine

> <CAS>
89180-50-7

> <Purity>
95

> <URL>
https://www.enaminestore.com/catalog/EN300-108014

> <MP>
177-179

> <ROCS_ShapeQuery>
_hit0

> <ROCS_TanimotoCombo>
1.034 

> <ROCS_ShapeTanimoto>
0.499 

> <ROCS_ColorTanimoto>
0.534 

> <ROCS_RefTversky>
1.325 

> <ROCS_RefColorTversky>
0.798 

> <ROCS_RefTverskyCombo>
2.123 

> <ROCS_FitTversky>
0.445 

> <ROCS_FitColorTversky>
0.618 

> <ROCS_FitTverskyCombo>
1.063 

> <ROCS_ColorScore>
-3.243

> <ROCS_Overlap>
161.450

> <ROCS_Rank>
213                 

$$$$
untitled-dbase-1699_0
  -OEChem-06232314393D

 16 16  0     0  0  0  0  0  0999 V2000
   -6.4648    3.6456  -36.8546 C   0  0  0  0  0  0  0  0  0  0  0  0
   -5.9754    4.7463  -37.5261 C   0  0  0  0  0  0  0  0  0  0  0  0
   -6.6820    5.1308  -35.2555 C   0  0  0  0  0  0  0  0  0  0  0  0
   -6.5901    2.2757  -37.3966 C   0  0  0  0  0  0  0  0  0  0  0  0
   -6.9992    5.7393  -33.9455 C   0  0  0  0  0  0  0  0  0  0  0  0
   -6.8700    3.8640  -35.5524 N   0  0  0  0  0  0  0  0  0  0  0  0
   -5.5141    4.8117  -38.7985 N   0  0  0  0  0  0  0  0  0  0  0  0
   -6.0216    6.1164  -36.4955 S   0  0  0  0  0  0  0  0  0  0  0  0
   -5.6756    1.6914  -37.2084 H   0  0  0  0  0  0  0  0  0  0  0  0
   -7.4366    1.7312  -36.9467 H   0  0  0  0  0  0  0  0  0  0  0  0
   -6.7707    2.2786  -38.4843 H   0  0  0  0  0  0  0  0  0  0  0  0
   -6.1352    5.6832  -33.2649 H   0  0  0  0  0  0  0  0  0  0  0  0
   -7.2836    6.7998  -34.0431 H   0  0  0  0  0  0  0  0  0  0  0  0
   -7.8491    5.2374  -33.4543 H   0  0  0  0  0  0  0  0  0  0  0  0
   -5.4457    3.9772  -39.3951 H   0  0  0  0  0  0  0  0  0  0  0  0
   -5.1248    5.6785  -39.1911 H   0  0  0  0  0  0  0  0  0  0  0  0
  1  2  2  0  0  0  0
  1  4  1  0  0  0  0
  1  6  1  0  0  0  0
  2  7  1  0  0  0  0
  2  8  1  0  0  0  0
  3  5  1  0  0  0  0
  3  6  2  0  0  0  0
  3  8  1  0  0  0  0
  4  9  1  0  0  0  0
  4 10  1  0  0  0  0
  4 11  1  0  0  0  0
  5 12  1  0  0  0  0
  5 13  1  0  0  0  0
  5 14  1  0  0  0  0
  7 15  1  0  0  0  0
  7 16  1  0  0  0  0
M  END
> <id>
EN300-102083

> <smiles>
CC1=NC(C)=C(N)S1

> <MDLNUMBER>
MFCD16669939

> <IUPAC Name>
dimethyl-1,3-thiazol-5-amine

> <CAS>
856568-04-2

> <Purity>
80

> <URL>
https://www.enaminestore.com/catalog/EN300-102083

> <ROCS_ShapeQuery>
_hit0

> <ROCS_TanimotoCombo>
1.033 

> <ROCS_ShapeTanimoto>
0.434 

> <ROCS_ColorTanimoto>
0.599 

> <ROCS_RefTversky>
1.101 

> <ROCS_RefColorTversky>
0.749 

> <ROCS_RefTverskyCombo>
1.850 

> <ROCS_FitTversky>
0.418 

> <ROCS_FitColorTversky>
0.749 

> <ROCS_FitTverskyCombo>
1.167 

> <ROCS_ColorScore>
-2.996

> <ROCS_Overlap>
131.394

> <ROCS_Rank>
214                 

$$$$
untitled-dbase-11666_0
  -OEChem-06232314393D

 16 16  0     0  0  0  0  0  0999 V2000
   -6.4648    3.6456  -36.8546 C   0  0  0  0  0  0  0  0  0  0  0  0
   -5.9754    4.7463  -37.5261 C   0  0  0  0  0  0  0  0  0  0  0  0
   -6.6820    5.1308  -35.2555 C   0  0  0  0  0  0  0  0  0  0  0  0
   -6.5901    2.2757  -37.3966 C   0  0  0  0  0  0  0  0  0  0  0  0
   -6.9992    5.7393  -33.9455 C   0  0  0  0  0  0  0  0  0  0  0  0
   -6.8700    3.8640  -35.5524 N   0  0  0  0  0  0  0  0  0  0  0  0
   -5.5141    4.8117  -38.7985 N   0  0  0  0  0  0  0  0  0  0  0  0
   -6.0216    6.1164  -36.4955 S   0  0  0  0  0  0  0  0  0  0  0  0
   -5.6756    1.6914  -37.2084 H   0  0  0  0  0  0  0  0  0  0  0  0
   -7.4366    1.7312  -36.9467 H   0  0  0  0  0  0  0  0  0  0  0  0
   -6.7707    2.2786  -38.4843 H   0  0  0  0  0  0  0  0  0  0  0  0
   -6.1352    5.6832  -33.2649 H   0  0  0  0  0  0  0  0  0  0  0  0
   -7.2836    6.7998  -34.0431 H   0  0  0  0  0  0  0  0  0  0  0  0
   -7.8491    5.2374  -33.4543 H   0  0  0  0  0  0  0  0  0  0  0  0
   -5.4457    3.9772  -39.3951 H   0  0  0  0  0  0  0  0  0  0  0  0
   -5.1248    5.6785  -39.1911 H   0  0  0  0  0  0  0  0  0  0  0  0
  1  2  2  0  0  0  0
  1  4  1  0  0  0  0
  1  6  1  0  0  0  0
  2  7  1  0  0  0  0
  2  8  1  0  0  0  0
  3  5  1  0  0  0  0
  3  6  2  0  0  0  0
  3  8  1  0  0  0  0
  4  9  1  0  0  0  0
  4 10  1  0  0  0  0
  4 11  1  0  0  0  0
  5 12  1  0  0  0  0
  5 13  1  0  0  0  0
  5 14  1  0  0  0  0
  7 15  1  0  0  0  0
  7 16  1  0  0  0  0
M  END
> <id>
EN300-399935

> <smiles>
Cl.Cl.CC1=NC(C)=C(N)S1

> <MDLNUMBER>
MFCD30752537

> <IUPAC Name>
dimethyl-1,3-thiazol-5-amine dihydrochloride

> <CAS>
2126178-37-6

> <Purity>
95

> <URL>
https://www.enaminestore.com/catalog/EN300-399935

> <Saltdate>
Cl

> <ROCS_ShapeQuery>
_hit0

> <ROCS_TanimotoCombo>
1.033 

> <ROCS_ShapeTanimoto>
0.434 

> <ROCS_ColorTanimoto>
0.599 

> <ROCS_RefTversky>
1.101 

> <ROCS_RefColorTversky>
0.749 

> <ROCS_RefTverskyCombo>
1.850 

> <ROCS_FitTversky>
0.418 

> <ROCS_FitColorTversky>
0.749 

> <ROCS_FitTverskyCombo>
1.167 

> <ROCS_ColorScore>
-2.996

> <ROCS_Overlap>
131.394

> <ROCS_Rank>
215                 

$$$$
untitled-dbase-8864_0
  -OEChem-06232314393D

 19 19  0     0  0  0  0  0  0999 V2000
   -6.1904    6.1464  -36.8892 C   0  0  0  0  0  0  0  0  0  0  0  0
   -6.3743    3.7772  -36.7905 C   0  0  0  0  0  0  0  0  0  0  0  0
   -6.6996    6.2093  -35.5969 C   0  0  0  0  0  0  0  0  0  0  0  0
   -6.0216    4.9110  -37.5046 C   0  0  0  0  0  0  0  0  0  0  0  0
   -7.0221    5.0174  -34.9683 C   0  0  0  0  0  0  0  0  0  0  0  0
   -7.5730    5.0242  -33.5798 C   0  0  0  0  0  0  0  0  0  0  0  0
   -6.8827    7.5296  -34.9321 C   0  0  0  0  0  0  0  0  0  0  0  0
   -6.8720    3.7986  -35.5338 N   0  0  0  0  0  0  0  0  0  0  0  0
   -5.5100    4.8153  -38.8090 N   0  0  0  0  0  0  0  0  0  0  0  0
   -6.5099    8.5915  -35.7075 F   0  0  0  0  0  0  0  0  0  0  0  0
   -8.1760    7.7890  -34.5743 F   0  0  0  0  0  0  0  0  0  0  0  0
   -6.1561    7.6457  -33.7817 F   0  0  0  0  0  0  0  0  0  0  0  0
   -5.9260    7.0607  -37.4157 H   0  0  0  0  0  0  0  0  0  0  0  0
   -6.2647    2.7848  -37.2177 H   0  0  0  0  0  0  0  0  0  0  0  0
   -8.6671    5.0844  -33.6058 H   0  0  0  0  0  0  0  0  0  0  0  0
   -7.2854    4.1166  -33.0351 H   0  0  0  0  0  0  0  0  0  0  0  0
   -7.1891    5.8765  -33.0057 H   0  0  0  0  0  0  0  0  0  0  0  0
   -5.3536    3.9108  -39.2130 H   0  0  0  0  0  0  0  0  0  0  0  0
   -5.2184    5.6473  -39.2871 H   0  0  0  0  0  0  0  0  0  0  0  0
  1  3  2  0  0  0  0
  1  4  1  0  0  0  0
  2  4  2  0  0  0  0
  2  8  1  0  0  0  0
  3  5  1  0  0  0  0
  3  7  1  0  0  0  0
  4  9  1  0  0  0  0
  5  6  1  0  0  0  0
  5  8  2  0  0  0  0
  7 10  1  0  0  0  0
  7 11  1  0  0  0  0
  7 12  1  0  0  0  0
  1 13  1  0  0  0  0
  2 14  1  0  0  0  0
  6 15  1  0  0  0  0
  6 16  1  0  0  0  0
  6 17  1  0  0  0  0
  9 18  1  0  0  0  0
  9 19  1  0  0  0  0
M  END
> <id>
EN300-1622602

> <smiles>
CC=1N=CC(N)=CC1C(F)(F)F

> <MDLNUMBER>
MFCD20923727

> <IUPAC Name>
6-methyl-5-(trifluoromethyl)pyridin-3-amine

> <CAS>
1402664-67-8

> <Purity>
95

> <URL>
https://www.enaminestore.com/catalog/EN300-1622602

> <ROCS_ShapeQuery>
_hit0

> <ROCS_TanimotoCombo>
1.033 

> <ROCS_ShapeTanimoto>
0.433 

> <ROCS_ColorTanimoto>
0.600 

> <ROCS_RefTversky>
1.503 

> <ROCS_RefColorTversky>
0.750 

> <ROCS_RefTverskyCombo>
2.253 

> <ROCS_FitTversky>
0.378 

> <ROCS_FitColorTversky>
0.750 

> <ROCS_FitTverskyCombo>
1.128 

> <ROCS_ColorScore>
-2.999

> <ROCS_Overlap>
195.236

> <ROCS_Rank>
216                 

$$$$
untitled-dbase-5265_0
  -OEChem-06232314393D

 16 16  0     0  0  0  0  0  0999 V2000
   -5.9630    4.8085  -37.5029 C   0  0  0  0  0  0  0  0  0  0  0  0
   -6.4836    3.6679  -36.8274 C   0  0  0  0  0  0  0  0  0  0  0  0
   -5.9670    5.8998  -36.6615 C   0  0  0  0  0  0  0  0  0  0  0  0
   -6.6325    2.3174  -37.4142 C   0  0  0  0  0  0  0  0  0  0  0  0
   -5.5340    7.2932  -36.8858 C   0  0  0  0  0  0  0  0  0  0  0  0
   -6.8675    3.8311  -35.5636 N   0  0  0  0  0  0  0  0  0  0  0  0
   -5.5269    4.8251  -38.7834 N   0  0  0  0  0  0  0  0  0  0  0  0
   -6.6016    5.4174  -35.1455 S   0  0  0  0  0  0  0  0  0  0  0  0
   -5.7253    1.7154  -37.2509 H   0  0  0  0  0  0  0  0  0  0  0  0
   -7.4840    1.7719  -36.9766 H   0  0  0  0  0  0  0  0  0  0  0  0
   -6.8193    2.3605  -38.4995 H   0  0  0  0  0  0  0  0  0  0  0  0
   -6.3643    7.9107  -37.2655 H   0  0  0  0  0  0  0  0  0  0  0  0
   -5.1614    7.7646  -35.9605 H   0  0  0  0  0  0  0  0  0  0  0  0
   -4.7079    7.3573  -37.6145 H   0  0  0  0  0  0  0  0  0  0  0  0
   -5.4989    3.9737  -39.3612 H   0  0  0  0  0  0  0  0  0  0  0  0
   -5.1155    5.6674  -39.2085 H   0  0  0  0  0  0  0  0  0  0  0  0
  1  2  1  0  0  0  0
  1  3  2  0  0  0  0
  1  7  1  0  0  0  0
  2  4  1  0  0  0  0
  2  6  2  0  0  0  0
  3  5  1  0  0  0  0
  3  8  1  0  0  0  0
  6  8  1  0  0  0  0
  4  9  1  0  0  0  0
  4 10  1  0  0  0  0
  4 11  1  0  0  0  0
  5 12  1  0  0  0  0
  5 13  1  0  0  0  0
  5 14  1  0  0  0  0
  7 15  1  0  0  0  0
  7 16  1  0  0  0  0
M  END
> <id>
EN300-218028

> <smiles>
CC1=NSC(C)=C1N

> <MDLNUMBER>
MFCD19206079

> <IUPAC Name>
dimethyl-1,2-thiazol-4-amine

> <CAS>
23031-84-7

> <URL>
https://www.enaminestore.com/catalog/EN300-218028

> <ROCS_ShapeQuery>
_hit0

> <ROCS_TanimotoCombo>
1.033 

> <ROCS_ShapeTanimoto>
0.434 

> <ROCS_ColorTanimoto>
0.599 

> <ROCS_RefTversky>
1.102 

> <ROCS_RefColorTversky>
0.749 

> <ROCS_RefTverskyCombo>
1.851 

> <ROCS_FitTversky>
0.417 

> <ROCS_FitColorTversky>
0.749 

> <ROCS_FitTverskyCombo>
1.166 

> <ROCS_ColorScore>
-2.997

> <ROCS_Overlap>
131.501

> <ROCS_Rank>
217                 

$$$$
untitled-dbase-37949_0
  -OEChem-06232314393D

 16 16  0     0  0  0  0  0  0999 V2000
   -5.9630    4.8085  -37.5029 C   0  0  0  0  0  0  0  0  0  0  0  0
   -6.4836    3.6679  -36.8274 C   0  0  0  0  0  0  0  0  0  0  0  0
   -5.9670    5.8998  -36.6615 C   0  0  0  0  0  0  0  0  0  0  0  0
   -6.6325    2.3174  -37.4142 C   0  0  0  0  0  0  0  0  0  0  0  0
   -5.5340    7.2932  -36.8858 C   0  0  0  0  0  0  0  0  0  0  0  0
   -6.8675    3.8311  -35.5636 N   0  0  0  0  0  0  0  0  0  0  0  0
   -5.5269    4.8251  -38.7834 N   0  0  0  0  0  0  0  0  0  0  0  0
   -6.6016    5.4174  -35.1455 S   0  0  0  0  0  0  0  0  0  0  0  0
   -5.7253    1.7154  -37.2509 H   0  0  0  0  0  0  0  0  0  0  0  0
   -7.4840    1.7719  -36.9766 H   0  0  0  0  0  0  0  0  0  0  0  0
   -6.8193    2.3605  -38.4995 H   0  0  0  0  0  0  0  0  0  0  0  0
   -6.3643    7.9107  -37.2655 H   0  0  0  0  0  0  0  0  0  0  0  0
   -5.1614    7.7646  -35.9605 H   0  0  0  0  0  0  0  0  0  0  0  0
   -4.7079    7.3573  -37.6145 H   0  0  0  0  0  0  0  0  0  0  0  0
   -5.4989    3.9737  -39.3612 H   0  0  0  0  0  0  0  0  0  0  0  0
   -5.1155    5.6674  -39.2085 H   0  0  0  0  0  0  0  0  0  0  0  0
  1  2  1  0  0  0  0
  1  3  2  0  0  0  0
  1  7  1  0  0  0  0
  2  4  1  0  0  0  0
  2  6  2  0  0  0  0
  3  5  1  0  0  0  0
  3  8  1  0  0  0  0
  6  8  1  0  0  0  0
  4  9  1  0  0  0  0
  4 10  1  0  0  0  0
  4 11  1  0  0  0  0
  5 12  1  0  0  0  0
  5 13  1  0  0  0  0
  5 14  1  0  0  0  0
  7 15  1  0  0  0  0
  7 16  1  0  0  0  0
M  END
> <id>
EN300-218027

> <smiles>
Cl.CC1=NSC(C)=C1N

> <MDLNUMBER>
MFCD28714809

> <IUPAC Name>
dimethyl-1,2-thiazol-4-amine hydrochloride

> <CAS>
1803590-58-0

> <Purity>
95

> <URL>
https://www.enaminestore.com/catalog/EN300-218027

> <Saltdate>
Cl

> <ROCS_ShapeQuery>
_hit0

> <ROCS_TanimotoCombo>
1.033 

> <ROCS_ShapeTanimoto>
0.434 

> <ROCS_ColorTanimoto>
0.599 

> <ROCS_RefTversky>
1.102 

> <ROCS_RefColorTversky>
0.749 

> <ROCS_RefTverskyCombo>
1.851 

> <ROCS_FitTversky>
0.417 

> <ROCS_FitColorTversky>
0.749 

> <ROCS_FitTverskyCombo>
1.166 

> <ROCS_ColorScore>
-2.997

> <ROCS_Overlap>
131.501

> <ROCS_Rank>
218                 

$$$$
untitled-dbase-4623_0
  -OEChem-06232314393D

 14 14  0     0  0  0  0  0  0999 V2000
   -5.9606    6.1361  -36.7895 C   0  0  0  0  0  0  0  0  0  0  0  0
   -6.8625    5.0494  -34.8885 C   0  0  0  0  0  0  0  0  0  0  0  0
   -6.4114    6.2104  -35.4833 C   0  0  0  0  0  0  0  0  0  0  0  0
   -5.9904    4.9055  -37.4142 C   0  0  0  0  0  0  0  0  0  0  0  0
   -6.4105    7.5009  -34.7440 C   0  0  0  0  0  0  0  0  0  0  0  0
   -6.8804    3.8585  -35.5239 N   0  0  0  0  0  0  0  0  0  0  0  0
   -6.4370    3.7854  -36.8076 N   0  0  0  0  0  0  0  0  0  0  0  0
   -5.5533    4.7896  -38.7051 O   0  0  0  0  0  0  0  0  0  0  0  0
   -5.5948    7.0165  -37.3079 H   0  0  0  0  0  0  0  0  0  0  0  0
   -7.2301    5.0339  -33.8684 H   0  0  0  0  0  0  0  0  0  0  0  0
   -7.3611    8.0310  -34.8913 H   0  0  0  0  0  0  0  0  0  0  0  0
   -6.2656    7.3468  -33.6652 H   0  0  0  0  0  0  0  0  0  0  0  0
   -5.5946    8.1567  -35.0799 H   0  0  0  0  0  0  0  0  0  0  0  0
   -5.6366    3.8713  -39.0002 H   0  0  0  0  0  0  0  0  0  0  0  0
  1  3  1  0  0  0  0
  1  4  2  0  0  0  0
  2  3  2  0  0  0  0
  2  6  1  0  0  0  0
  3  5  1  0  0  0  0
  4  7  1  0  0  0  0
  4  8  1  0  0  0  0
  6  7  2  0  0  0  0
  1  9  1  0  0  0  0
  2 10  1  0  0  0  0
  5 11  1  0  0  0  0
  5 12  1  0  0  0  0
  5 13  1  0  0  0  0
  8 14  1  0  0  0  0
M  END
> <id>
EN300-97401

> <smiles>
CC=1C=NN=C(O)C1

> <MDLNUMBER>
MFCD10698050

> <IUPAC Name>
5-methylpyridazin-3-ol

> <CAS>
54709-94-3

> <Purity>
95

> <URL>
https://www.enaminestore.com/catalog/EN300-97401

> <MP>
151-154

> <ROCS_ShapeQuery>
_hit0

> <ROCS_TanimotoCombo>
1.033 

> <ROCS_ShapeTanimoto>
0.525 

> <ROCS_ColorTanimoto>
0.508 

> <ROCS_RefTversky>
1.303 

> <ROCS_RefColorTversky>
0.773 

> <ROCS_RefTverskyCombo>
2.075 

> <ROCS_FitTversky>
0.468 

> <ROCS_FitColorTversky>
0.597 

> <ROCS_FitTverskyCombo>
1.065 

> <ROCS_ColorScore>
-3.141

> <ROCS_Overlap>
156.869

> <ROCS_Rank>
219                 

$$$$
untitled-dbase-4280_0
  -OEChem-06232314393D

 14 14  0     0  0  0  0  0  0999 V2000
   -5.9606    6.1361  -36.7895 C   0  0  0  0  0  0  0  0  0  0  0  0
   -6.8625    5.0494  -34.8885 C   0  0  0  0  0  0  0  0  0  0  0  0
   -6.4114    6.2104  -35.4833 C   0  0  0  0  0  0  0  0  0  0  0  0
   -5.9904    4.9055  -37.4142 C   0  0  0  0  0  0  0  0  0  0  0  0
   -6.4105    7.5009  -34.7440 C   0  0  0  0  0  0  0  0  0  0  0  0
   -6.8804    3.8585  -35.5239 N   0  0  0  0  0  0  0  0  0  0  0  0
   -6.4370    3.7854  -36.8076 N   0  0  0  0  0  0  0  0  0  0  0  0
   -5.5533    4.7896  -38.7051 O   0  0  0  0  0  0  0  0  0  0  0  0
   -5.5948    7.0165  -37.3079 H   0  0  0  0  0  0  0  0  0  0  0  0
   -7.2301    5.0339  -33.8684 H   0  0  0  0  0  0  0  0  0  0  0  0
   -7.3611    8.0310  -34.8913 H   0  0  0  0  0  0  0  0  0  0  0  0
   -6.2656    7.3468  -33.6652 H   0  0  0  0  0  0  0  0  0  0  0  0
   -5.5946    8.1567  -35.0799 H   0  0  0  0  0  0  0  0  0  0  0  0
   -5.6366    3.8713  -39.0002 H   0  0  0  0  0  0  0  0  0  0  0  0
  1  3  1  0  0  0  0
  1  4  2  0  0  0  0
  2  3  2  0  0  0  0
  2  6  1  0  0  0  0
  3  5  1  0  0  0  0
  4  7  1  0  0  0  0
  4  8  1  0  0  0  0
  6  7  2  0  0  0  0
  1  9  1  0  0  0  0
  2 10  1  0  0  0  0
  5 11  1  0  0  0  0
  5 12  1  0  0  0  0
  5 13  1  0  0  0  0
  8 14  1  0  0  0  0
M  END
> <id>
EN300-181460

> <smiles>
Cl.CC=1C=NN=C(O)C1

> <MDLNUMBER>
MFCD18249978

> <IUPAC Name>
5-methylpyridazin-3-ol hydrochloride

> <CAS>
1260667-55-7

> <URL>
https://www.enaminestore.com/catalog/EN300-181460

> <Saltdate>
Cl

> <ROCS_ShapeQuery>
_hit0

> <ROCS_TanimotoCombo>
1.033 

> <ROCS_ShapeTanimoto>
0.525 

> <ROCS_ColorTanimoto>
0.508 

> <ROCS_RefTversky>
1.303 

> <ROCS_RefColorTversky>
0.773 

> <ROCS_RefTverskyCombo>
2.075 

> <ROCS_FitTversky>
0.468 

> <ROCS_FitColorTversky>
0.597 

> <ROCS_FitTverskyCombo>
1.065 

> <ROCS_ColorScore>
-3.141

> <ROCS_Overlap>
156.869

> <ROCS_Rank>
220                 

$$$$
untitled-dbase-41632_0
  -OEChem-06232314393D

 12 12  0     0  0  0  0  0  0999 V2000
   -5.9551    6.1294  -36.8332 C   0  0  0  0  0  0  0  0  0  0  0  0
   -6.4103    3.7950  -36.8348 C   0  0  0  0  0  0  0  0  0  0  0  0
   -6.8553    5.0111  -34.9371 C   0  0  0  0  0  0  0  0  0  0  0  0
   -5.9494    4.9143  -37.5090 C   0  0  0  0  0  0  0  0  0  0  0  0
   -6.4151    6.1873  -35.5223 C   0  0  0  0  0  0  0  0  0  0  0  0
   -6.8647    3.8121  -35.5617 N   0  0  0  0  0  0  0  0  0  0  0  0
   -5.5065    4.8274  -38.7877 O   0  0  0  0  0  0  0  0  0  0  0  0
   -6.4417    7.9712  -34.4801 I   0  0  0  0  0  0  0  0  0  0  0  0
   -5.5981    7.0224  -37.3405 H   0  0  0  0  0  0  0  0  0  0  0  0
   -6.4285    2.8208  -37.3134 H   0  0  0  0  0  0  0  0  0  0  0  0
   -7.2274    4.9835  -33.9172 H   0  0  0  0  0  0  0  0  0  0  0  0
   -5.2204    5.6990  -39.1099 H   0  0  0  0  0  0  0  0  0  0  0  0
  1  4  1  0  0  0  0
  1  5  2  0  0  0  0
  2  4  2  0  0  0  0
  2  6  1  0  0  0  0
  3  5  1  0  0  0  0
  3  6  2  0  0  0  0
  4  7  1  0  0  0  0
  5  8  1  0  0  0  0
  1  9  1  0  0  0  0
  2 10  1  0  0  0  0
  3 11  1  0  0  0  0
  7 12  1  0  0  0  0
M  END
> <id>
EN300-1654528

> <smiles>
OC=1C=NC=C(I)C1

> <MDLNUMBER>
MFCD10574981

> <IUPAC Name>
5-iodopyridin-3-ol

> <CAS>
213765-61-8

> <Purity>
95

> <URL>
https://www.enaminestore.com/catalog/EN300-1654528

> <MP>
208-209

> <ROCS_ShapeQuery>
_hit0

> <ROCS_TanimotoCombo>
1.033 

> <ROCS_ShapeTanimoto>
0.533 

> <ROCS_ColorTanimoto>
0.499 

> <ROCS_RefTversky>
1.279 

> <ROCS_RefColorTversky>
0.740 

> <ROCS_RefTverskyCombo>
2.019 

> <ROCS_FitTversky>
0.478 

> <ROCS_FitColorTversky>
0.606 

> <ROCS_FitTverskyCombo>
1.083 

> <ROCS_ColorScore>
-2.998

> <ROCS_Overlap>
152.973

> <ROCS_Rank>
221                 

$$$$
untitled-dbase-18043_0
  -OEChem-06232314393D

 23 23  0     1  0  0  0  0  0999 V2000
   -6.3918    4.6080  -35.9599 C   0  0  0  0  0  0  0  0  0  0  0  0
   -7.0675    8.8025  -37.0701 C   0  0  0  0  0  0  0  0  0  0  0  0
   -7.1435    7.7787  -35.9404 C   0  0  0  0  0  0  0  0  0  0  0  0
   -7.0561    8.2142  -38.4755 C   0  0  0  0  0  0  0  0  0  0  0  0
   -5.8402    7.0009  -35.7620 C   0  0  0  0  0  0  0  0  0  0  0  0
   -5.9504    7.1980  -38.7529 C   0  0  0  0  0  0  0  0  0  0  0  0
   -5.7016    5.7385  -36.6248 C   0  0  2  0  0  0  0  0  0  0  0  0
   -6.1984    5.8458  -38.0783 C   0  0  2  0  0  0  0  0  0  0  0  0
   -6.9321    3.7229  -35.4394 N   0  0  0  0  0  0  0  0  0  0  0  0
   -5.5010    4.8406  -38.8290 O   0  0  0  0  0  0  0  0  0  0  0  0
   -7.9349    9.4699  -36.9901 H   0  0  0  0  0  0  0  0  0  0  0  0
   -6.1832    9.4375  -36.9340 H   0  0  0  0  0  0  0  0  0  0  0  0
   -7.3312    8.3334  -35.0121 H   0  0  0  0  0  0  0  0  0  0  0  0
   -7.9978    7.1064  -36.0776 H   0  0  0  0  0  0  0  0  0  0  0  0
   -8.0330    7.7631  -38.6895 H   0  0  0  0  0  0  0  0  0  0  0  0
   -6.9450    9.0440  -39.1850 H   0  0  0  0  0  0  0  0  0  0  0  0
   -4.9906    7.6660  -35.9644 H   0  0  0  0  0  0  0  0  0  0  0  0
   -5.7455    6.7242  -34.7027 H   0  0  0  0  0  0  0  0  0  0  0  0
   -5.9083    7.0443  -39.8398 H   0  0  0  0  0  0  0  0  0  0  0  0
   -4.9674    7.5993  -38.4781 H   0  0  0  0  0  0  0  0  0  0  0  0
   -4.6331    5.4754  -36.6403 H   0  0  0  0  0  0  0  0  0  0  0  0
   -7.2661    5.5932  -38.1461 H   0  0  0  0  0  0  0  0  0  0  0  0
   -5.8716    4.8708  -39.7214 H   0  0  0  0  0  0  0  0  0  0  0  0
  1  7  1  1  0  0  0
  1  9  3  0  0  0  0
  2  3  1  0  0  0  0
  2  4  1  0  0  0  0
  3  5  1  0  0  0  0
  4  6  1  0  0  0  0
  5  7  1  0  0  0  0
  6  8  1  0  0  0  0
  7  8  1  0  0  0  0
  8 10  1  6  0  0  0
  2 11  1  0  0  0  0
  2 12  1  0  0  0  0
  3 13  1  0  0  0  0
  3 14  1  0  0  0  0
  4 15  1  0  0  0  0
  4 16  1  0  0  0  0
  5 17  1  0  0  0  0
  5 18  1  0  0  0  0
  6 19  1  0  0  0  0
  6 20  1  0  0  0  0
  7 21  1  0  0  0  0
  8 22  1  0  0  0  0
 10 23  1  0  0  0  0
M  END
> <id>
EN300-89916

> <smiles>
O[C@@H]1CCCCC[C@H]1C#N

> <MDLNUMBER>
MFCD19442752

> <IUPAC Name>
(1S,2R)-2-hydroxycycloheptane-1-carbonitrile

> <CAS>
331753-60-7

> <URL>
https://www.enaminestore.com/catalog/EN300-89916

> <ROCS_ShapeQuery>
_hit0

> <ROCS_TanimotoCombo>
1.032 

> <ROCS_ShapeTanimoto>
0.439 

> <ROCS_ColorTanimoto>
0.593 

> <ROCS_RefTversky>
1.263 

> <ROCS_RefColorTversky>
0.744 

> <ROCS_RefTverskyCombo>
2.008 

> <ROCS_FitTversky>
0.402 

> <ROCS_FitColorTversky>
0.744 

> <ROCS_FitTverskyCombo>
1.147 

> <ROCS_ColorScore>
-2.978

> <ROCS_Overlap>
155.540

> <ROCS_Rank>
222                 

$$$$
untitled-dbase-42683_0
  -OEChem-06232314393D

  9  9  0     0  0  0  0  0  0999 V2000
   -5.7297    6.6161  -37.0912 C   0  0  0  0  0  0  0  0  0  0  0  0
   -5.8341    5.3434  -37.5668 C   0  0  0  0  0  0  0  0  0  0  0  0
   -6.2689    6.2550  -35.7854 C   0  0  0  0  0  0  0  0  0  0  0  0
   -6.3876    4.8754  -36.2870 C   0  0  0  0  0  0  0  0  0  0  0  0
   -6.5432    6.7348  -34.7172 O   0  0  0  0  0  0  0  0  0  0  0  0
   -6.7910    3.8751  -35.7539 O   0  0  0  0  0  0  0  0  0  0  0  0
   -5.5627    4.7748  -38.6776 O   0  0  0  0  0  0  0  0  0  0  0  0
   -5.3692    7.5316  -37.5556 H   0  0  0  0  0  0  0  0  0  0  0  0
   -5.7592    3.7929  -38.7168 H   0  0  0  0  0  0  0  0  0  0  0  0
  1  2  2  0  0  0  0
  1  3  1  0  0  0  0
  2  4  1  0  0  0  0
  2  7  1  0  0  0  0
  3  4  1  0  0  0  0
  3  5  2  0  0  0  0
  4  6  2  0  0  0  0
  1  8  1  0  0  0  0
  7  9  1  0  0  0  0
M  END
> <id>
EN300-92006

> <smiles>
OC1=CC(=O)C1=O

> <MDLNUMBER>
MFCD01714659

> <IUPAC Name>
3-hydroxycyclobut-3-ene-1,2-dione

> <CAS>
31876-38-7

> <Purity>
95

> <URL>
https://www.enaminestore.com/catalog/EN300-92006

> <MP>
158-163

> <ROCS_ShapeQuery>
_hit0

> <ROCS_TanimotoCombo>
1.031 

> <ROCS_ShapeTanimoto>
0.555 

> <ROCS_ColorTanimoto>
0.476 

> <ROCS_RefTversky>
1.250 

> <ROCS_RefColorTversky>
0.717 

> <ROCS_RefTverskyCombo>
1.968 

> <ROCS_FitTversky>
0.499 

> <ROCS_FitColorTversky>
0.587 

> <ROCS_FitTverskyCombo>
1.086 

> <ROCS_ColorScore>
-2.905

> <ROCS_Overlap>
147.980

> <ROCS_Rank>
223                 

$$$$
untitled-dbase-16848_0
  -OEChem-06232314393D

 16 16  0     0  0  0  0  0  0999 V2000
   -6.1917    6.1455  -36.8959 C   0  0  0  0  0  0  0  0  0  0  0  0
   -6.3759    3.7765  -36.7932 C   0  0  0  0  0  0  0  0  0  0  0  0
   -6.7015    6.2107  -35.6039 C   0  0  0  0  0  0  0  0  0  0  0  0
   -6.0227    4.9091  -37.5090 C   0  0  0  0  0  0  0  0  0  0  0  0
   -7.0245    5.0199  -34.9735 C   0  0  0  0  0  0  0  0  0  0  0  0
   -6.8916    7.5208  -34.9247 C   0  0  0  0  0  0  0  0  0  0  0  0
   -6.8742    3.8002  -35.5367 N   0  0  0  0  0  0  0  0  0  0  0  0
   -5.5095    4.8114  -38.8125 N   0  0  0  0  0  0  0  0  0  0  0  0
   -7.5194    5.0582  -33.7257 F   0  0  0  0  0  0  0  0  0  0  0  0
   -6.5230    8.5950  -35.6864 F   0  0  0  0  0  0  0  0  0  0  0  0
   -8.1867    7.7714  -34.5649 F   0  0  0  0  0  0  0  0  0  0  0  0
   -6.1672    7.6283  -33.7713 F   0  0  0  0  0  0  0  0  0  0  0  0
   -5.9262    7.0587  -37.4230 H   0  0  0  0  0  0  0  0  0  0  0  0
   -6.2677    2.7834  -37.2185 H   0  0  0  0  0  0  0  0  0  0  0  0
   -5.3052    5.6478  -39.3269 H   0  0  0  0  0  0  0  0  0  0  0  0
   -5.4413    3.9116  -39.2502 H   0  0  0  0  0  0  0  0  0  0  0  0
  1  3  2  0  0  0  0
  1  4  1  0  0  0  0
  2  4  2  0  0  0  0
  2  7  1  0  0  0  0
  3  5  1  0  0  0  0
  3  6  1  0  0  0  0
  4  8  1  0  0  0  0
  5  7  2  0  0  0  0
  5  9  1  0  0  0  0
  6 10  1  0  0  0  0
  6 11  1  0  0  0  0
  6 12  1  0  0  0  0
  1 13  1  0  0  0  0
  2 14  1  0  0  0  0
  8 15  1  0  0  0  0
  8 16  1  0  0  0  0
M  END
> <id>
EN300-1296197

> <smiles>
NC=1C=NC(F)=C(C1)C(F)(F)F

> <MDLNUMBER>
MFCD28723943

> <IUPAC Name>
6-fluoro-5-(trifluoromethyl)pyridin-3-amine

> <CAS>
1804454-81-6

> <URL>
https://www.enaminestore.com/catalog/EN300-1296197

> <ROCS_ShapeQuery>
_hit0

> <ROCS_TanimotoCombo>
1.031 

> <ROCS_ShapeTanimoto>
0.431 

> <ROCS_ColorTanimoto>
0.600 

> <ROCS_RefTversky>
1.507 

> <ROCS_RefColorTversky>
0.750 

> <ROCS_RefTverskyCombo>
2.257 

> <ROCS_FitTversky>
0.376 

> <ROCS_FitColorTversky>
0.750 

> <ROCS_FitTverskyCombo>
1.126 

> <ROCS_ColorScore>
-2.999

> <ROCS_Overlap>
196.253

> <ROCS_Rank>
224                 

$$$$
untitled-dbase-15234_0
  -OEChem-06232314393D

 15 15  0     0  0  0  0  0  0999 V2000
   -6.4305    5.9934  -35.7380 C   0  0  0  0  0  0  0  0  0  0  0  0
   -5.9249    5.2465  -36.5309 C   0  0  0  0  0  0  0  0  0  0  0  0
   -7.4310    8.2641  -35.2458 C   0  0  0  0  0  0  0  0  0  0  0  0
   -6.2558    8.0884  -34.3309 C   0  0  0  0  0  0  0  0  0  0  0  0
   -7.0457    6.9032  -34.7728 C   0  0  0  0  0  0  0  0  0  0  0  0
   -5.3084    4.3353  -37.4945 C   0  0  0  0  0  0  0  0  0  0  0  0
   -5.5191    4.8187  -38.8136 O   0  0  0  0  0  0  0  0  0  0  0  0
   -8.3347    8.6916  -34.8277 H   0  0  0  0  0  0  0  0  0  0  0  0
   -7.2316    8.5598  -36.2690 H   0  0  0  0  0  0  0  0  0  0  0  0
   -5.2686    8.2668  -34.7408 H   0  0  0  0  0  0  0  0  0  0  0  0
   -6.3699    8.3960  -33.2983 H   0  0  0  0  0  0  0  0  0  0  0  0
   -7.6744    6.4151  -34.0533 H   0  0  0  0  0  0  0  0  0  0  0  0
   -5.7466    3.3356  -37.4173 H   0  0  0  0  0  0  0  0  0  0  0  0
   -4.2307    4.2595  -37.3209 H   0  0  0  0  0  0  0  0  0  0  0  0
   -5.1071    5.6968  -38.8600 H   0  0  0  0  0  0  0  0  0  0  0  0
  1  2  3  0  0  0  0
  1  5  1  0  0  0  0
  2  6  1  0  0  0  0
  3  4  1  0  0  0  0
  3  5  1  0  0  0  0
  4  5  1  0  0  0  0
  6  7  1  0  0  0  0
  3  8  1  0  0  0  0
  3  9  1  0  0  0  0
  4 10  1  0  0  0  0
  4 11  1  0  0  0  0
  5 12  1  0  0  0  0
  6 13  1  0  0  0  0
  6 14  1  0  0  0  0
  7 15  1  0  0  0  0
M  END
> <id>
EN300-219953

> <smiles>
OCC#CC1CC1

> <MDLNUMBER>
MFCD06654125

> <IUPAC Name>
3-cyclopropylprop-2-yn-1-ol

> <CAS>
101974-69-0

> <Purity>
95

> <URL>
https://www.enaminestore.com/catalog/EN300-219953

> <ROCS_ShapeQuery>
_hit0

> <ROCS_TanimotoCombo>
1.030 

> <ROCS_ShapeTanimoto>
0.531 

> <ROCS_ColorTanimoto>
0.500 

> <ROCS_RefTversky>
1.132 

> <ROCS_RefColorTversky>
0.513 

> <ROCS_RefTverskyCombo>
1.645 

> <ROCS_FitTversky>
0.500 

> <ROCS_FitColorTversky>
0.952 

> <ROCS_FitTverskyCombo>
1.452 

> <ROCS_ColorScore>
-2.000

> <ROCS_Overlap>
132.106

> <ROCS_Rank>
225                 

$$$$
untitled-dbase-38618_0
  -OEChem-06232314393D

 19 19  0     0  0  0  0  0  0999 V2000
   -6.1919    6.1363  -36.8964 C   0  0  0  0  0  0  0  0  0  0  0  0
   -7.0233    5.0188  -34.9686 C   0  0  0  0  0  0  0  0  0  0  0  0
   -6.7002    6.2069  -35.6042 C   0  0  0  0  0  0  0  0  0  0  0  0
   -6.0246    4.8973  -37.5050 C   0  0  0  0  0  0  0  0  0  0  0  0
   -6.3778    3.7679  -36.7842 C   0  0  0  0  0  0  0  0  0  0  0  0
   -6.2208    2.4085  -37.3844 C   0  0  0  0  0  0  0  0  0  0  0  0
   -6.8909    7.5168  -34.9255 C   0  0  0  0  0  0  0  0  0  0  0  0
   -6.8747    3.7968  -35.5273 N   0  0  0  0  0  0  0  0  0  0  0  0
   -5.5104    4.8149  -38.8114 N   0  0  0  0  0  0  0  0  0  0  0  0
   -6.5242    8.5913  -35.6879 F   0  0  0  0  0  0  0  0  0  0  0  0
   -8.1860    7.7664  -34.5645 F   0  0  0  0  0  0  0  0  0  0  0  0
   -6.1656    7.6258  -33.7727 F   0  0  0  0  0  0  0  0  0  0  0  0
   -5.9279    7.0478  -37.4275 H   0  0  0  0  0  0  0  0  0  0  0  0
   -7.4224    5.0117  -33.9590 H   0  0  0  0  0  0  0  0  0  0  0  0
   -5.2266    2.0067  -37.1581 H   0  0  0  0  0  0  0  0  0  0  0  0
   -6.9758    1.7147  -36.9953 H   0  0  0  0  0  0  0  0  0  0  0  0
   -6.3464    2.4401  -38.4735 H   0  0  0  0  0  0  0  0  0  0  0  0
   -5.3503    3.9148  -39.2212 H   0  0  0  0  0  0  0  0  0  0  0  0
   -5.2224    5.6524  -39.2801 H   0  0  0  0  0  0  0  0  0  0  0  0
  1  3  1  0  0  0  0
  1  4  2  0  0  0  0
  2  3  2  0  0  0  0
  2  8  1  0  0  0  0
  3  7  1  0  0  0  0
  4  5  1  0  0  0  0
  4  9  1  0  0  0  0
  5  6  1  0  0  0  0
  5  8  2  0  0  0  0
  7 10  1  0  0  0  0
  7 11  1  0  0  0  0
  7 12  1  0  0  0  0
  1 13  1  0  0  0  0
  2 14  1  0  0  0  0
  6 15  1  0  0  0  0
  6 16  1  0  0  0  0
  6 17  1  0  0  0  0
  9 18  1  0  0  0  0
  9 19  1  0  0  0  0
M  END
> <id>
EN300-154067

> <smiles>
CC=1N=CC(=CC1N)C(F)(F)F

> <MDLNUMBER>
MFCD18250732

> <IUPAC Name>
2-methyl-5-(trifluoromethyl)pyridin-3-amine

> <CAS>
945971-08-4

> <URL>
https://www.enaminestore.com/catalog/EN300-154067

> <ROCS_ShapeQuery>
_hit0

> <ROCS_TanimotoCombo>
1.030 

> <ROCS_ShapeTanimoto>
0.431 

> <ROCS_ColorTanimoto>
0.600 

> <ROCS_RefTversky>
1.493 

> <ROCS_RefColorTversky>
0.750 

> <ROCS_RefTverskyCombo>
2.243 

> <ROCS_FitTversky>
0.377 

> <ROCS_FitColorTversky>
0.750 

> <ROCS_FitTverskyCombo>
1.127 

> <ROCS_ColorScore>
-2.999

> <ROCS_Overlap>
193.766

> <ROCS_Rank>
226                 

$$$$
untitled-dbase-40372_0
  -OEChem-06232314393D

 13 13  0     1  0  0  0  0  0999 V2000
   -6.2395    4.2735  -36.4644 C   0  0  0  0  0  0  0  0  0  0  0  0
   -6.4944    5.7393  -36.6834 C   0  0  2  0  0  0  0  0  0  0  0  0
   -5.3478    5.0619  -37.3850 C   0  0  2  0  0  0  0  0  0  0  0  0
   -6.2309    6.7169  -35.5910 C   0  0  0  0  0  0  0  0  0  0  0  0
   -5.5230    4.8194  -38.7898 O   0  0  0  0  0  0  0  0  0  0  0  0
   -5.8261    3.9555  -35.5150 H   0  0  0  0  0  0  0  0  0  0  0  0
   -6.9369    3.5704  -36.9036 H   0  0  0  0  0  0  0  0  0  0  0  0
   -7.3615    6.0152  -37.2716 H   0  0  0  0  0  0  0  0  0  0  0  0
   -4.3413    5.2697  -37.0414 H   0  0  0  0  0  0  0  0  0  0  0  0
   -5.3483    6.4329  -34.9950 H   0  0  0  0  0  0  0  0  0  0  0  0
   -7.0832    6.7900  -34.8961 H   0  0  0  0  0  0  0  0  0  0  0  0
   -6.0451    7.7287  -35.9865 H   0  0  0  0  0  0  0  0  0  0  0  0
   -4.8875    5.3928  -39.2391 H   0  0  0  0  0  0  0  0  0  0  0  0
  1  2  1  0  0  0  0
  1  3  1  0  0  0  0
  2  3  1  0  0  0  0
  2  4  1  6  0  0  0
  3  5  1  1  0  0  0
  1  6  1  0  0  0  0
  1  7  1  0  0  0  0
  2  8  1  0  0  0  0
  3  9  1  0  0  0  0
  4 10  1  0  0  0  0
  4 11  1  0  0  0  0
  4 12  1  0  0  0  0
  5 13  1  0  0  0  0
M  END
> <id>
EN300-7258123

> <smiles>
C[C@@H]1C[C@H]1O |&1:1,3,r|

> <IUPAC Name>
rac-(1R,2R)-2-methylcyclopropan-1-ol

> <CAS>
22373-64-4

> <Purity>
91

> <URL>
https://www.enaminestore.com/catalog/EN300-7258123

> <ROCS_ShapeQuery>
_hit0

> <ROCS_TanimotoCombo>
1.030 

> <ROCS_ShapeTanimoto>
0.530 

> <ROCS_ColorTanimoto>
0.500 

> <ROCS_RefTversky>
0.918 

> <ROCS_RefColorTversky>
0.513 

> <ROCS_RefTverskyCombo>
1.431 

> <ROCS_FitTversky>
0.556 

> <ROCS_FitColorTversky>
0.952 

> <ROCS_FitTverskyCombo>
1.509 

> <ROCS_ColorScore>
-2.000

> <ROCS_Overlap>
103.350

> <ROCS_Rank>
227                 

$$$$
untitled-dbase-18857_0
  -OEChem-06232314393D

 13 13  0     1  0  0  0  0  0999 V2000
   -6.2399    4.2737  -36.4646 C   0  0  0  0  0  0  0  0  0  0  0  0
   -6.4947    5.7394  -36.6835 C   0  0  2  0  0  0  0  0  0  0  0  0
   -5.3479    5.0619  -37.3849 C   0  0  2  0  0  0  0  0  0  0  0  0
   -6.2312    6.7171  -35.5912 C   0  0  0  0  0  0  0  0  0  0  0  0
   -5.5230    4.8194  -38.7898 O   0  0  0  0  0  0  0  0  0  0  0  0
   -5.8266    3.9558  -35.5150 H   0  0  0  0  0  0  0  0  0  0  0  0
   -6.9372    3.5704  -36.9039 H   0  0  0  0  0  0  0  0  0  0  0  0
   -7.3614    6.0155  -37.2721 H   0  0  0  0  0  0  0  0  0  0  0  0
   -4.3414    5.2693  -37.0410 H   0  0  0  0  0  0  0  0  0  0  0  0
   -5.3490    6.4329  -34.9948 H   0  0  0  0  0  0  0  0  0  0  0  0
   -7.0838    6.7907  -34.8967 H   0  0  0  0  0  0  0  0  0  0  0  0
   -6.0449    7.7288  -35.9868 H   0  0  0  0  0  0  0  0  0  0  0  0
   -4.8873    5.3926  -39.2389 H   0  0  0  0  0  0  0  0  0  0  0  0
  1  2  1  0  0  0  0
  1  3  1  0  0  0  0
  2  3  1  0  0  0  0
  2  4  1  0  0  0  0
  3  5  1  0  0  0  0
  1  6  1  0  0  0  0
  1  7  1  0  0  0  0
  2  8  1  0  0  0  0
  3  9  1  0  0  0  0
  4 10  1  0  0  0  0
  4 11  1  0  0  0  0
  4 12  1  0  0  0  0
  5 13  1  0  0  0  0
M  END
> <id>
EN300-1600492

> <smiles>
CC1CC1O

> <MDLNUMBER>
MFCD28652384

> <IUPAC Name>
2-methylcyclopropan-1-ol

> <CAS>
62808-70-2

> <Purity>
85

> <URL>
https://www.enaminestore.com/catalog/EN300-1600492

> <ROCS_ShapeQuery>
_hit0

> <ROCS_TanimotoCombo>
1.030 

> <ROCS_ShapeTanimoto>
0.530 

> <ROCS_ColorTanimoto>
0.500 

> <ROCS_RefTversky>
0.918 

> <ROCS_RefColorTversky>
0.513 

> <ROCS_RefTverskyCombo>
1.431 

> <ROCS_FitTversky>
0.556 

> <ROCS_FitColorTversky>
0.952 

> <ROCS_FitTverskyCombo>
1.509 

> <ROCS_ColorScore>
-2.000

> <ROCS_Overlap>
103.349

> <ROCS_Rank>
228                 

$$$$
untitled-dbase-10912_47
  -OEChem-06232314393D

 25 25  0     0  0  0  0  0  0999 V2000
   -6.3573    5.9749  -34.2014 C   0  0  0  0  0  0  0  0  0  0  0  0
   -7.3979    4.9540  -34.6520 C   0  0  0  0  0  0  0  0  0  0  0  0
   -6.5069    7.3462  -34.8563 C   0  0  0  0  0  0  0  0  0  0  0  0
   -6.8272    3.7931  -35.4623 C   0  0  0  0  0  0  0  0  0  0  0  0
   -6.7752    7.3795  -36.3605 C   0  0  0  0  0  0  0  0  0  0  0  0
   -5.8021    4.1123  -36.5509 C   0  0  0  0  0  0  0  0  0  0  0  0
   -5.7888    6.6069  -37.2314 C   0  0  0  0  0  0  0  0  0  0  0  0
   -6.2077    5.1690  -37.5807 C   0  0  0  0  0  0  0  0  0  0  0  0
   -5.5151    4.8194  -38.7904 O   0  0  0  0  0  0  0  0  0  0  0  0
   -6.4663    6.1077  -33.1281 H   0  0  0  0  0  0  0  0  0  0  0  0
   -5.3593    5.5884  -34.3813 H   0  0  0  0  0  0  0  0  0  0  0  0
   -7.8355    4.5305  -33.7386 H   0  0  0  0  0  0  0  0  0  0  0  0
   -8.2250    5.4449  -35.1746 H   0  0  0  0  0  0  0  0  0  0  0  0
   -7.2503    7.9576  -34.3036 H   0  0  0  0  0  0  0  0  0  0  0  0
   -5.5477    7.8783  -34.6853 H   0  0  0  0  0  0  0  0  0  0  0  0
   -6.4359    3.0013  -34.7921 H   0  0  0  0  0  0  0  0  0  0  0  0
   -7.6745    3.2886  -35.9730 H   0  0  0  0  0  0  0  0  0  0  0  0
   -7.7666    6.9315  -36.5365 H   0  0  0  0  0  0  0  0  0  0  0  0
   -6.8800    8.4121  -36.7202 H   0  0  0  0  0  0  0  0  0  0  0  0
   -4.8610    4.3994  -36.0801 H   0  0  0  0  0  0  0  0  0  0  0  0
   -5.5842    3.1890  -37.0924 H   0  0  0  0  0  0  0  0  0  0  0  0
   -5.6595    7.1499  -38.1644 H   0  0  0  0  0  0  0  0  0  0  0  0
   -4.8150    6.5966  -36.7525 H   0  0  0  0  0  0  0  0  0  0  0  0
   -7.2616    5.1108  -37.8007 H   0  0  0  0  0  0  0  0  0  0  0  0
   -4.5729    4.8474  -38.5749 H   0  0  0  0  0  0  0  0  0  0  0  0
  1  2  1  0  0  0  0
  1  3  1  0  0  0  0
  2  4  1  0  0  0  0
  3  5  1  0  0  0  0
  4  6  1  0  0  0  0
  5  7  1  0  0  0  0
  6  8  1  0  0  0  0
  7  8  1  0  0  0  0
  8  9  1  0  0  0  0
  1 10  1  0  0  0  0
  1 11  1  0  0  0  0
  2 12  1  0  0  0  0
  2 13  1  0  0  0  0
  3 14  1  0  0  0  0
  3 15  1  0  0  0  0
  4 16  1  0  0  0  0
  4 17  1  0  0  0  0
  5 18  1  0  0  0  0
  5 19  1  0  0  0  0
  6 20  1  0  0  0  0
  6 21  1  0  0  0  0
  7 22  1  0  0  0  0
  7 23  1  0  0  0  0
  8 24  1  0  0  0  0
  9 25  1  0  0  0  0
M  END
> <id>
EN300-19101

> <smiles>
OC1CCCCCCC1

> <MDLNUMBER>
MFCD00001744

> <IUPAC Name>
cyclooctanol

> <CAS>
696-71-9

> <Purity>
95

> <URL>
https://www.enaminestore.com/catalog/EN300-19101

> <MP>
14-15

> <ROCS_ShapeQuery>
_hit0

> <ROCS_TanimotoCombo>
1.030 

> <ROCS_ShapeTanimoto>
0.530 

> <ROCS_ColorTanimoto>
0.500 

> <ROCS_RefTversky>
1.318 

> <ROCS_RefColorTversky>
0.513 

> <ROCS_RefTverskyCombo>
1.831 

> <ROCS_FitTversky>
0.470 

> <ROCS_FitColorTversky>
0.952 

> <ROCS_FitTverskyCombo>
1.422 

> <ROCS_ColorScore>
-2.000

> <ROCS_Overlap>
158.849

> <ROCS_Rank>
229                 

$$$$
untitled-dbase-25648_5
  -OEChem-06232314393D

 20 20  0     1  0  0  0  0  0999 V2000
   -5.3144    3.2486  -37.0843 C   0  0  0  0  0  0  0  0  0  0  0  0
   -6.0656    5.6432  -36.7192 C   0  0  0  0  0  0  0  0  0  0  0  0
   -6.6991    3.0117  -36.4951 C   0  0  0  0  0  0  0  0  0  0  0  0
   -5.1585    4.7074  -37.5212 C   0  0  2  0  0  0  0  0  0  0  0  0
   -6.2986    5.0871  -35.3161 C   0  0  1  0  0  0  0  0  0  0  0  0
   -7.1500    6.0309  -34.4778 C   0  0  0  0  0  0  0  0  0  0  0  0
   -6.9624    3.8180  -35.3459 O   0  0  0  0  0  0  0  0  0  0  0  0
   -5.4868    4.8460  -38.9011 O   0  0  0  0  0  0  0  0  0  0  0  0
   -4.5338    2.9819  -36.3647 H   0  0  0  0  0  0  0  0  0  0  0  0
   -5.1694    2.5993  -37.9565 H   0  0  0  0  0  0  0  0  0  0  0  0
   -5.6261    6.6461  -36.6777 H   0  0  0  0  0  0  0  0  0  0  0  0
   -7.0199    5.7459  -37.2512 H   0  0  0  0  0  0  0  0  0  0  0  0
   -7.4694    3.2482  -37.2492 H   0  0  0  0  0  0  0  0  0  0  0  0
   -6.8414    1.9475  -36.2302 H   0  0  0  0  0  0  0  0  0  0  0  0
   -4.1104    5.0214  -37.4009 H   0  0  0  0  0  0  0  0  0  0  0  0
   -5.3275    4.9558  -34.7950 H   0  0  0  0  0  0  0  0  0  0  0  0
   -8.1170    6.1873  -34.9567 H   0  0  0  0  0  0  0  0  0  0  0  0
   -6.6485    6.9934  -34.3730 H   0  0  0  0  0  0  0  0  0  0  0  0
   -7.3117    5.6073  -33.4861 H   0  0  0  0  0  0  0  0  0  0  0  0
   -5.3714    5.7839  -39.1231 H   0  0  0  0  0  0  0  0  0  0  0  0
  1  3  1  0  0  0  0
  1  4  1  0  0  0  0
  2  4  1  0  0  0  0
  2  5  1  0  0  0  0
  3  7  1  0  0  0  0
  4  8  1  6  0  0  0
  5  6  1  6  0  0  0
  5  7  1  0  0  0  0
  1  9  1  0  0  0  0
  1 10  1  0  0  0  0
  2 11  1  0  0  0  0
  2 12  1  0  0  0  0
  3 13  1  0  0  0  0
  3 14  1  0  0  0  0
  4 15  1  0  0  0  0
  5 16  1  0  0  0  0
  6 17  1  0  0  0  0
  6 18  1  0  0  0  0
  6 19  1  0  0  0  0
  8 20  1  0  0  0  0
M  END
> <id>
EN300-7242310

> <smiles>
C[C@@H]1C[C@H](O)CCO1 |&1:1,3,r|

> <MDLNUMBER>
MFCD26954631

> <IUPAC Name>
rac-(2R,4R)-2-methyloxan-4-ol

> <CAS>
1821720-33-5

> <Purity>
95

> <URL>
https://www.enaminestore.com/catalog/EN300-7242310

> <ROCS_ShapeQuery>
_hit0

> <ROCS_TanimotoCombo>
1.030 

> <ROCS_ShapeTanimoto>
0.451 

> <ROCS_ColorTanimoto>
0.579 

> <ROCS_RefTversky>
1.128 

> <ROCS_RefColorTversky>
0.733 

> <ROCS_RefTverskyCombo>
1.861 

> <ROCS_FitTversky>
0.429 

> <ROCS_FitColorTversky>
0.733 

> <ROCS_FitTverskyCombo>
1.162 

> <ROCS_ColorScore>
-2.934

> <ROCS_Overlap>
134.528

> <ROCS_Rank>
230                 

$$$$
untitled-dbase-32711_0
  -OEChem-06232314393D

 12 12  0     0  0  0  0  0  0999 V2000
   -6.4072    3.7832  -36.8208 C   0  0  0  0  0  0  0  0  0  0  0  0
   -6.8658    5.0066  -34.9441 C   0  0  0  0  0  0  0  0  0  0  0  0
   -5.9697    4.9237  -37.4575 C   0  0  0  0  0  0  0  0  0  0  0  0
   -6.4277    6.1471  -35.5804 C   0  0  0  0  0  0  0  0  0  0  0  0
   -6.8631    3.8042  -35.5527 N   0  0  0  0  0  0  0  0  0  0  0  0
   -5.9721    6.1261  -36.8487 N   0  0  0  0  0  0  0  0  0  0  0  0
   -5.5078    4.8135  -38.7879 N   0  0  0  0  0  0  0  0  0  0  0  0
   -6.4277    7.6760  -34.8143 Cl  0  0  0  0  0  0  0  0  0  0  0  0
   -6.4094    2.8112  -37.3008 H   0  0  0  0  0  0  0  0  0  0  0  0
   -7.2342    5.0132  -33.9249 H   0  0  0  0  0  0  0  0  0  0  0  0
   -5.4655    3.9112  -39.2142 H   0  0  0  0  0  0  0  0  0  0  0  0
   -5.1441    5.6243  -39.2442 H   0  0  0  0  0  0  0  0  0  0  0  0
  1  3  2  0  0  0  0
  1  5  1  0  0  0  0
  2  4  1  0  0  0  0
  2  5  2  0  0  0  0
  3  6  1  0  0  0  0
  3  7  1  0  0  0  0
  4  6  2  0  0  0  0
  4  8  1  0  0  0  0
  1  9  1  0  0  0  0
  2 10  1  0  0  0  0
  7 11  1  0  0  0  0
  7 12  1  0  0  0  0
M  END
> <id>
EN300-60304

> <smiles>
NC=1C=NC=C(Cl)N1

> <MDLNUMBER>
MFCD00055024

> <IUPAC Name>
6-chloropyrazin-2-amine

> <CAS>
33332-28-4

> <Purity>
95

> <URL>
https://www.enaminestore.com/catalog/EN300-60304

> <MP>
123-125

> <ROCS_ShapeQuery>
_hit0

> <ROCS_TanimotoCombo>
1.029 

> <ROCS_ShapeTanimoto>
0.529 

> <ROCS_ColorTanimoto>
0.500 

> <ROCS_RefTversky>
1.297 

> <ROCS_RefColorTversky>
0.741 

> <ROCS_RefTverskyCombo>
2.039 

> <ROCS_FitTversky>
0.472 

> <ROCS_FitColorTversky>
0.606 

> <ROCS_FitTverskyCombo>
1.077 

> <ROCS_ColorScore>
-3.002

> <ROCS_Overlap>
155.876

> <ROCS_Rank>
231                 

$$$$
untitled-dbase-15178_0
  -OEChem-06232314393D

 13 13  0     0  0  0  0  0  0999 V2000
   -6.2717    6.1501  -35.4340 C   0  0  0  0  0  0  0  0  0  0  0  0
   -6.7792    4.9914  -34.8685 C   0  0  0  0  0  0  0  0  0  0  0  0
   -5.9386    4.9025  -37.4630 C   0  0  0  0  0  0  0  0  0  0  0  0
   -5.8456    6.0964  -36.7564 C   0  0  0  0  0  0  0  0  0  0  0  0
   -6.4608    3.7996  -36.8066 C   0  0  0  0  0  0  0  0  0  0  0  0
   -6.8851    3.8133  -35.5231 N   0  0  0  0  0  0  0  0  0  0  0  0
   -5.5152    4.8157  -38.8048 N   0  0  0  0  0  0  0  0  0  0  0  0
   -5.2104    7.5312  -37.4772 Cl  0  0  0  0  0  0  0  0  0  0  0  0
   -6.6308    2.2629  -37.5649 Cl  0  0  0  0  0  0  0  0  0  0  0  0
   -6.2152    7.0627  -34.8499 H   0  0  0  0  0  0  0  0  0  0  0  0
   -7.1250    4.9806  -33.8401 H   0  0  0  0  0  0  0  0  0  0  0  0
   -5.1862    5.6393  -39.2675 H   0  0  0  0  0  0  0  0  0  0  0  0
   -5.6383    3.9560  -39.3011 H   0  0  0  0  0  0  0  0  0  0  0  0
  1  2  2  0  0  0  0
  1  4  1  0  0  0  0
  2  6  1  0  0  0  0
  3  4  2  0  0  0  0
  3  5  1  0  0  0  0
  3  7  1  0  0  0  0
  4  8  1  0  0  0  0
  5  6  2  0  0  0  0
  5  9  1  0  0  0  0
  1 10  1  0  0  0  0
  2 11  1  0  0  0  0
  7 12  1  0  0  0  0
  7 13  1  0  0  0  0
M  END
> <id>
EN300-104528

> <smiles>
NC=1C(Cl)=CC=NC1Cl

> <MDLNUMBER>
MFCD09750301

> <IUPAC Name>
2,4-dichloropyridin-3-amine

> <CAS>
173772-63-9

> <Purity>
95

> <URL>
https://www.enaminestore.com/catalog/EN300-104528

> <MP>
68-70

> <ROCS_ShapeQuery>
_hit0

> <ROCS_TanimotoCombo>
1.028 

> <ROCS_ShapeTanimoto>
0.428 

> <ROCS_ColorTanimoto>
0.600 

> <ROCS_RefTversky>
1.190 

> <ROCS_RefColorTversky>
0.750 

> <ROCS_RefTverskyCombo>
1.940 

> <ROCS_FitTversky>
0.401 

> <ROCS_FitColorTversky>
0.750 

> <ROCS_FitTverskyCombo>
1.151 

> <ROCS_ColorScore>
-3.000

> <ROCS_Overlap>
144.886

> <ROCS_Rank>
232                 

$$$$
untitled-dbase-15434_0
  -OEChem-06232314393D

 14 14  0     0  0  0  0  0  0999 V2000
   -5.9819    5.7194  -36.5728 C   0  0  0  0  0  0  0  0  0  0  0  0
   -5.9694    4.7178  -37.5125 C   0  0  0  0  0  0  0  0  0  0  0  0
   -6.5208    3.6055  -36.8487 C   0  0  0  0  0  0  0  0  0  0  0  0
   -6.7423    5.8365  -34.1876 C   0  0  0  0  0  0  0  0  0  0  0  0
   -6.8588    3.8748  -35.5848 N   0  0  0  0  0  0  0  0  0  0  0  0
   -6.5188    5.1677  -35.4470 N   0  0  0  0  0  0  0  0  0  0  0  0
   -5.5258    4.8051  -38.7821 N   0  0  0  0  0  0  0  0  0  0  0  0
   -6.7702    2.0580  -37.4992 Cl  0  0  0  0  0  0  0  0  0  0  0  0
   -5.6621    6.7522  -36.6072 H   0  0  0  0  0  0  0  0  0  0  0  0
   -7.7449    6.2715  -34.2100 H   0  0  0  0  0  0  0  0  0  0  0  0
   -6.6572    5.1137  -33.3714 H   0  0  0  0  0  0  0  0  0  0  0  0
   -5.9884    6.6174  -34.0545 H   0  0  0  0  0  0  0  0  0  0  0  0
   -5.1828    5.6907  -39.1858 H   0  0  0  0  0  0  0  0  0  0  0  0
   -5.5937    4.0163  -39.4442 H   0  0  0  0  0  0  0  0  0  0  0  0
  1  2  2  0  0  0  0
  1  6  1  0  0  0  0
  2  3  1  0  0  0  0
  2  7  1  0  0  0  0
  3  5  2  0  0  0  0
  3  8  1  0  0  0  0
  4  6  1  0  0  0  0
  5  6  1  0  0  0  0
  1  9  1  0  0  0  0
  4 10  1  0  0  0  0
  4 11  1  0  0  0  0
  4 12  1  0  0  0  0
  7 13  1  0  0  0  0
  7 14  1  0  0  0  0
M  END
> <id>
EN300-1168744

> <smiles>
CN1C=C(N)C(Cl)=N1

> <MDLNUMBER>
MFCD19214410

> <IUPAC Name>
3-chloro-1-methyl-1H-pyrazol-4-amine

> <CAS>
150187-11-4

> <Purity>
95

> <URL>
https://www.enaminestore.com/catalog/EN300-1168744

> <ROCS_ShapeQuery>
_hit0

> <ROCS_TanimotoCombo>
1.028 

> <ROCS_ShapeTanimoto>
0.431 

> <ROCS_ColorTanimoto>
0.597 

> <ROCS_RefTversky>
1.133 

> <ROCS_RefColorTversky>
0.748 

> <ROCS_RefTverskyCombo>
1.881 

> <ROCS_FitTversky>
0.410 

> <ROCS_FitColorTversky>
0.748 

> <ROCS_FitTverskyCombo>
1.158 

> <ROCS_ColorScore>
-2.991

> <ROCS_Overlap>
136.283

> <ROCS_Rank>
233                 

$$$$
untitled-dbase-41597_0
  -OEChem-06232314393D

 14 14  0     0  0  0  0  0  0999 V2000
   -5.9819    5.7194  -36.5728 C   0  0  0  0  0  0  0  0  0  0  0  0
   -5.9694    4.7178  -37.5125 C   0  0  0  0  0  0  0  0  0  0  0  0
   -6.5208    3.6055  -36.8487 C   0  0  0  0  0  0  0  0  0  0  0  0
   -6.7423    5.8365  -34.1876 C   0  0  0  0  0  0  0  0  0  0  0  0
   -6.8588    3.8748  -35.5848 N   0  0  0  0  0  0  0  0  0  0  0  0
   -6.5188    5.1677  -35.4470 N   0  0  0  0  0  0  0  0  0  0  0  0
   -5.5258    4.8051  -38.7821 N   0  0  0  0  0  0  0  0  0  0  0  0
   -6.7702    2.0580  -37.4992 Cl  0  0  0  0  0  0  0  0  0  0  0  0
   -5.6621    6.7522  -36.6072 H   0  0  0  0  0  0  0  0  0  0  0  0
   -7.7449    6.2715  -34.2100 H   0  0  0  0  0  0  0  0  0  0  0  0
   -6.6572    5.1137  -33.3714 H   0  0  0  0  0  0  0  0  0  0  0  0
   -5.9884    6.6174  -34.0545 H   0  0  0  0  0  0  0  0  0  0  0  0
   -5.1828    5.6907  -39.1858 H   0  0  0  0  0  0  0  0  0  0  0  0
   -5.5937    4.0163  -39.4442 H   0  0  0  0  0  0  0  0  0  0  0  0
  1  2  2  0  0  0  0
  1  6  1  0  0  0  0
  2  3  1  0  0  0  0
  2  7  1  0  0  0  0
  3  5  2  0  0  0  0
  3  8  1  0  0  0  0
  4  6  1  0  0  0  0
  5  6  1  0  0  0  0
  1  9  1  0  0  0  0
  4 10  1  0  0  0  0
  4 11  1  0  0  0  0
  4 12  1  0  0  0  0
  7 13  1  0  0  0  0
  7 14  1  0  0  0  0
M  END
> <id>
EN300-27149270

> <smiles>
Cl.CN1C=C(N)C(Cl)=N1

> <MDLNUMBER>
MFCD32859823

> <IUPAC Name>
3-chloro-1-methyl-1H-pyrazol-4-amine hydrochloride

> <CAS>
2503204-41-7

> <Purity>
95

> <URL>
https://www.enaminestore.com/catalog/EN300-27149270

> <Saltdate>
Cl

> <ROCS_ShapeQuery>
_hit0

> <ROCS_TanimotoCombo>
1.028 

> <ROCS_ShapeTanimoto>
0.431 

> <ROCS_ColorTanimoto>
0.597 

> <ROCS_RefTversky>
1.133 

> <ROCS_RefColorTversky>
0.748 

> <ROCS_RefTverskyCombo>
1.881 

> <ROCS_FitTversky>
0.410 

> <ROCS_FitColorTversky>
0.748 

> <ROCS_FitTverskyCombo>
1.158 

> <ROCS_ColorScore>
-2.991

> <ROCS_Overlap>
136.283

> <ROCS_Rank>
234                 

$$$$
untitled-dbase-42566_20
  -OEChem-06232314393D

 24 24  0     1  0  0  0  0  0999 V2000
   -5.7446    7.7657  -36.5776 C   0  0  0  0  0  0  0  0  0  0  0  0
   -5.0851    6.5387  -37.2086 C   0  0  0  0  0  0  0  0  0  0  0  0
   -6.7784    4.5778  -35.2275 C   0  0  0  0  0  0  0  0  0  0  0  0
   -6.8870    7.5386  -35.5908 C   0  0  0  0  0  0  0  0  0  0  0  0
   -6.0044    5.5703  -34.3584 C   0  0  0  0  0  0  0  0  0  0  0  0
   -6.0439    5.4143  -37.6110 C   0  0  2  0  0  0  0  0  0  0  0  0
   -6.1699    4.2804  -36.5941 C   0  0  0  0  0  0  0  0  0  0  0  0
   -6.5270    6.9324  -34.3158 N   0  0  0  0  0  0  0  0  0  0  0  0
   -5.5214    4.8081  -38.8043 O   0  0  0  0  0  0  0  0  0  0  0  0
   -6.9396    3.3016  -37.1609 F   0  0  0  0  0  0  0  0  0  0  0  0
   -4.9437    3.7169  -36.4031 F   0  0  0  0  0  0  0  0  0  0  0  0
   -4.9577    8.3305  -36.0500 H   0  0  0  0  0  0  0  0  0  0  0  0
   -6.0888    8.4382  -37.3820 H   0  0  0  0  0  0  0  0  0  0  0  0
   -4.5490    6.8894  -38.1064 H   0  0  0  0  0  0  0  0  0  0  0  0
   -4.2931    6.1575  -36.5445 H   0  0  0  0  0  0  0  0  0  0  0  0
   -6.9601    3.6474  -34.6906 H   0  0  0  0  0  0  0  0  0  0  0  0
   -7.7694    5.0059  -35.4019 H   0  0  0  0  0  0  0  0  0  0  0  0
   -7.4850    8.4639  -35.4612 H   0  0  0  0  0  0  0  0  0  0  0  0
   -7.5969    6.8453  -36.0841 H   0  0  0  0  0  0  0  0  0  0  0  0
   -5.9716    5.1921  -33.3377 H   0  0  0  0  0  0  0  0  0  0  0  0
   -4.9767    5.6058  -34.7196 H   0  0  0  0  0  0  0  0  0  0  0  0
   -7.0223    5.8018  -37.8803 H   0  0  0  0  0  0  0  0  0  0  0  0
   -5.8428    7.5262  -33.8336 H   0  0  0  0  0  0  0  0  0  0  0  0
   -6.1404    4.1029  -39.0401 H   0  0  0  0  0  0  0  0  0  0  0  0
  1  2  1  0  0  0  0
  1  4  1  0  0  0  0
  2  6  1  0  0  0  0
  3  5  1  0  0  0  0
  3  7  1  0  0  0  0
  4  8  1  0  0  0  0
  5  8  1  0  0  0  0
  6  7  1  0  0  0  0
  6  9  1  0  0  0  0
  7 10  1  0  0  0  0
  7 11  1  0  0  0  0
  1 12  1  0  0  0  0
  1 13  1  0  0  0  0
  2 14  1  0  0  0  0
  2 15  1  0  0  0  0
  3 16  1  0  0  0  0
  3 17  1  0  0  0  0
  4 18  1  0  0  0  0
  4 19  1  0  0  0  0
  5 20  1  0  0  0  0
  5 21  1  0  0  0  0
  6 22  1  0  0  0  0
  8 23  1  0  0  0  0
  9 24  1  0  0  0  0
M  END
> <id>
EN300-27702871

> <smiles>
OC1CCCNCCC1(F)F

> <MDLNUMBER>
MFCD33020145

> <IUPAC Name>
4,4-difluoroazocan-5-ol

> <CAS>
2580180-09-0

> <URL>
https://www.enaminestore.com/catalog/EN300-27702871

> <ROCS_ShapeQuery>
_hit0

> <ROCS_TanimotoCombo>
1.028 

> <ROCS_ShapeTanimoto>
0.429 

> <ROCS_ColorTanimoto>
0.600 

> <ROCS_RefTversky>
1.354 

> <ROCS_RefColorTversky>
0.750 

> <ROCS_RefTverskyCombo>
2.103 

> <ROCS_FitTversky>
0.385 

> <ROCS_FitColorTversky>
0.750 

> <ROCS_FitTverskyCombo>
1.135 

> <ROCS_ColorScore>
-2.999

> <ROCS_Overlap>
170.649

> <ROCS_Rank>
235                 

$$$$
untitled-dbase-42946_20
  -OEChem-06232314393D

 24 24  0     1  0  0  0  0  0999 V2000
   -5.7446    7.7657  -36.5776 C   0  0  0  0  0  0  0  0  0  0  0  0
   -5.0851    6.5387  -37.2086 C   0  0  0  0  0  0  0  0  0  0  0  0
   -6.7784    4.5778  -35.2275 C   0  0  0  0  0  0  0  0  0  0  0  0
   -6.8870    7.5386  -35.5908 C   0  0  0  0  0  0  0  0  0  0  0  0
   -6.0044    5.5703  -34.3584 C   0  0  0  0  0  0  0  0  0  0  0  0
   -6.0439    5.4143  -37.6110 C   0  0  2  0  0  0  0  0  0  0  0  0
   -6.1699    4.2804  -36.5941 C   0  0  0  0  0  0  0  0  0  0  0  0
   -6.5270    6.9324  -34.3158 N   0  0  0  0  0  0  0  0  0  0  0  0
   -5.5214    4.8081  -38.8043 O   0  0  0  0  0  0  0  0  0  0  0  0
   -6.9396    3.3016  -37.1609 F   0  0  0  0  0  0  0  0  0  0  0  0
   -4.9437    3.7169  -36.4031 F   0  0  0  0  0  0  0  0  0  0  0  0
   -4.9577    8.3305  -36.0500 H   0  0  0  0  0  0  0  0  0  0  0  0
   -6.0888    8.4382  -37.3820 H   0  0  0  0  0  0  0  0  0  0  0  0
   -4.5490    6.8894  -38.1064 H   0  0  0  0  0  0  0  0  0  0  0  0
   -4.2931    6.1575  -36.5445 H   0  0  0  0  0  0  0  0  0  0  0  0
   -6.9601    3.6474  -34.6906 H   0  0  0  0  0  0  0  0  0  0  0  0
   -7.7694    5.0059  -35.4019 H   0  0  0  0  0  0  0  0  0  0  0  0
   -7.4850    8.4639  -35.4612 H   0  0  0  0  0  0  0  0  0  0  0  0
   -7.5969    6.8453  -36.0841 H   0  0  0  0  0  0  0  0  0  0  0  0
   -5.9716    5.1921  -33.3377 H   0  0  0  0  0  0  0  0  0  0  0  0
   -4.9767    5.6058  -34.7196 H   0  0  0  0  0  0  0  0  0  0  0  0
   -7.0223    5.8018  -37.8803 H   0  0  0  0  0  0  0  0  0  0  0  0
   -5.8428    7.5262  -33.8336 H   0  0  0  0  0  0  0  0  0  0  0  0
   -6.1404    4.1029  -39.0401 H   0  0  0  0  0  0  0  0  0  0  0  0
  1  2  1  0  0  0  0
  1  4  1  0  0  0  0
  2  6  1  0  0  0  0
  3  5  1  0  0  0  0
  3  7  1  0  0  0  0
  4  8  1  0  0  0  0
  5  8  1  0  0  0  0
  6  7  1  0  0  0  0
  6  9  1  0  0  0  0
  7 10  1  0  0  0  0
  7 11  1  0  0  0  0
  1 12  1  0  0  0  0
  1 13  1  0  0  0  0
  2 14  1  0  0  0  0
  2 15  1  0  0  0  0
  3 16  1  0  0  0  0
  3 17  1  0  0  0  0
  4 18  1  0  0  0  0
  4 19  1  0  0  0  0
  5 20  1  0  0  0  0
  5 21  1  0  0  0  0
  6 22  1  0  0  0  0
  8 23  1  0  0  0  0
  9 24  1  0  0  0  0
M  END
> <id>
EN300-27702870

> <smiles>
Cl.OC1CCCNCCC1(F)F

> <MDLNUMBER>
MFCD33020722

> <IUPAC Name>
4,4-difluoroazocan-5-ol hydrochloride

> <CAS>
2580217-71-4

> <Purity>
95

> <URL>
https://www.enaminestore.com/catalog/EN300-27702870

> <Saltdate>
Cl

> <ROCS_ShapeQuery>
_hit0

> <ROCS_TanimotoCombo>
1.028 

> <ROCS_ShapeTanimoto>
0.429 

> <ROCS_ColorTanimoto>
0.600 

> <ROCS_RefTversky>
1.354 

> <ROCS_RefColorTversky>
0.750 

> <ROCS_RefTverskyCombo>
2.103 

> <ROCS_FitTversky>
0.385 

> <ROCS_FitColorTversky>
0.750 

> <ROCS_FitTverskyCombo>
1.135 

> <ROCS_ColorScore>
-2.999

> <ROCS_Overlap>
170.649

> <ROCS_Rank>
236                 

$$$$
untitled-dbase-2149_0
  -OEChem-06232314393D

 16 16  0     0  0  0  0  0  0999 V2000
   -6.2700    6.1426  -35.4363 C   0  0  0  0  0  0  0  0  0  0  0  0
   -6.7830    4.9864  -34.8708 C   0  0  0  0  0  0  0  0  0  0  0  0
   -5.8434    6.0867  -36.7585 C   0  0  0  0  0  0  0  0  0  0  0  0
   -5.9414    4.8931  -37.4648 C   0  0  0  0  0  0  0  0  0  0  0  0
   -6.4689    3.7927  -36.8085 C   0  0  0  0  0  0  0  0  0  0  0  0
   -5.2867    7.3206  -37.3902 C   0  0  0  0  0  0  0  0  0  0  0  0
   -6.8938    3.8086  -35.5252 N   0  0  0  0  0  0  0  0  0  0  0  0
   -5.5145    4.8169  -38.8051 N   0  0  0  0  0  0  0  0  0  0  0  0
   -6.6448    2.2574  -37.5679 Cl  0  0  0  0  0  0  0  0  0  0  0  0
   -6.2076    7.0580  -34.8575 H   0  0  0  0  0  0  0  0  0  0  0  0
   -7.1295    4.9774  -33.8426 H   0  0  0  0  0  0  0  0  0  0  0  0
   -4.2028    7.3703  -37.2355 H   0  0  0  0  0  0  0  0  0  0  0  0
   -5.4875    7.3386  -38.4684 H   0  0  0  0  0  0  0  0  0  0  0  0
   -5.7427    8.2233  -36.9653 H   0  0  0  0  0  0  0  0  0  0  0  0
   -5.5498    3.9372  -39.2809 H   0  0  0  0  0  0  0  0  0  0  0  0
   -5.0952    5.6194  -39.2315 H   0  0  0  0  0  0  0  0  0  0  0  0
  1  2  1  0  0  0  0
  1  3  2  0  0  0  0
  2  7  2  0  0  0  0
  3  4  1  0  0  0  0
  3  6  1  0  0  0  0
  4  5  2  0  0  0  0
  4  8  1  0  0  0  0
  5  7  1  0  0  0  0
  5  9  1  0  0  0  0
  1 10  1  0  0  0  0
  2 11  1  0  0  0  0
  6 12  1  0  0  0  0
  6 13  1  0  0  0  0
  6 14  1  0  0  0  0
  8 15  1  0  0  0  0
  8 16  1  0  0  0  0
M  END
> <id>
EN300-92109

> <smiles>
CC=1C=CN=C(Cl)C1N

> <MDLNUMBER>
MFCD00673152

> <IUPAC Name>
2-chloro-4-methylpyridin-3-amine

> <CAS>
133627-45-9

> <Purity>
95

> <URL>
https://www.enaminestore.com/catalog/EN300-92109

> <MP>
65-70

> <ROCS_ShapeQuery>
_hit0

> <ROCS_TanimotoCombo>
1.028 

> <ROCS_ShapeTanimoto>
0.428 

> <ROCS_ColorTanimoto>
0.600 

> <ROCS_RefTversky>
1.202 

> <ROCS_RefColorTversky>
0.750 

> <ROCS_RefTverskyCombo>
1.952 

> <ROCS_FitTversky>
0.399 

> <ROCS_FitColorTversky>
0.750 

> <ROCS_FitTverskyCombo>
1.149 

> <ROCS_ColorScore>
-3.000

> <ROCS_Overlap>
146.828

> <ROCS_Rank>
237                 

$$$$
untitled-dbase-3119_0
  -OEChem-06232314393D

 20 19  0     0  0  0  0  0  0999 V2000
   -5.6659    5.6573  -36.6266 C   0  0  0  0  0  0  0  0  0  0  0  0
   -6.2709    6.3688  -35.8724 C   0  0  0  0  0  0  0  0  0  0  0  0
   -7.7101    9.0650  -35.5727 C   0  0  0  0  0  0  0  0  0  0  0  0
   -8.7645    6.6032  -34.0949 C   0  0  0  0  0  0  0  0  0  0  0  0
   -6.1398    7.9062  -33.2170 C   0  0  0  0  0  0  0  0  0  0  0  0
   -4.9277    4.7893  -37.5443 C   0  0  0  0  0  0  0  0  0  0  0  0
   -5.5285    4.8017  -38.8330 O   0  0  0  0  0  0  0  0  0  0  0  0
   -7.2189    7.4830  -34.6922 Si  0  0  0  0  0  0  0  0  0  0  0  0
   -8.2646    9.7329  -34.9064 H   0  0  0  0  0  0  0  0  0  0  0  0
   -6.8302    9.6081  -35.9309 H   0  0  0  0  0  0  0  0  0  0  0  0
   -8.3464    8.8551  -36.4379 H   0  0  0  0  0  0  0  0  0  0  0  0
   -9.3358    7.2317  -33.4049 H   0  0  0  0  0  0  0  0  0  0  0  0
   -9.4213    6.3456  -34.9314 H   0  0  0  0  0  0  0  0  0  0  0  0
   -8.5143    5.6758  -33.5707 H   0  0  0  0  0  0  0  0  0  0  0  0
   -6.6692    8.5555  -32.5129 H   0  0  0  0  0  0  0  0  0  0  0  0
   -5.8384    7.0043  -32.6756 H   0  0  0  0  0  0  0  0  0  0  0  0
   -5.2292    8.4266  -33.5292 H   0  0  0  0  0  0  0  0  0  0  0  0
   -4.9033    3.7567  -37.1829 H   0  0  0  0  0  0  0  0  0  0  0  0
   -3.8947    5.1329  -37.6527 H   0  0  0  0  0  0  0  0  0  0  0  0
   -6.4372    4.4792  -38.7208 H   0  0  0  0  0  0  0  0  0  0  0  0
  1  2  3  0  0  0  0
  1  6  1  0  0  0  0
  2  8  1  0  0  0  0
  3  8  1  0  0  0  0
  4  8  1  0  0  0  0
  5  8  1  0  0  0  0
  6  7  1  0  0  0  0
  3  9  1  0  0  0  0
  3 10  1  0  0  0  0
  3 11  1  0  0  0  0
  4 12  1  0  0  0  0
  4 13  1  0  0  0  0
  4 14  1  0  0  0  0
  5 15  1  0  0  0  0
  5 16  1  0  0  0  0
  5 17  1  0  0  0  0
  6 18  1  0  0  0  0
  6 19  1  0  0  0  0
  7 20  1  0  0  0  0
M  END
> <id>
EN300-129296

> <smiles>
C[Si](C)(C)C#CCO

> <MDLNUMBER>
MFCD00002913

> <IUPAC Name>
3-(trimethylsilyl)prop-2-yn-1-ol

> <CAS>
5272-36-6

> <Purity>
95

> <URL>
https://www.enaminestore.com/catalog/EN300-129296

> <ROCS_ShapeQuery>
_hit0

> <ROCS_TanimotoCombo>
1.027 

> <ROCS_ShapeTanimoto>
0.528 

> <ROCS_ColorTanimoto>
0.499 

> <ROCS_RefTversky>
1.106 

> <ROCS_RefColorTversky>
0.512 

> <ROCS_RefTverskyCombo>
1.618 

> <ROCS_FitTversky>
0.503 

> <ROCS_FitColorTversky>
0.951 

> <ROCS_FitTverskyCombo>
1.454 

> <ROCS_ColorScore>
-1.998

> <ROCS_Overlap>
128.495

> <ROCS_Rank>
238                 

$$$$
untitled-dbase-16338_0
  -OEChem-06232314393D

 16 16  0     0  0  0  0  0  0999 V2000
   -6.1943    6.1440  -36.8901 C   0  0  0  0  0  0  0  0  0  0  0  0
   -7.0274    5.0193  -34.9672 C   0  0  0  0  0  0  0  0  0  0  0  0
   -6.7037    6.2097  -35.5980 C   0  0  0  0  0  0  0  0  0  0  0  0
   -6.0264    4.9073  -37.5032 C   0  0  0  0  0  0  0  0  0  0  0  0
   -6.3803    3.7752  -36.7870 C   0  0  0  0  0  0  0  0  0  0  0  0
   -6.8946    7.5164  -34.9139 C   0  0  0  0  0  0  0  0  0  0  0  0
   -6.8783    3.7994  -35.5304 N   0  0  0  0  0  0  0  0  0  0  0  0
   -5.5112    4.8137  -38.8066 N   0  0  0  0  0  0  0  0  0  0  0  0
   -6.2278    2.5693  -37.3586 F   0  0  0  0  0  0  0  0  0  0  0  0
   -6.5269    8.5944  -35.6710 F   0  0  0  0  0  0  0  0  0  0  0  0
   -8.1900    7.7651  -34.5528 F   0  0  0  0  0  0  0  0  0  0  0  0
   -6.1704    7.6204  -33.7598 F   0  0  0  0  0  0  0  0  0  0  0  0
   -5.9299    7.0577  -37.4171 H   0  0  0  0  0  0  0  0  0  0  0  0
   -7.4272    5.0084  -33.9578 H   0  0  0  0  0  0  0  0  0  0  0  0
   -5.3060    5.6517  -39.3176 H   0  0  0  0  0  0  0  0  0  0  0  0
   -5.4428    3.9153  -39.2467 H   0  0  0  0  0  0  0  0  0  0  0  0
  1  3  1  0  0  0  0
  1  4  2  0  0  0  0
  2  3  2  0  0  0  0
  2  7  1  0  0  0  0
  3  6  1  0  0  0  0
  4  5  1  0  0  0  0
  4  8  1  0  0  0  0
  5  7  2  0  0  0  0
  5  9  1  0  0  0  0
  6 10  1  0  0  0  0
  6 11  1  0  0  0  0
  6 12  1  0  0  0  0
  1 13  1  0  0  0  0
  2 14  1  0  0  0  0
  8 15  1  0  0  0  0
  8 16  1  0  0  0  0
M  END
> <id>
EN300-1295421

> <smiles>
NC=1C=C(C=NC1F)C(F)(F)F

> <MDLNUMBER>
MFCD14702314

> <IUPAC Name>
2-fluoro-5-(trifluoromethyl)pyridin-3-amine

> <CAS>
72600-65-8

> <URL>
https://www.enaminestore.com/catalog/EN300-1295421

> <ROCS_ShapeQuery>
_hit0

> <ROCS_TanimotoCombo>
1.027 

> <ROCS_ShapeTanimoto>
0.427 

> <ROCS_ColorTanimoto>
0.600 

> <ROCS_RefTversky>
1.495 

> <ROCS_RefColorTversky>
0.750 

> <ROCS_RefTverskyCombo>
2.244 

> <ROCS_FitTversky>
0.374 

> <ROCS_FitColorTversky>
0.750 

> <ROCS_FitTverskyCombo>
1.124 

> <ROCS_ColorScore>
-3.000

> <ROCS_Overlap>
194.408

> <ROCS_Rank>
239                 

$$$$
untitled-dbase-40699_0
  -OEChem-06232314393D

 13 13  0     0  0  0  0  0  0999 V2000
   -6.2902    6.1506  -35.4513 C   0  0  0  0  0  0  0  0  0  0  0  0
   -6.7891    4.9937  -34.8747 C   0  0  0  0  0  0  0  0  0  0  0  0
   -5.9450    4.8853  -37.4673 C   0  0  0  0  0  0  0  0  0  0  0  0
   -5.8622    6.0869  -36.7727 C   0  0  0  0  0  0  0  0  0  0  0  0
   -6.4592    3.7849  -36.8004 C   0  0  0  0  0  0  0  0  0  0  0  0
   -6.8850    3.8083  -35.5175 N   0  0  0  0  0  0  0  0  0  0  0  0
   -5.5132    4.8162  -38.8045 N   0  0  0  0  0  0  0  0  0  0  0  0
   -5.3735    7.1861  -37.3642 F   0  0  0  0  0  0  0  0  0  0  0  0
   -6.6144    2.2416  -37.5469 Cl  0  0  0  0  0  0  0  0  0  0  0  0
   -6.2350    7.0765  -34.8907 H   0  0  0  0  0  0  0  0  0  0  0  0
   -7.1361    4.9906  -33.8467 H   0  0  0  0  0  0  0  0  0  0  0  0
   -5.1923    5.6482  -39.2608 H   0  0  0  0  0  0  0  0  0  0  0  0
   -5.6202    3.9590  -39.3115 H   0  0  0  0  0  0  0  0  0  0  0  0
  1  2  2  0  0  0  0
  1  4  1  0  0  0  0
  2  6  1  0  0  0  0
  3  4  2  0  0  0  0
  3  5  1  0  0  0  0
  3  7  1  0  0  0  0
  4  8  1  0  0  0  0
  5  6  2  0  0  0  0
  5  9  1  0  0  0  0
  1 10  1  0  0  0  0
  2 11  1  0  0  0  0
  7 12  1  0  0  0  0
  7 13  1  0  0  0  0
M  END
> <id>
EN300-342624

> <smiles>
NC=1C(F)=CC=NC1Cl

> <MDLNUMBER>
MFCD28720263

> <IUPAC Name>
2-chloro-4-fluoropyridin-3-amine

> <CAS>
1805269-43-5

> <Purity>
95

> <URL>
https://www.enaminestore.com/catalog/EN300-342624

> <ROCS_ShapeQuery>
_hit0

> <ROCS_TanimotoCombo>
1.027 

> <ROCS_ShapeTanimoto>
0.427 

> <ROCS_ColorTanimoto>
0.600 

> <ROCS_RefTversky>
1.212 

> <ROCS_RefColorTversky>
0.750 

> <ROCS_RefTverskyCombo>
1.962 

> <ROCS_FitTversky>
0.397 

> <ROCS_FitColorTversky>
0.750 

> <ROCS_FitTverskyCombo>
1.147 

> <ROCS_ColorScore>
-2.999

> <ROCS_Overlap>
148.302

> <ROCS_Rank>
240                 

$$$$
untitled-dbase-13370_0
  -OEChem-06232314393D

 16 16  0     0  0  0  0  0  0999 V2000
   -5.8978    6.1222  -36.7077 C   0  0  0  0  0  0  0  0  0  0  0  0
   -6.4263    5.6914  -35.4761 C   0  0  0  0  0  0  0  0  0  0  0  0
   -5.9141    5.0001  -37.4996 C   0  0  0  0  0  0  0  0  0  0  0  0
   -6.6534    2.6273  -37.1040 C   0  0  0  0  0  0  0  0  0  0  0  0
   -6.7546    4.3967  -35.4805 N   0  0  0  0  0  0  0  0  0  0  0  0
   -6.4316    4.0043  -36.7246 N   0  0  0  0  0  0  0  0  0  0  0  0
   -6.5648    6.5451  -34.4293 N   0  0  0  0  0  0  0  0  0  0  0  0
   -5.5343    4.7864  -38.7761 N   0  0  0  0  0  0  0  0  0  0  0  0
   -5.5518    7.1078  -36.9867 H   0  0  0  0  0  0  0  0  0  0  0  0
   -5.7482    2.0621  -36.8669 H   0  0  0  0  0  0  0  0  0  0  0  0
   -7.5083    2.2301  -36.5497 H   0  0  0  0  0  0  0  0  0  0  0  0
   -6.8669    2.5776  -38.1754 H   0  0  0  0  0  0  0  0  0  0  0  0
   -6.2470    7.5199  -34.4814 H   0  0  0  0  0  0  0  0  0  0  0  0
   -6.9051    6.2273  -33.5144 H   0  0  0  0  0  0  0  0  0  0  0  0
   -5.5723    3.8522  -39.2116 H   0  0  0  0  0  0  0  0  0  0  0  0
   -5.0992    5.5243  -39.3505 H   0  0  0  0  0  0  0  0  0  0  0  0
  1  2  1  0  0  0  0
  1  3  2  0  0  0  0
  2  5  2  0  0  0  0
  2  7  1  0  0  0  0
  3  6  1  0  0  0  0
  3  8  1  0  0  0  0
  4  6  1  0  0  0  0
  5  6  1  0  0  0  0
  1  9  1  0  0  0  0
  4 10  1  0  0  0  0
  4 11  1  0  0  0  0
  4 12  1  0  0  0  0
  7 13  1  0  0  0  0
  7 14  1  0  0  0  0
  8 15  1  0  0  0  0
  8 16  1  0  0  0  0
M  END
> <id>
EN300-762829

> <smiles>
Cl.Cl.CN1N=C(N)C=C1N

> <MDLNUMBER>
MFCD25371307

> <IUPAC Name>
1-methyl-1H-pyrazole-3,5-diamine dihydrochloride

> <CAS>
1431966-52-7

> <Purity>
50

> <URL>
https://www.enaminestore.com/catalog/EN300-762829

> <Saltdate>
Cl

> <ROCS_ShapeQuery>
_hit0

> <ROCS_TanimotoCombo>
1.027 

> <ROCS_ShapeTanimoto>
0.477 

> <ROCS_ColorTanimoto>
0.550 

> <ROCS_RefTversky>
1.240 

> <ROCS_RefColorTversky>
0.866 

> <ROCS_RefTverskyCombo>
2.106 

> <ROCS_FitTversky>
0.437 

> <ROCS_FitColorTversky>
0.601 

> <ROCS_FitTverskyCombo>
1.038 

> <ROCS_ColorScore>
-3.549

> <ROCS_Overlap>
149.798

> <ROCS_Rank>
241                 

$$$$
untitled-dbase-5895_0
  -OEChem-06232314393D

 16 16  0     0  0  0  0  0  0999 V2000
   -5.8978    6.1222  -36.7077 C   0  0  0  0  0  0  0  0  0  0  0  0
   -6.4263    5.6914  -35.4761 C   0  0  0  0  0  0  0  0  0  0  0  0
   -5.9141    5.0001  -37.4996 C   0  0  0  0  0  0  0  0  0  0  0  0
   -6.6534    2.6273  -37.1040 C   0  0  0  0  0  0  0  0  0  0  0  0
   -6.7546    4.3967  -35.4805 N   0  0  0  0  0  0  0  0  0  0  0  0
   -6.4316    4.0043  -36.7246 N   0  0  0  0  0  0  0  0  0  0  0  0
   -6.5648    6.5451  -34.4293 N   0  0  0  0  0  0  0  0  0  0  0  0
   -5.5343    4.7864  -38.7761 N   0  0  0  0  0  0  0  0  0  0  0  0
   -5.5518    7.1078  -36.9867 H   0  0  0  0  0  0  0  0  0  0  0  0
   -5.7482    2.0621  -36.8669 H   0  0  0  0  0  0  0  0  0  0  0  0
   -7.5083    2.2301  -36.5497 H   0  0  0  0  0  0  0  0  0  0  0  0
   -6.8669    2.5776  -38.1754 H   0  0  0  0  0  0  0  0  0  0  0  0
   -6.2470    7.5199  -34.4814 H   0  0  0  0  0  0  0  0  0  0  0  0
   -6.9051    6.2273  -33.5144 H   0  0  0  0  0  0  0  0  0  0  0  0
   -5.5723    3.8522  -39.2116 H   0  0  0  0  0  0  0  0  0  0  0  0
   -5.0992    5.5243  -39.3505 H   0  0  0  0  0  0  0  0  0  0  0  0
  1  2  1  0  0  0  0
  1  3  2  0  0  0  0
  2  5  2  0  0  0  0
  2  7  1  0  0  0  0
  3  6  1  0  0  0  0
  3  8  1  0  0  0  0
  4  6  1  0  0  0  0
  5  6  1  0  0  0  0
  1  9  1  0  0  0  0
  4 10  1  0  0  0  0
  4 11  1  0  0  0  0
  4 12  1  0  0  0  0
  7 13  1  0  0  0  0
  7 14  1  0  0  0  0
  8 15  1  0  0  0  0
  8 16  1  0  0  0  0
M  END
> <id>
EN300-232639

> <smiles>
CN1N=C(N)C=C1N

> <MDLNUMBER>
MFCD14607840

> <IUPAC Name>
1-methyl-1H-pyrazole-3,5-diamine

> <CAS>
16675-35-7

> <URL>
https://www.enaminestore.com/catalog/EN300-232639

> <ROCS_ShapeQuery>
_hit0

> <ROCS_TanimotoCombo>
1.027 

> <ROCS_ShapeTanimoto>
0.477 

> <ROCS_ColorTanimoto>
0.550 

> <ROCS_RefTversky>
1.240 

> <ROCS_RefColorTversky>
0.866 

> <ROCS_RefTverskyCombo>
2.106 

> <ROCS_FitTversky>
0.437 

> <ROCS_FitColorTversky>
0.601 

> <ROCS_FitTverskyCombo>
1.038 

> <ROCS_ColorScore>
-3.549

> <ROCS_Overlap>
149.798

> <ROCS_Rank>
242                 

$$$$
untitled-dbase-3670_3
  -OEChem-06232314393D

 17 17  0     1  0  0  0  0  0999 V2000
   -6.1548    5.8489  -36.6722 C   0  0  0  0  0  0  0  0  0  0  0  0
   -6.5597    5.2430  -35.3462 C   0  0  0  0  0  0  0  0  0  0  0  0
   -5.5306    4.6667  -37.3736 C   0  0  1  0  0  0  0  0  0  0  0  0
   -6.4490    3.5388  -36.9329 C   0  0  1  0  0  0  0  0  0  0  0  0
   -5.7817    2.1753  -36.9568 C   0  0  0  0  0  0  0  0  0  0  0  0
   -6.8539    3.8584  -35.5915 O   0  0  0  0  0  0  0  0  0  0  0  0
   -5.5282    4.8146  -38.7778 O   0  0  0  0  0  0  0  0  0  0  0  0
   -7.0085    6.2846  -37.1972 H   0  0  0  0  0  0  0  0  0  0  0  0
   -5.4033    6.6282  -36.5074 H   0  0  0  0  0  0  0  0  0  0  0  0
   -5.7734    5.3219  -34.5900 H   0  0  0  0  0  0  0  0  0  0  0  0
   -7.4682    5.7120  -34.9533 H   0  0  0  0  0  0  0  0  0  0  0  0
   -4.4724    4.5029  -37.0494 H   0  0  0  0  0  0  0  0  0  0  0  0
   -7.3677    3.5084  -37.5532 H   0  0  0  0  0  0  0  0  0  0  0  0
   -4.8760    2.1919  -36.3499 H   0  0  0  0  0  0  0  0  0  0  0  0
   -5.5163    1.9071  -37.9797 H   0  0  0  0  0  0  0  0  0  0  0  0
   -6.4600    1.4204  -36.5583 H   0  0  0  0  0  0  0  0  0  0  0  0
   -5.0149    5.6145  -38.9700 H   0  0  0  0  0  0  0  0  0  0  0  0
  1  2  1  0  0  0  0
  1  3  1  0  0  0  0
  2  6  1  0  0  0  0
  3  4  1  0  0  0  0
  3  7  1  0  0  0  0
  4  5  1  0  0  0  0
  4  6  1  0  0  0  0
  1  8  1  0  0  0  0
  1  9  1  0  0  0  0
  2 10  1  0  0  0  0
  2 11  1  0  0  0  0
  3 12  1  0  0  0  0
  4 13  1  0  0  0  0
  5 14  1  0  0  0  0
  5 15  1  0  0  0  0
  5 16  1  0  0  0  0
  7 17  1  0  0  0  0
M  END
> <id>
EN300-141357

> <smiles>
CC1OCCC1O

> <MDLNUMBER>
MFCD01725985

> <IUPAC Name>
2-methyloxolan-3-ol

> <CAS>
29848-44-0

> <Purity>
95

> <URL>
https://www.enaminestore.com/catalog/EN300-141357

> <ROCS_ShapeQuery>
_hit0

> <ROCS_TanimotoCombo>
1.026 

> <ROCS_ShapeTanimoto>
0.428 

> <ROCS_ColorTanimoto>
0.597 

> <ROCS_RefTversky>
1.014 

> <ROCS_RefColorTversky>
0.748 

> <ROCS_RefTverskyCombo>
1.762 

> <ROCS_FitTversky>
0.426 

> <ROCS_FitColorTversky>
0.748 

> <ROCS_FitTverskyCombo>
1.174 

> <ROCS_ColorScore>
-2.992

> <ROCS_Overlap>
119.049

> <ROCS_Rank>
243                 

$$$$
untitled-dbase-49798_0
  -OEChem-06232314393D

 15 15  0     0  0  0  0  0  0999 V2000
   -6.2488    6.1479  -35.4700 C   0  0  0  0  0  0  0  0  0  0  0  0
   -6.7635    4.9946  -34.9001 C   0  0  0  0  0  0  0  0  0  0  0  0
   -5.8247    6.0869  -36.7928 C   0  0  0  0  0  0  0  0  0  0  0  0
   -5.9268    4.8913  -37.4953 C   0  0  0  0  0  0  0  0  0  0  0  0
   -6.4557    3.7942  -36.8347 C   0  0  0  0  0  0  0  0  0  0  0  0
   -5.2650    7.3107  -37.4386 C   0  0  0  0  0  0  0  0  0  0  0  0
   -6.8782    3.8151  -35.5507 N   0  0  0  0  0  0  0  0  0  0  0  0
   -5.5176    4.8116  -38.7890 O   0  0  0  0  0  0  0  0  0  0  0  0
   -6.6304    2.2646  -37.6008 Cl  0  0  0  0  0  0  0  0  0  0  0  0
   -6.1828    7.0651  -34.8946 H   0  0  0  0  0  0  0  0  0  0  0  0
   -7.1082    4.9895  -33.8713 H   0  0  0  0  0  0  0  0  0  0  0  0
   -4.1799    7.3577  -37.2889 H   0  0  0  0  0  0  0  0  0  0  0  0
   -5.4693    7.3197  -38.5167 H   0  0  0  0  0  0  0  0  0  0  0  0
   -5.7146    8.2208  -37.0216 H   0  0  0  0  0  0  0  0  0  0  0  0
   -5.6556    3.9138  -39.1326 H   0  0  0  0  0  0  0  0  0  0  0  0
  1  2  1  0  0  0  0
  1  3  2  0  0  0  0
  2  7  2  0  0  0  0
  3  4  1  0  0  0  0
  3  6  1  0  0  0  0
  4  5  2  0  0  0  0
  4  8  1  0  0  0  0
  5  7  1  0  0  0  0
  5  9  1  0  0  0  0
  1 10  1  0  0  0  0
  2 11  1  0  0  0  0
  6 12  1  0  0  0  0
  6 13  1  0  0  0  0
  6 14  1  0  0  0  0
  8 15  1  0  0  0  0
M  END
> <id>
EN300-124796

> <smiles>
CC=1C=CN=C(Cl)C1O

> <MDLNUMBER>
MFCD04112564

> <IUPAC Name>
2-chloro-4-methylpyridin-3-ol

> <CAS>
884494-70-6

> <Purity>
95

> <URL>
https://www.enaminestore.com/catalog/EN300-124796

> <MP>
166-167

> <ROCS_ShapeQuery>
_hit0

> <ROCS_TanimotoCombo>
1.026 

> <ROCS_ShapeTanimoto>
0.426 

> <ROCS_ColorTanimoto>
0.600 

> <ROCS_RefTversky>
1.202 

> <ROCS_RefColorTversky>
0.750 

> <ROCS_RefTverskyCombo>
1.952 

> <ROCS_FitTversky>
0.397 

> <ROCS_FitColorTversky>
0.750 

> <ROCS_FitTverskyCombo>
1.147 

> <ROCS_ColorScore>
-2.999

> <ROCS_Overlap>
146.912

> <ROCS_Rank>
244                 

$$$$
untitled-dbase-30153_4
  -OEChem-06232314393D

 17 17  0     1  0  0  0  0  0999 V2000
   -6.8332    4.5862  -35.3470 C   0  0  0  0  0  0  0  0  0  0  0  0
   -6.4834    3.9087  -36.6736 C   0  0  0  0  0  0  0  0  0  0  0  0
   -5.5495    6.1277  -36.6544 C   0  0  0  0  0  0  0  0  0  0  0  0
   -5.8733    5.7643  -35.2155 C   0  0  1  0  0  0  0  0  0  0  0  0
   -5.3919    4.7672  -37.3115 C   0  0  2  0  0  0  0  0  0  0  0  0
   -6.4811    6.8394  -34.5274 O   0  0  0  0  0  0  0  0  0  0  0  0
   -5.5511    4.8641  -38.7133 O   0  0  0  0  0  0  0  0  0  0  0  0
   -7.8878    4.8936  -35.3276 H   0  0  0  0  0  0  0  0  0  0  0  0
   -6.6706    3.8774  -34.5213 H   0  0  0  0  0  0  0  0  0  0  0  0
   -6.1295    2.8889  -36.4866 H   0  0  0  0  0  0  0  0  0  0  0  0
   -7.3701    3.8392  -37.3145 H   0  0  0  0  0  0  0  0  0  0  0  0
   -6.3323    6.7287  -37.1158 H   0  0  0  0  0  0  0  0  0  0  0  0
   -4.5988    6.6638  -36.6869 H   0  0  0  0  0  0  0  0  0  0  0  0
   -4.9594    5.4728  -34.6492 H   0  0  0  0  0  0  0  0  0  0  0  0
   -4.3871    4.3488  -37.1113 H   0  0  0  0  0  0  0  0  0  0  0  0
   -6.7237    6.5071  -33.6482 H   0  0  0  0  0  0  0  0  0  0  0  0
   -5.5029    3.9598  -39.0615 H   0  0  0  0  0  0  0  0  0  0  0  0
  1  2  1  0  0  0  0
  1  4  1  0  0  0  0
  2  5  1  0  0  0  0
  3  4  1  0  0  0  0
  3  5  1  0  0  0  0
  4  6  1  1  0  0  0
  5  7  1  1  0  0  0
  1  8  1  0  0  0  0
  1  9  1  0  0  0  0
  2 10  1  0  0  0  0
  2 11  1  0  0  0  0
  3 12  1  0  0  0  0
  3 13  1  0  0  0  0
  4 14  1  0  0  0  0
  5 15  1  0  0  0  0
  6 16  1  0  0  0  0
  7 17  1  0  0  0  0
M  END
> <id>
EN300-2517105

> <smiles>
O[C@H]1CC[C@@H](O)C1

> <MDLNUMBER>
MFCD13619671

> <IUPAC Name>
(1R,3S)-cyclopentane-1,3-diol

> <CAS>
16326-97-9

> <Purity>
95

> <URL>
https://www.enaminestore.com/catalog/EN300-2517105

> <ROCS_ShapeQuery>
_hit0

> <ROCS_TanimotoCombo>
1.025 

> <ROCS_ShapeTanimoto>
0.542 

> <ROCS_ColorTanimoto>
0.484 

> <ROCS_RefTversky>
1.180 

> <ROCS_RefColorTversky>
0.725 

> <ROCS_RefTverskyCombo>
1.904 

> <ROCS_FitTversky>
0.500 

> <ROCS_FitColorTversky>
0.593 

> <ROCS_FitTverskyCombo>
1.093 

> <ROCS_ColorScore>
-2.934

> <ROCS_Overlap>
138.376

> <ROCS_Rank>
245                 

$$$$
untitled-dbase-5320_0
  -OEChem-06232314393D

 21 21  0     1  0  0  0  0  0999 V2000
   -6.7628    3.2778  -35.5741 C   0  0  0  0  0  0  0  0  0  0  0  0
   -7.1186    4.5683  -34.8398 C   0  0  0  0  0  0  0  0  0  0  0  0
   -6.5861    3.5143  -37.0698 C   0  0  0  0  0  0  0  0  0  0  0  0
   -5.9244    5.9077  -36.6173 C   0  0  0  0  0  0  0  0  0  0  0  0
   -6.0989    5.6779  -35.1145 C   0  0  1  0  0  0  0  0  0  0  0  0
   -5.5654    4.6149  -37.3489 C   0  0  2  0  0  0  0  0  0  0  0  0
   -6.4863    6.9014  -34.4530 N   0  0  0  0  0  0  0  0  0  0  0  0
   -5.5272    4.8535  -38.7518 O   0  0  0  0  0  0  0  0  0  0  0  0
   -5.8363    2.8642  -35.1577 H   0  0  0  0  0  0  0  0  0  0  0  0
   -7.5476    2.5310  -35.4089 H   0  0  0  0  0  0  0  0  0  0  0  0
   -8.1201    4.8907  -35.1547 H   0  0  0  0  0  0  0  0  0  0  0  0
   -7.1762    4.3668  -33.7630 H   0  0  0  0  0  0  0  0  0  0  0  0
   -6.2737    2.5860  -37.5629 H   0  0  0  0  0  0  0  0  0  0  0  0
   -7.5503    3.7799  -37.5226 H   0  0  0  0  0  0  0  0  0  0  0  0
   -6.8429    6.3258  -37.0525 H   0  0  0  0  0  0  0  0  0  0  0  0
   -5.1455    6.6588  -36.8032 H   0  0  0  0  0  0  0  0  0  0  0  0
   -5.1258    5.3609  -34.7007 H   0  0  0  0  0  0  0  0  0  0  0  0
   -4.5689    4.2759  -37.0406 H   0  0  0  0  0  0  0  0  0  0  0  0
   -6.5583    6.7172  -33.4811 H   0  0  0  0  0  0  0  0  0  0  0  0
   -5.7879    7.5826  -34.6317 H   0  0  0  0  0  0  0  0  0  0  0  0
   -4.8724    5.5546  -38.8965 H   0  0  0  0  0  0  0  0  0  0  0  0
  1  2  1  0  0  0  0
  1  3  1  0  0  0  0
  2  5  1  0  0  0  0
  3  6  1  0  0  0  0
  4  5  1  0  0  0  0
  4  6  1  0  0  0  0
  5  7  1  1  0  0  0
  6  8  1  1  0  0  0
  1  9  1  0  0  0  0
  1 10  1  0  0  0  0
  2 11  1  0  0  0  0
  2 12  1  0  0  0  0
  3 13  1  0  0  0  0
  3 14  1  0  0  0  0
  4 15  1  0  0  0  0
  4 16  1  0  0  0  0
  5 17  1  0  0  0  0
  6 18  1  0  0  0  0
  7 19  1  0  0  0  0
  7 20  1  0  0  0  0
  8 21  1  0  0  0  0
M  END
> <id>
EN300-172288

> <smiles>
N[C@H]1CCC[C@@H](O)C1

> <MDLNUMBER>
MFCD19237868

> <IUPAC Name>
(1R,3S)-3-aminocyclohexan-1-ol

> <CAS>
1110772-22-9

> <Purity>
95

> <URL>
https://www.enaminestore.com/catalog/EN300-172288

> <ROCS_ShapeQuery>
_hit0

> <ROCS_TanimotoCombo>
1.025 

> <ROCS_ShapeTanimoto>
0.531 

> <ROCS_ColorTanimoto>
0.494 

> <ROCS_RefTversky>
1.246 

> <ROCS_RefColorTversky>
0.735 

> <ROCS_RefTverskyCombo>
1.981 

> <ROCS_FitTversky>
0.481 

> <ROCS_FitColorTversky>
0.601 

> <ROCS_FitTverskyCombo>
1.082 

> <ROCS_ColorScore>
-2.977

> <ROCS_Overlap>
148.188

> <ROCS_Rank>
246                 

$$$$
untitled-dbase-28856_0
  -OEChem-06232314393D

 21 21  0     1  0  0  0  0  0999 V2000
   -6.7628    3.2778  -35.5741 C   0  0  0  0  0  0  0  0  0  0  0  0
   -7.1186    4.5683  -34.8398 C   0  0  0  0  0  0  0  0  0  0  0  0
   -6.5861    3.5143  -37.0698 C   0  0  0  0  0  0  0  0  0  0  0  0
   -5.9244    5.9077  -36.6173 C   0  0  0  0  0  0  0  0  0  0  0  0
   -6.0989    5.6779  -35.1145 C   0  0  1  0  0  0  0  0  0  0  0  0
   -5.5654    4.6149  -37.3489 C   0  0  2  0  0  0  0  0  0  0  0  0
   -6.4863    6.9014  -34.4530 N   0  0  0  0  0  0  0  0  0  0  0  0
   -5.5272    4.8535  -38.7518 O   0  0  0  0  0  0  0  0  0  0  0  0
   -5.8363    2.8642  -35.1577 H   0  0  0  0  0  0  0  0  0  0  0  0
   -7.5476    2.5310  -35.4089 H   0  0  0  0  0  0  0  0  0  0  0  0
   -8.1201    4.8907  -35.1547 H   0  0  0  0  0  0  0  0  0  0  0  0
   -7.1762    4.3668  -33.7630 H   0  0  0  0  0  0  0  0  0  0  0  0
   -6.2737    2.5860  -37.5629 H   0  0  0  0  0  0  0  0  0  0  0  0
   -7.5503    3.7799  -37.5226 H   0  0  0  0  0  0  0  0  0  0  0  0
   -6.8429    6.3258  -37.0525 H   0  0  0  0  0  0  0  0  0  0  0  0
   -5.1455    6.6588  -36.8032 H   0  0  0  0  0  0  0  0  0  0  0  0
   -5.1258    5.3609  -34.7007 H   0  0  0  0  0  0  0  0  0  0  0  0
   -4.5689    4.2759  -37.0406 H   0  0  0  0  0  0  0  0  0  0  0  0
   -6.5583    6.7172  -33.4811 H   0  0  0  0  0  0  0  0  0  0  0  0
   -5.7879    7.5826  -34.6317 H   0  0  0  0  0  0  0  0  0  0  0  0
   -4.8724    5.5546  -38.8965 H   0  0  0  0  0  0  0  0  0  0  0  0
  1  2  1  0  0  0  0
  1  3  1  0  0  0  0
  2  5  1  0  0  0  0
  3  6  1  0  0  0  0
  4  5  1  0  0  0  0
  4  6  1  0  0  0  0
  5  7  1  1  0  0  0
  6  8  1  1  0  0  0
  1  9  1  0  0  0  0
  1 10  1  0  0  0  0
  2 11  1  0  0  0  0
  2 12  1  0  0  0  0
  3 13  1  0  0  0  0
  3 14  1  0  0  0  0
  4 15  1  0  0  0  0
  4 16  1  0  0  0  0
  5 17  1  0  0  0  0
  6 18  1  0  0  0  0
  7 19  1  0  0  0  0
  7 20  1  0  0  0  0
  8 21  1  0  0  0  0
M  END
> <id>
EN300-212435

> <smiles>
Cl.N[C@H]1CCC[C@@H](O)C1

> <MDLNUMBER>
MFCD22689399

> <IUPAC Name>
(1R,3S)-3-aminocyclohexan-1-ol hydrochloride

> <CAS>
1849594-88-2

> <Purity>
95

> <URL>
https://www.enaminestore.com/catalog/EN300-212435

> <Saltdate>
Cl

> <ROCS_ShapeQuery>
_hit0

> <ROCS_TanimotoCombo>
1.025 

> <ROCS_ShapeTanimoto>
0.531 

> <ROCS_ColorTanimoto>
0.494 

> <ROCS_RefTversky>
1.246 

> <ROCS_RefColorTversky>
0.735 

> <ROCS_RefTverskyCombo>
1.981 

> <ROCS_FitTversky>
0.481 

> <ROCS_FitColorTversky>
0.601 

> <ROCS_FitTverskyCombo>
1.082 

> <ROCS_ColorScore>
-2.977

> <ROCS_Overlap>
148.188

> <ROCS_Rank>
247                 

$$$$
untitled-dbase-30785_0
  -OEChem-06232314393D

 15 15  0     0  0  0  0  0  0999 V2000
   -6.8357    4.9974  -34.9303 C   0  0  0  0  0  0  0  0  0  0  0  0
   -6.4249    3.7857  -36.8257 C   0  0  0  0  0  0  0  0  0  0  0  0
   -6.3737    6.1340  -35.5567 C   0  0  0  0  0  0  0  0  0  0  0  0
   -5.9636    4.9223  -37.4524 C   0  0  0  0  0  0  0  0  0  0  0  0
   -6.3512    7.4370  -34.8369 C   0  0  0  0  0  0  0  0  0  0  0  0
   -6.8695    3.8029  -35.5535 N   0  0  0  0  0  0  0  0  0  0  0  0
   -5.9295    6.1168  -36.8291 N   0  0  0  0  0  0  0  0  0  0  0  0
   -5.5160    4.8161  -38.7883 N   0  0  0  0  0  0  0  0  0  0  0  0
   -7.1914    5.0029  -33.9068 H   0  0  0  0  0  0  0  0  0  0  0  0
   -6.4583    2.8205  -37.3179 H   0  0  0  0  0  0  0  0  0  0  0  0
   -5.3945    7.5719  -34.3157 H   0  0  0  0  0  0  0  0  0  0  0  0
   -6.4901    8.2795  -35.5283 H   0  0  0  0  0  0  0  0  0  0  0  0
   -7.1604    7.5001  -34.0963 H   0  0  0  0  0  0  0  0  0  0  0  0
   -5.5008    3.9181  -39.2252 H   0  0  0  0  0  0  0  0  0  0  0  0
   -5.1354    5.6226  -39.2380 H   0  0  0  0  0  0  0  0  0  0  0  0
  1  3  2  0  0  0  0
  1  6  1  0  0  0  0
  2  4  1  0  0  0  0
  2  6  2  0  0  0  0
  3  5  1  0  0  0  0
  3  7  1  0  0  0  0
  4  7  2  0  0  0  0
  4  8  1  0  0  0  0
  1  9  1  0  0  0  0
  2 10  1  0  0  0  0
  5 11  1  0  0  0  0
  5 12  1  0  0  0  0
  5 13  1  0  0  0  0
  8 14  1  0  0  0  0
  8 15  1  0  0  0  0
M  END
> <id>
EN300-82524

> <smiles>
CC=1C=NC=C(N)N1

> <MDLNUMBER>
MFCD08235193

> <IUPAC Name>
6-methylpyrazin-2-amine

> <CAS>
5521-56-2

> <Purity>
95

> <URL>
https://www.enaminestore.com/catalog/EN300-82524

> <MP>
124-125

> <ROCS_ShapeQuery>
_hit0

> <ROCS_TanimotoCombo>
1.025 

> <ROCS_ShapeTanimoto>
0.525 

> <ROCS_ColorTanimoto>
0.500 

> <ROCS_RefTversky>
1.306 

> <ROCS_RefColorTversky>
0.741 

> <ROCS_RefTverskyCombo>
2.047 

> <ROCS_FitTversky>
0.467 

> <ROCS_FitColorTversky>
0.606 

> <ROCS_FitTverskyCombo>
1.073 

> <ROCS_ColorScore>
-3.003

> <ROCS_Overlap>
157.287

> <ROCS_Rank>
248                 

$$$$
untitled-dbase-31868_0
  -OEChem-06232314393D

 11 11  0     0  0  0  0  0  0999 V2000
   -6.4160    3.7723  -36.8422 C   0  0  0  0  0  0  0  0  0  0  0  0
   -6.8458    5.0238  -34.9772 C   0  0  0  0  0  0  0  0  0  0  0  0
   -5.9647    4.8987  -37.4941 C   0  0  0  0  0  0  0  0  0  0  0  0
   -6.3939    6.1502  -35.6288 C   0  0  0  0  0  0  0  0  0  0  0  0
   -6.8647    3.8146  -35.5720 N   0  0  0  0  0  0  0  0  0  0  0  0
   -5.9455    6.1078  -36.8991 N   0  0  0  0  0  0  0  0  0  0  0  0
   -5.5175    4.8162  -38.7824 O   0  0  0  0  0  0  0  0  0  0  0  0
   -6.3666    7.6877  -34.8802 Cl  0  0  0  0  0  0  0  0  0  0  0  0
   -6.4329    2.7982  -37.3166 H   0  0  0  0  0  0  0  0  0  0  0  0
   -7.2090    5.0478  -33.9563 H   0  0  0  0  0  0  0  0  0  0  0  0
   -5.2377    5.6902  -39.0925 H   0  0  0  0  0  0  0  0  0  0  0  0
  1  3  2  0  0  0  0
  1  5  1  0  0  0  0
  2  4  1  0  0  0  0
  2  5  2  0  0  0  0
  3  6  1  0  0  0  0
  3  7  1  0  0  0  0
  4  6  2  0  0  0  0
  4  8  1  0  0  0  0
  1  9  1  0  0  0  0
  2 10  1  0  0  0  0
  7 11  1  0  0  0  0
M  END
> <id>
EN300-200229

> <smiles>
OC=1C=NC=C(Cl)N1

> <MDLNUMBER>
MFCD00204104

> <IUPAC Name>
6-chloropyrazin-2-ol

> <CAS>
4925-61-5

> <Purity>
95

> <URL>
https://www.enaminestore.com/catalog/EN300-200229

> <MP>
200-205

> <ROCS_ShapeQuery>
_hit0

> <ROCS_TanimotoCombo>
1.024 

> <ROCS_ShapeTanimoto>
0.525 

> <ROCS_ColorTanimoto>
0.500 

> <ROCS_RefTversky>
1.295 

> <ROCS_RefColorTversky>
0.741 

> <ROCS_RefTverskyCombo>
2.036 

> <ROCS_FitTversky>
0.469 

> <ROCS_FitColorTversky>
0.605 

> <ROCS_FitTverskyCombo>
1.074 

> <ROCS_ColorScore>
-3.002

> <ROCS_Overlap>
155.654

> <ROCS_Rank>
249                 

$$$$
untitled-dbase-1374_0
  -OEChem-06232314393D

  8  7  0     0  0  0  0  0  0999 V2000
   -5.7055    5.1873  -38.0407 C   0  0  0  0  0  0  0  0  0  0  0  0
   -6.6317    4.4819  -35.8654 C   0  0  0  0  0  0  0  0  0  0  0  0
   -6.0167    6.7792  -36.2996 C   0  0  0  0  0  0  0  0  0  0  0  0
   -6.1206    5.5086  -36.7138 C   0  0  0  0  0  0  0  0  0  0  0  0
   -5.3685    4.9236  -39.1195 N   0  0  0  0  0  0  0  0  0  0  0  0
   -7.0472    3.6439  -35.1783 N   0  0  0  0  0  0  0  0  0  0  0  0
   -6.4602    7.3652  -34.7475 Cl  0  0  0  0  0  0  0  0  0  0  0  0
   -5.6330    7.5817  -36.9188 H   0  0  0  0  0  0  0  0  0  0  0  0
  1  4  1  0  0  0  0
  1  5  3  0  0  0  0
  2  4  1  0  0  0  0
  2  6  3  0  0  0  0
  3  4  2  0  0  0  0
  3  7  1  0  0  0  0
  3  8  1  0  0  0  0
M  END
> <id>
EN300-82554

> <smiles>
ClC=C(C#N)C#N

> <MDLNUMBER>
MFCD20617465

> <IUPAC Name>
2-(chloromethylidene)propanedinitrile

> <CAS>
10472-09-0

> <Purity>
95

> <URL>
https://www.enaminestore.com/catalog/EN300-82554

> <MP>
18-19

> <ROCS_ShapeQuery>
_hit0

> <ROCS_TanimotoCombo>
1.024 

> <ROCS_ShapeTanimoto>
0.627 

> <ROCS_ColorTanimoto>
0.397 

> <ROCS_RefTversky>
1.247 

> <ROCS_RefColorTversky>
0.438 

> <ROCS_RefTverskyCombo>
1.684 

> <ROCS_FitTversky>
0.558 

> <ROCS_FitColorTversky>
0.813 

> <ROCS_FitTverskyCombo>
1.370 

> <ROCS_ColorScore>
-1.706

> <ROCS_Overlap>
145.216

> <ROCS_Rank>
250                 

$$$$
untitled-dbase-319_0
  -OEChem-06232314393D

 11 11  0     0  0  0  0  0  0999 V2000
   -5.9363    4.9488  -37.4678 C   0  0  0  0  0  0  0  0  0  0  0  0
   -6.4314    5.8593  -35.3482 C   0  0  0  0  0  0  0  0  0  0  0  0
   -6.4426    4.0458  -36.6553 N   0  0  0  0  0  0  0  0  0  0  0  0
   -6.7339    4.5802  -35.4123 N   0  0  0  0  0  0  0  0  0  0  0  0
   -5.5587    4.7186  -38.7514 N   0  0  0  0  0  0  0  0  0  0  0  0
   -6.6053    6.6480  -34.2568 N   0  0  0  0  0  0  0  0  0  0  0  0
   -5.7712    6.5151  -36.7889 S   0  0  0  0  0  0  0  0  0  0  0  0
   -5.2127    5.4723  -39.3566 H   0  0  0  0  0  0  0  0  0  0  0  0
   -5.6919    3.8037  -39.1981 H   0  0  0  0  0  0  0  0  0  0  0  0
   -6.3076    7.6305  -34.2469 H   0  0  0  0  0  0  0  0  0  0  0  0
   -6.9538    6.2709  -33.3677 H   0  0  0  0  0  0  0  0  0  0  0  0
  1  3  2  0  0  0  0
  1  5  1  0  0  0  0
  1  7  1  0  0  0  0
  2  4  2  0  0  0  0
  2  6  1  0  0  0  0
  2  7  1  0  0  0  0
  3  4  1  0  0  0  0
  5  8  1  0  0  0  0
  5  9  1  0  0  0  0
  6 10  1  0  0  0  0
  6 11  1  0  0  0  0
M  END
> <id>
EN300-05352

> <smiles>
NC1=NN=C(N)S1

> <MDLNUMBER>
MFCD00043511

> <IUPAC Name>
1,3,4-thiadiazole-2,5-diamine

> <CAS>
2937-81-7

> <Purity>
95

> <URL>
https://www.enaminestore.com/catalog/EN300-05352

> <MP>
197-200

> <ROCS_ShapeQuery>
_hit0

> <ROCS_TanimotoCombo>
1.023 

> <ROCS_ShapeTanimoto>
0.548 

> <ROCS_ColorTanimoto>
0.475 

> <ROCS_RefTversky>
1.197 

> <ROCS_RefColorTversky>
0.875 

> <ROCS_RefTverskyCombo>
2.071 

> <ROCS_FitTversky>
0.503 

> <ROCS_FitColorTversky>
0.510 

> <ROCS_FitTverskyCombo>
1.013 

> <ROCS_ColorScore>
-3.644

> <ROCS_Overlap>
140.559

> <ROCS_Rank>
251                 

$$$$
untitled-dbase-48179_0
  -OEChem-06232314393D

 17 17  0     0  0  0  0  0  0999 V2000
   -6.0114    5.7318  -36.5816 C   0  0  0  0  0  0  0  0  0  0  0  0
   -5.9737    4.7238  -37.5138 C   0  0  0  0  0  0  0  0  0  0  0  0
   -6.5056    3.6054  -36.8444 C   0  0  0  0  0  0  0  0  0  0  0  0
   -6.7012    2.2424  -37.3704 C   0  0  0  0  0  0  0  0  0  0  0  0
   -6.7781    5.8493  -34.1988 C   0  0  0  0  0  0  0  0  0  0  0  0
   -6.8553    3.8768  -35.5842 N   0  0  0  0  0  0  0  0  0  0  0  0
   -6.5425    5.1774  -35.4543 N   0  0  0  0  0  0  0  0  0  0  0  0
   -5.5230    4.8036  -38.7808 N   0  0  0  0  0  0  0  0  0  0  0  0
   -5.7141    6.7712  -36.6224 H   0  0  0  0  0  0  0  0  0  0  0  0
   -5.8111    1.6150  -37.1949 H   0  0  0  0  0  0  0  0  0  0  0  0
   -7.5636    1.7359  -36.9026 H   0  0  0  0  0  0  0  0  0  0  0  0
   -6.9016    2.2406  -38.4564 H   0  0  0  0  0  0  0  0  0  0  0  0
   -7.7869    6.2696  -34.2253 H   0  0  0  0  0  0  0  0  0  0  0  0
   -6.6842    5.1320  -33.3787 H   0  0  0  0  0  0  0  0  0  0  0  0
   -6.0359    6.6418  -34.0683 H   0  0  0  0  0  0  0  0  0  0  0  0
   -5.4859    3.9825  -39.4053 H   0  0  0  0  0  0  0  0  0  0  0  0
   -5.1040    5.6662  -39.1631 H   0  0  0  0  0  0  0  0  0  0  0  0
  1  2  2  0  0  0  0
  1  7  1  0  0  0  0
  2  3  1  0  0  0  0
  2  8  1  0  0  0  0
  3  4  1  0  0  0  0
  3  6  2  0  0  0  0
  5  7  1  0  0  0  0
  6  7  1  0  0  0  0
  1  9  1  0  0  0  0
  4 10  1  0  0  0  0
  4 11  1  0  0  0  0
  4 12  1  0  0  0  0
  5 13  1  0  0  0  0
  5 14  1  0  0  0  0
  5 15  1  0  0  0  0
  8 16  1  0  0  0  0
  8 17  1  0  0  0  0
M  END
> <id>
EN300-298812

> <smiles>
Cl.Cl.CC1=NN(C)C=C1N

> <MDLNUMBER>
MFCD07625944

> <IUPAC Name>
1,3-dimethyl-1H-pyrazol-4-amine dihydrochloride

> <CAS>
197367-87-6

> <Purity>
95

> <URL>
https://www.enaminestore.com/catalog/EN300-298812

> <Saltdate>
Cl

> <MP>
233-236

> <ROCS_ShapeQuery>
_hit0

> <ROCS_TanimotoCombo>
1.023 

> <ROCS_ShapeTanimoto>
0.426 

> <ROCS_ColorTanimoto>
0.597 

> <ROCS_RefTversky>
1.137 

> <ROCS_RefColorTversky>
0.748 

> <ROCS_RefTverskyCombo>
1.885 

> <ROCS_FitTversky>
0.405 

> <ROCS_FitColorTversky>
0.748 

> <ROCS_FitTverskyCombo>
1.153 

> <ROCS_ColorScore>
-2.991

> <ROCS_Overlap>
137.144

> <ROCS_Rank>
252                 

$$$$
untitled-dbase-49818_0
  -OEChem-06232314393D

 17 17  0     0  0  0  0  0  0999 V2000
   -6.0114    5.7318  -36.5816 C   0  0  0  0  0  0  0  0  0  0  0  0
   -5.9737    4.7238  -37.5138 C   0  0  0  0  0  0  0  0  0  0  0  0
   -6.5056    3.6054  -36.8444 C   0  0  0  0  0  0  0  0  0  0  0  0
   -6.7012    2.2424  -37.3704 C   0  0  0  0  0  0  0  0  0  0  0  0
   -6.7781    5.8493  -34.1988 C   0  0  0  0  0  0  0  0  0  0  0  0
   -6.8553    3.8768  -35.5842 N   0  0  0  0  0  0  0  0  0  0  0  0
   -6.5425    5.1774  -35.4543 N   0  0  0  0  0  0  0  0  0  0  0  0
   -5.5230    4.8036  -38.7808 N   0  0  0  0  0  0  0  0  0  0  0  0
   -5.7141    6.7712  -36.6224 H   0  0  0  0  0  0  0  0  0  0  0  0
   -5.8111    1.6150  -37.1949 H   0  0  0  0  0  0  0  0  0  0  0  0
   -7.5636    1.7359  -36.9026 H   0  0  0  0  0  0  0  0  0  0  0  0
   -6.9016    2.2406  -38.4564 H   0  0  0  0  0  0  0  0  0  0  0  0
   -7.7869    6.2696  -34.2253 H   0  0  0  0  0  0  0  0  0  0  0  0
   -6.6842    5.1320  -33.3787 H   0  0  0  0  0  0  0  0  0  0  0  0
   -6.0359    6.6418  -34.0683 H   0  0  0  0  0  0  0  0  0  0  0  0
   -5.4859    3.9825  -39.4053 H   0  0  0  0  0  0  0  0  0  0  0  0
   -5.1040    5.6662  -39.1631 H   0  0  0  0  0  0  0  0  0  0  0  0
  1  2  2  0  0  0  0
  1  7  1  0  0  0  0
  2  3  1  0  0  0  0
  2  8  1  0  0  0  0
  3  4  1  0  0  0  0
  3  6  2  0  0  0  0
  5  7  1  0  0  0  0
  6  7  1  0  0  0  0
  1  9  1  0  0  0  0
  4 10  1  0  0  0  0
  4 11  1  0  0  0  0
  4 12  1  0  0  0  0
  5 13  1  0  0  0  0
  5 14  1  0  0  0  0
  5 15  1  0  0  0  0
  8 16  1  0  0  0  0
  8 17  1  0  0  0  0
M  END
> <id>
EN300-155587

> <smiles>
Cl.CC1=NN(C)C=C1N

> <MDLNUMBER>
MFCD02253769

> <IUPAC Name>
1,3-dimethyl-1H-pyrazol-4-amine hydrochloride

> <CAS>
1147222-02-3

> <Purity>
95

> <URL>
https://www.enaminestore.com/catalog/EN300-155587

> <Saltdate>
Cl

> <ROCS_ShapeQuery>
_hit0

> <ROCS_TanimotoCombo>
1.023 

> <ROCS_ShapeTanimoto>
0.426 

> <ROCS_ColorTanimoto>
0.597 

> <ROCS_RefTversky>
1.137 

> <ROCS_RefColorTversky>
0.748 

> <ROCS_RefTverskyCombo>
1.885 

> <ROCS_FitTversky>
0.405 

> <ROCS_FitColorTversky>
0.748 

> <ROCS_FitTverskyCombo>
1.153 

> <ROCS_ColorScore>
-2.991

> <ROCS_Overlap>
137.144

> <ROCS_Rank>
253                 

$$$$
untitled-dbase-2185_0
  -OEChem-06232314393D

 17 17  0     0  0  0  0  0  0999 V2000
   -6.0114    5.7318  -36.5816 C   0  0  0  0  0  0  0  0  0  0  0  0
   -5.9737    4.7238  -37.5138 C   0  0  0  0  0  0  0  0  0  0  0  0
   -6.5056    3.6054  -36.8444 C   0  0  0  0  0  0  0  0  0  0  0  0
   -6.7012    2.2424  -37.3704 C   0  0  0  0  0  0  0  0  0  0  0  0
   -6.7781    5.8493  -34.1988 C   0  0  0  0  0  0  0  0  0  0  0  0
   -6.8553    3.8768  -35.5842 N   0  0  0  0  0  0  0  0  0  0  0  0
   -6.5425    5.1774  -35.4543 N   0  0  0  0  0  0  0  0  0  0  0  0
   -5.5230    4.8036  -38.7808 N   0  0  0  0  0  0  0  0  0  0  0  0
   -5.7141    6.7712  -36.6224 H   0  0  0  0  0  0  0  0  0  0  0  0
   -5.8111    1.6150  -37.1949 H   0  0  0  0  0  0  0  0  0  0  0  0
   -7.5636    1.7359  -36.9026 H   0  0  0  0  0  0  0  0  0  0  0  0
   -6.9016    2.2406  -38.4564 H   0  0  0  0  0  0  0  0  0  0  0  0
   -7.7869    6.2696  -34.2253 H   0  0  0  0  0  0  0  0  0  0  0  0
   -6.6842    5.1320  -33.3787 H   0  0  0  0  0  0  0  0  0  0  0  0
   -6.0359    6.6418  -34.0683 H   0  0  0  0  0  0  0  0  0  0  0  0
   -5.4859    3.9825  -39.4053 H   0  0  0  0  0  0  0  0  0  0  0  0
   -5.1040    5.6662  -39.1631 H   0  0  0  0  0  0  0  0  0  0  0  0
  1  2  2  0  0  0  0
  1  7  1  0  0  0  0
  2  3  1  0  0  0  0
  2  8  1  0  0  0  0
  3  4  1  0  0  0  0
  3  6  2  0  0  0  0
  5  7  1  0  0  0  0
  6  7  1  0  0  0  0
  1  9  1  0  0  0  0
  4 10  1  0  0  0  0
  4 11  1  0  0  0  0
  4 12  1  0  0  0  0
  5 13  1  0  0  0  0
  5 14  1  0  0  0  0
  5 15  1  0  0  0  0
  8 16  1  0  0  0  0
  8 17  1  0  0  0  0
M  END
> <id>
EN300-84117

> <smiles>
CC1=NN(C)C=C1N

> <MDLNUMBER>
MFCD02055826

> <IUPAC Name>
1,3-dimethyl-1H-pyrazol-4-amine

> <CAS>
64517-88-0

> <URL>
https://www.enaminestore.com/catalog/EN300-84117

> <MP>
120-121

> <ROCS_ShapeQuery>
_hit0

> <ROCS_TanimotoCombo>
1.023 

> <ROCS_ShapeTanimoto>
0.426 

> <ROCS_ColorTanimoto>
0.597 

> <ROCS_RefTversky>
1.137 

> <ROCS_RefColorTversky>
0.748 

> <ROCS_RefTverskyCombo>
1.885 

> <ROCS_FitTversky>
0.405 

> <ROCS_FitColorTversky>
0.748 

> <ROCS_FitTverskyCombo>
1.153 

> <ROCS_ColorScore>
-2.991

> <ROCS_Overlap>
137.144

> <ROCS_Rank>
254                 

$$$$
untitled-dbase-20955_0
  -OEChem-06232314393D

 16 16  0     0  0  0  0  0  0999 V2000
   -6.0561    5.7386  -36.6158 C   0  0  0  0  0  0  0  0  0  0  0  0
   -5.9786    4.7119  -37.5248 C   0  0  0  0  0  0  0  0  0  0  0  0
   -6.4814    3.5924  -36.8350 C   0  0  0  0  0  0  0  0  0  0  0  0
   -6.6277    2.2157  -37.3383 C   0  0  0  0  0  0  0  0  0  0  0  0
   -6.8503    5.8851  -34.2436 C   0  0  0  0  0  0  0  0  0  0  0  0
   -6.8508    3.8807  -35.5842 N   0  0  0  0  0  0  0  0  0  0  0  0
   -6.5798    5.1929  -35.4809 N   0  0  0  0  0  0  0  0  0  0  0  0
   -5.5188    4.8070  -38.7779 O   0  0  0  0  0  0  0  0  0  0  0  0
   -5.7895    6.7849  -36.6789 H   0  0  0  0  0  0  0  0  0  0  0  0
   -5.7196    1.6199  -37.1440 H   0  0  0  0  0  0  0  0  0  0  0  0
   -7.4778    1.6888  -36.8696 H   0  0  0  0  0  0  0  0  0  0  0  0
   -6.8176    2.1877  -38.4261 H   0  0  0  0  0  0  0  0  0  0  0  0
   -7.8722    6.2707  -34.2892 H   0  0  0  0  0  0  0  0  0  0  0  0
   -6.7409    5.1904  -33.4062 H   0  0  0  0  0  0  0  0  0  0  0  0
   -6.1362    6.7048  -34.1245 H   0  0  0  0  0  0  0  0  0  0  0  0
   -5.2325    5.7192  -38.9873 H   0  0  0  0  0  0  0  0  0  0  0  0
  1  2  2  0  0  0  0
  1  7  1  0  0  0  0
  2  3  1  0  0  0  0
  2  8  1  0  0  0  0
  3  4  1  0  0  0  0
  3  6  2  0  0  0  0
  5  7  1  0  0  0  0
  6  7  1  0  0  0  0
  1  9  1  0  0  0  0
  4 10  1  0  0  0  0
  4 11  1  0  0  0  0
  4 12  1  0  0  0  0
  5 13  1  0  0  0  0
  5 14  1  0  0  0  0
  5 15  1  0  0  0  0
  8 16  1  0  0  0  0
M  END
> <id>
EN300-1766729

> <smiles>
CC1=NN(C)C=C1O

> <MDLNUMBER>
MFCD23110698

> <IUPAC Name>
1,3-dimethyl-1H-pyrazol-4-ol

> <CAS>
85985-66-6

> <URL>
https://www.enaminestore.com/catalog/EN300-1766729

> <ROCS_ShapeQuery>
_hit0

> <ROCS_TanimotoCombo>
1.023 

> <ROCS_ShapeTanimoto>
0.426 

> <ROCS_ColorTanimoto>
0.597 

> <ROCS_RefTversky>
1.138 

> <ROCS_RefColorTversky>
0.747 

> <ROCS_RefTverskyCombo>
1.886 

> <ROCS_FitTversky>
0.405 

> <ROCS_FitColorTversky>
0.747 

> <ROCS_FitTverskyCombo>
1.153 

> <ROCS_ColorScore>
-2.990

> <ROCS_Overlap>
137.269

> <ROCS_Rank>
255                 

$$$$
untitled-dbase-5189_0
  -OEChem-06232314393D

 19 19  0     0  0  0  0  0  0999 V2000
   -6.2594    6.1445  -35.4318 C   0  0  0  0  0  0  0  0  0  0  0  0
   -6.7703    4.9868  -34.8673 C   0  0  0  0  0  0  0  0  0  0  0  0
   -5.8345    6.0908  -36.7546 C   0  0  0  0  0  0  0  0  0  0  0  0
   -5.9319    4.8980  -37.4624 C   0  0  0  0  0  0  0  0  0  0  0  0
   -6.4572    3.7961  -36.8069 C   0  0  0  0  0  0  0  0  0  0  0  0
   -5.2800    7.3253  -37.3869 C   0  0  0  0  0  0  0  0  0  0  0  0
   -6.5908    2.4859  -37.5131 C   0  0  0  0  0  0  0  0  0  0  0  0
   -6.8805    3.8098  -35.5231 N   0  0  0  0  0  0  0  0  0  0  0  0
   -5.5093    4.8155  -38.8033 N   0  0  0  0  0  0  0  0  0  0  0  0
   -6.1967    7.0589  -34.8518 H   0  0  0  0  0  0  0  0  0  0  0  0
   -7.1160    4.9769  -33.8387 H   0  0  0  0  0  0  0  0  0  0  0  0
   -4.1959    7.3761  -37.2339 H   0  0  0  0  0  0  0  0  0  0  0  0
   -5.4824    7.3435  -38.4648 H   0  0  0  0  0  0  0  0  0  0  0  0
   -5.7361    8.2276  -36.9610 H   0  0  0  0  0  0  0  0  0  0  0  0
   -5.6811    1.8894  -37.3802 H   0  0  0  0  0  0  0  0  0  0  0  0
   -7.4439    1.9143  -37.1281 H   0  0  0  0  0  0  0  0  0  0  0  0
   -6.7611    2.6309  -38.5868 H   0  0  0  0  0  0  0  0  0  0  0  0
   -5.5465    3.9335  -39.2753 H   0  0  0  0  0  0  0  0  0  0  0  0
   -5.0907    5.6157  -39.2350 H   0  0  0  0  0  0  0  0  0  0  0  0
  1  2  1  0  0  0  0
  1  3  2  0  0  0  0
  2  8  2  0  0  0  0
  3  4  1  0  0  0  0
  3  6  1  0  0  0  0
  4  5  2  0  0  0  0
  4  9  1  0  0  0  0
  5  7  1  0  0  0  0
  5  8  1  0  0  0  0
  1 10  1  0  0  0  0
  2 11  1  0  0  0  0
  6 12  1  0  0  0  0
  6 13  1  0  0  0  0
  6 14  1  0  0  0  0
  7 15  1  0  0  0  0
  7 16  1  0  0  0  0
  7 17  1  0  0  0  0
  9 18  1  0  0  0  0
  9 19  1  0  0  0  0
M  END
> <id>
EN300-206276

> <smiles>
CC=1C=CN=C(C)C1N

> <MDLNUMBER>
MFCD08235192

> <IUPAC Name>
2,4-dimethylpyridin-3-amine

> <CAS>
1073-21-8

> <Purity>
95

> <URL>
https://www.enaminestore.com/catalog/EN300-206276

> <MP>
51-54

> <ROCS_ShapeQuery>
_hit0

> <ROCS_TanimotoCombo>
1.023 

> <ROCS_ShapeTanimoto>
0.423 

> <ROCS_ColorTanimoto>
0.600 

> <ROCS_RefTversky>
1.206 

> <ROCS_RefColorTversky>
0.750 

> <ROCS_RefTverskyCombo>
1.956 

> <ROCS_FitTversky>
0.394 

> <ROCS_FitColorTversky>
0.750 

> <ROCS_FitTverskyCombo>
1.144 

> <ROCS_ColorScore>
-3.000

> <ROCS_Overlap>
147.717

> <ROCS_Rank>
256                 

$$$$
untitled-dbase-24114_0
  -OEChem-06232314393D

 16 16  0     0  0  0  0  0  0999 V2000
   -6.3235    6.1634  -35.4475 C   0  0  0  0  0  0  0  0  0  0  0  0
   -6.8093    4.9975  -34.8780 C   0  0  0  0  0  0  0  0  0  0  0  0
   -5.9465    4.9099  -37.4652 C   0  0  0  0  0  0  0  0  0  0  0  0
   -5.8859    6.1103  -36.7662 C   0  0  0  0  0  0  0  0  0  0  0  0
   -6.4490    3.8000  -36.8052 C   0  0  0  0  0  0  0  0  0  0  0  0
   -6.5408    2.4802  -37.5003 C   0  0  0  0  0  0  0  0  0  0  0  0
   -6.8836    3.8129  -35.5252 N   0  0  0  0  0  0  0  0  0  0  0  0
   -5.5134    4.8155  -38.8029 N   0  0  0  0  0  0  0  0  0  0  0  0
   -5.2776    7.5531  -37.4939 Cl  0  0  0  0  0  0  0  0  0  0  0  0
   -6.2920    7.0808  -34.8686 H   0  0  0  0  0  0  0  0  0  0  0  0
   -7.1629    4.9859  -33.8523 H   0  0  0  0  0  0  0  0  0  0  0  0
   -5.6171    1.9093  -37.3528 H   0  0  0  0  0  0  0  0  0  0  0  0
   -7.3823    1.8899  -37.1184 H   0  0  0  0  0  0  0  0  0  0  0  0
   -6.7039    2.6109  -38.5769 H   0  0  0  0  0  0  0  0  0  0  0  0
   -5.5275    3.9256  -39.2599 H   0  0  0  0  0  0  0  0  0  0  0  0
   -5.1109    5.6183  -39.2441 H   0  0  0  0  0  0  0  0  0  0  0  0
  1  2  2  0  0  0  0
  1  4  1  0  0  0  0
  2  7  1  0  0  0  0
  3  4  2  0  0  0  0
  3  5  1  0  0  0  0
  3  8  1  0  0  0  0
  4  9  1  0  0  0  0
  5  6  1  0  0  0  0
  5  7  2  0  0  0  0
  1 10  1  0  0  0  0
  2 11  1  0  0  0  0
  6 12  1  0  0  0  0
  6 13  1  0  0  0  0
  6 14  1  0  0  0  0
  8 15  1  0  0  0  0
  8 16  1  0  0  0  0
M  END
> <id>
EN300-170620

> <smiles>
CC=1N=CC=C(Cl)C1N

> <MDLNUMBER>
MFCD16606134

> <IUPAC Name>
4-chloro-2-methylpyridin-3-amine

> <CAS>
1211399-74-4

> <Purity>
95

> <URL>
https://www.enaminestore.com/catalog/EN300-170620

> <ROCS_ShapeQuery>
_hit0

> <ROCS_TanimotoCombo>
1.023 

> <ROCS_ShapeTanimoto>
0.423 

> <ROCS_ColorTanimoto>
0.600 

> <ROCS_RefTversky>
1.193 

> <ROCS_RefColorTversky>
0.750 

> <ROCS_RefTverskyCombo>
1.942 

> <ROCS_FitTversky>
0.396 

> <ROCS_FitColorTversky>
0.750 

> <ROCS_FitTverskyCombo>
1.146 

> <ROCS_ColorScore>
-3.000

> <ROCS_Overlap>
145.624

> <ROCS_Rank>
257                 

$$$$
untitled-dbase-216_24
  -OEChem-06232314393D

 16 15  0     0  0  0  0  0  0999 V2000
   -6.4460    5.4541  -36.0567 C   0  0  0  0  0  0  0  0  0  0  0  0
   -4.7983    6.8434  -37.3778 C   0  0  0  0  0  0  0  0  0  0  0  0
   -5.7129    4.7997  -38.3963 C   0  0  0  0  0  0  0  0  0  0  0  0
   -6.4327    6.8789  -34.0790 N   0  0  0  0  0  0  0  0  0  0  0  0
   -6.8172    6.6253  -35.3869 N   0  0  0  0  0  0  0  0  0  0  0  0
   -5.6828    5.6864  -37.2311 N   0  0  0  0  0  0  0  0  0  0  0  0
   -6.8783    3.9099  -35.5048 S   0  0  0  0  0  0  0  0  0  0  0  0
   -3.7928    6.5855  -37.0138 H   0  0  0  0  0  0  0  0  0  0  0  0
   -4.7419    7.1295  -38.4384 H   0  0  0  0  0  0  0  0  0  0  0  0
   -5.1955    7.6852  -36.7916 H   0  0  0  0  0  0  0  0  0  0  0  0
   -6.5027    5.1286  -39.0877 H   0  0  0  0  0  0  0  0  0  0  0  0
   -4.7399    4.8339  -38.9082 H   0  0  0  0  0  0  0  0  0  0  0  0
   -5.9186    3.7701  -38.0681 H   0  0  0  0  0  0  0  0  0  0  0  0
   -6.4711    5.9888  -33.5841 H   0  0  0  0  0  0  0  0  0  0  0  0
   -7.1593    7.4627  -33.6667 H   0  0  0  0  0  0  0  0  0  0  0  0
   -7.3247    7.3703  -35.8509 H   0  0  0  0  0  0  0  0  0  0  0  0
  1  5  1  0  0  0  0
  1  6  1  0  0  0  0
  1  7  2  0  0  0  0
  2  6  1  0  0  0  0
  3  6  1  0  0  0  0
  4  5  1  0  0  0  0
  2  8  1  0  0  0  0
  2  9  1  0  0  0  0
  2 10  1  0  0  0  0
  3 11  1  0  0  0  0
  3 12  1  0  0  0  0
  3 13  1  0  0  0  0
  4 14  1  0  0  0  0
  4 15  1  0  0  0  0
  5 16  1  0  0  0  0
M  END
> <id>
EN300-73512

> <smiles>
CN(C)C(=S)NN

> <MDLNUMBER>
MFCD00041308

> <IUPAC Name>
3-amino-1,1-dimethylthiourea

> <CAS>
6926-58-5

> <Purity>
95

> <URL>
https://www.enaminestore.com/catalog/EN300-73512

> <MP>
149-153

> <ROCS_ShapeQuery>
_hit0

> <ROCS_TanimotoCombo>
1.022 

> <ROCS_ShapeTanimoto>
0.592 

> <ROCS_ColorTanimoto>
0.430 

> <ROCS_RefTversky>
1.180 

> <ROCS_RefColorTversky>
0.553 

> <ROCS_RefTverskyCombo>
1.733 

> <ROCS_FitTversky>
0.543 

> <ROCS_FitColorTversky>
0.659 

> <ROCS_FitTverskyCombo>
1.202 

> <ROCS_ColorScore>
-2.194

> <ROCS_Overlap>
136.906

> <ROCS_Rank>
258                 

$$$$
untitled-dbase-28842_0
  -OEChem-06232314393D

 20 20  0     1  0  0  0  0  0999 V2000
   -6.8288    3.3113  -35.5733 C   0  0  0  0  0  0  0  0  0  0  0  0
   -7.1357    4.6108  -34.8356 C   0  0  0  0  0  0  0  0  0  0  0  0
   -6.6389    3.5483  -37.0682 C   0  0  0  0  0  0  0  0  0  0  0  0
   -5.8910    5.9124  -36.6024 C   0  0  0  0  0  0  0  0  0  0  0  0
   -6.0767    5.6782  -35.1051 C   0  0  1  0  0  0  0  0  0  0  0  0
   -5.5790    4.6137  -37.3422 C   0  0  2  0  0  0  0  0  0  0  0  0
   -6.4822    6.8897  -34.4776 O   0  0  0  0  0  0  0  0  0  0  0  0
   -5.5334    4.8598  -38.7433 O   0  0  0  0  0  0  0  0  0  0  0  0
   -5.9194    2.8612  -35.1566 H   0  0  0  0  0  0  0  0  0  0  0  0
   -7.6422    2.5947  -35.4138 H   0  0  0  0  0  0  0  0  0  0  0  0
   -8.1229    4.9852  -35.1367 H   0  0  0  0  0  0  0  0  0  0  0  0
   -7.2069    4.4233  -33.7574 H   0  0  0  0  0  0  0  0  0  0  0  0
   -6.3590    2.6116  -37.5651 H   0  0  0  0  0  0  0  0  0  0  0  0
   -7.5925    3.8501  -37.5210 H   0  0  0  0  0  0  0  0  0  0  0  0
   -6.7886    6.3832  -37.0263 H   0  0  0  0  0  0  0  0  0  0  0  0
   -5.0925    6.6457  -36.7735 H   0  0  0  0  0  0  0  0  0  0  0  0
   -5.1255    5.3704  -34.6547 H   0  0  0  0  0  0  0  0  0  0  0  0
   -4.5955    4.2373  -37.0365 H   0  0  0  0  0  0  0  0  0  0  0  0
   -5.7920    7.5451  -34.6662 H   0  0  0  0  0  0  0  0  0  0  0  0
   -4.8539    5.5379  -38.8846 H   0  0  0  0  0  0  0  0  0  0  0  0
  1  2  1  0  0  0  0
  1  3  1  0  0  0  0
  2  5  1  0  0  0  0
  3  6  1  0  0  0  0
  4  5  1  0  0  0  0
  4  6  1  0  0  0  0
  5  7  1  0  0  0  0
  6  8  1  0  0  0  0
  1  9  1  0  0  0  0
  1 10  1  0  0  0  0
  2 11  1  0  0  0  0
  2 12  1  0  0  0  0
  3 13  1  0  0  0  0
  3 14  1  0  0  0  0
  4 15  1  0  0  0  0
  4 16  1  0  0  0  0
  5 17  1  0  0  0  0
  6 18  1  0  0  0  0
  7 19  1  0  0  0  0
  8 20  1  0  0  0  0
M  END
> <id>
EN300-20001

> <smiles>
OC1CCCC(O)C1

> <MDLNUMBER>
MFCD00039458

> <IUPAC Name>
cyclohexane-1,3-diol

> <CAS>
504-01-8

> <Purity>
95

> <URL>
https://www.enaminestore.com/catalog/EN300-20001

> <ROCS_ShapeQuery>
_hit0

> <ROCS_TanimotoCombo>
1.022 

> <ROCS_ShapeTanimoto>
0.530 

> <ROCS_ColorTanimoto>
0.492 

> <ROCS_RefTversky>
1.247 

> <ROCS_RefColorTversky>
0.733 

> <ROCS_RefTverskyCombo>
1.980 

> <ROCS_FitTversky>
0.480 

> <ROCS_FitColorTversky>
0.599 

> <ROCS_FitTverskyCombo>
1.079 

> <ROCS_ColorScore>
-2.967

> <ROCS_Overlap>
148.472

> <ROCS_Rank>
259                 

$$$$
untitled-dbase-26543_4
  -OEChem-06232314393D

 11 10  0     0  0  0  0  0  0999 V2000
   -6.4186    5.4582  -36.0789 C   0  0  0  0  0  0  0  0  0  0  0  0
   -5.5819    5.5809  -37.3311 C   0  0  0  0  0  0  0  0  0  0  0  0
   -6.4318    6.8542  -34.1225 N   0  0  0  0  0  0  0  0  0  0  0  0
   -6.7953    6.6061  -35.4312 N   0  0  0  0  0  0  0  0  0  0  0  0
   -6.8752    3.9544  -35.4930 S   0  0  0  0  0  0  0  0  0  0  0  0
   -4.5195    5.5709  -37.0655 H   0  0  0  0  0  0  0  0  0  0  0  0
   -5.8041    6.5293  -37.8312 H   0  0  0  0  0  0  0  0  0  0  0  0
   -5.7691    4.7664  -38.0371 H   0  0  0  0  0  0  0  0  0  0  0  0
   -6.4048    5.9533  -33.6470 H   0  0  0  0  0  0  0  0  0  0  0  0
   -7.1975    7.3750  -33.6966 H   0  0  0  0  0  0  0  0  0  0  0  0
   -7.3571    7.3067  -35.9042 H   0  0  0  0  0  0  0  0  0  0  0  0
  1  2  1  0  0  0  0
  1  4  1  0  0  0  0
  1  5  2  0  0  0  0
  3  4  1  0  0  0  0
  2  6  1  0  0  0  0
  2  7  1  0  0  0  0
  2  8  1  0  0  0  0
  3  9  1  0  0  0  0
  3 10  1  0  0  0  0
  4 11  1  0  0  0  0
M  END
> <id>
EN300-7355774

> <smiles>
CC(=S)NN.CC(=S)NN.CC(=S)NN.Cl[Ni]Cl

> <MDLNUMBER>
MFCD31924387

> <IUPAC Name>
tris(N-aminoethanethioamide); dichloronickel

> <CAS>
69952-74-5

> <Purity>
95

> <URL>
https://www.enaminestore.com/catalog/EN300-7355774

> <Saltdate>
Cl[Ni]Cl

> <ROCS_ShapeQuery>
_hit0

> <ROCS_TanimotoCombo>
1.021 

> <ROCS_ShapeTanimoto>
0.597 

> <ROCS_ColorTanimoto>
0.424 

> <ROCS_RefTversky>
0.949 

> <ROCS_RefColorTversky>
0.548 

> <ROCS_RefTverskyCombo>
1.498 

> <ROCS_FitTversky>
0.616 

> <ROCS_FitColorTversky>
0.653 

> <ROCS_FitTverskyCombo>
1.269 

> <ROCS_ColorScore>
-2.174

> <ROCS_Overlap>
106.115

> <ROCS_Rank>
260                 

$$$$
untitled-dbase-41244_4
  -OEChem-06232314393D

 11 10  0     0  0  0  0  0  0999 V2000
   -6.4186    5.4582  -36.0789 C   0  0  0  0  0  0  0  0  0  0  0  0
   -5.5819    5.5809  -37.3311 C   0  0  0  0  0  0  0  0  0  0  0  0
   -6.4318    6.8542  -34.1225 N   0  0  0  0  0  0  0  0  0  0  0  0
   -6.7953    6.6061  -35.4312 N   0  0  0  0  0  0  0  0  0  0  0  0
   -6.8752    3.9544  -35.4930 S   0  0  0  0  0  0  0  0  0  0  0  0
   -4.5195    5.5709  -37.0655 H   0  0  0  0  0  0  0  0  0  0  0  0
   -5.8041    6.5293  -37.8312 H   0  0  0  0  0  0  0  0  0  0  0  0
   -5.7691    4.7664  -38.0371 H   0  0  0  0  0  0  0  0  0  0  0  0
   -6.4048    5.9533  -33.6470 H   0  0  0  0  0  0  0  0  0  0  0  0
   -7.1975    7.3750  -33.6966 H   0  0  0  0  0  0  0  0  0  0  0  0
   -7.3571    7.3067  -35.9042 H   0  0  0  0  0  0  0  0  0  0  0  0
  1  2  1  0  0  0  0
  1  4  1  0  0  0  0
  1  5  2  0  0  0  0
  3  4  1  0  0  0  0
  2  6  1  0  0  0  0
  2  7  1  0  0  0  0
  2  8  1  0  0  0  0
  3  9  1  0  0  0  0
  3 10  1  0  0  0  0
  4 11  1  0  0  0  0
M  END
> <id>
EN300-55039

> <smiles>
CC(=S)NN

> <MDLNUMBER>
MFCD19160567

> <IUPAC Name>
N-aminoethanethioamide

> <CAS>
62543-18-4

> <Purity>
95

> <URL>
https://www.enaminestore.com/catalog/EN300-55039

> <ROCS_ShapeQuery>
_hit0

> <ROCS_TanimotoCombo>
1.021 

> <ROCS_ShapeTanimoto>
0.597 

> <ROCS_ColorTanimoto>
0.424 

> <ROCS_RefTversky>
0.949 

> <ROCS_RefColorTversky>
0.548 

> <ROCS_RefTverskyCombo>
1.498 

> <ROCS_FitTversky>
0.616 

> <ROCS_FitColorTversky>
0.653 

> <ROCS_FitTverskyCombo>
1.269 

> <ROCS_ColorScore>
-2.174

> <ROCS_Overlap>
106.115

> <ROCS_Rank>
261                 

$$$$
untitled-dbase-1879_0
  -OEChem-06232314393D

 11 11  0     0  0  0  0  0  0999 V2000
   -6.4609    5.5063  -35.5102 C   0  0  0  0  0  0  0  0  0  0  0  0
   -5.9385    4.8601  -37.5214 C   0  0  0  0  0  0  0  0  0  0  0  0
   -5.9442    5.9099  -36.7297 N   0  0  0  0  0  0  0  0  0  0  0  0
   -6.8428    4.2443  -35.3149 N   0  0  0  0  0  0  0  0  0  0  0  0
   -6.5461    6.4694  -34.5511 N   0  0  0  0  0  0  0  0  0  0  0  0
   -5.5086    4.8305  -38.8076 N   0  0  0  0  0  0  0  0  0  0  0  0
   -6.5513    3.4502  -36.7588 S   0  0  0  0  0  0  0  0  0  0  0  0
   -6.2007    7.4201  -34.7135 H   0  0  0  0  0  0  0  0  0  0  0  0
   -6.8711    6.2550  -33.6034 H   0  0  0  0  0  0  0  0  0  0  0  0
   -5.4900    3.9599  -39.3528 H   0  0  0  0  0  0  0  0  0  0  0  0
   -5.0959    5.6555  -39.2598 H   0  0  0  0  0  0  0  0  0  0  0  0
  1  3  1  0  0  0  0
  1  4  2  0  0  0  0
  1  5  1  0  0  0  0
  2  3  2  0  0  0  0
  2  6  1  0  0  0  0
  2  7  1  0  0  0  0
  4  7  1  0  0  0  0
  5  8  1  0  0  0  0
  5  9  1  0  0  0  0
  6 10  1  0  0  0  0
  6 11  1  0  0  0  0
M  END
> <id>
EN300-106534

> <smiles>
NC1=NSC(N)=N1

> <MDLNUMBER>
MFCD00159795

> <IUPAC Name>
1,2,4-thiadiazole-3,5-diamine

> <CAS>
34283-30-2

> <Purity>
90

> <URL>
https://www.enaminestore.com/catalog/EN300-106534

> <MP>
167-171

> <ROCS_ShapeQuery>
_hit0

> <ROCS_TanimotoCombo>
1.021 

> <ROCS_ShapeTanimoto>
0.543 

> <ROCS_ColorTanimoto>
0.478 

> <ROCS_RefTversky>
1.195 

> <ROCS_RefColorTversky>
0.859 

> <ROCS_RefTverskyCombo>
2.055 

> <ROCS_FitTversky>
0.499 

> <ROCS_FitColorTversky>
0.519 

> <ROCS_FitTverskyCombo>
1.017 

> <ROCS_ColorScore>
-3.568

> <ROCS_Overlap>
140.531

> <ROCS_Rank>
262                 

$$$$
untitled-dbase-43653_0
  -OEChem-06232314393D

 12 12  0     0  0  0  0  0  0999 V2000
   -5.8173    6.0912  -36.8142 C   0  0  0  0  0  0  0  0  0  0  0  0
   -6.2372    6.1662  -35.4909 C   0  0  0  0  0  0  0  0  0  0  0  0
   -5.9250    4.8892  -37.5049 C   0  0  0  0  0  0  0  0  0  0  0  0
   -6.7536    5.0199  -34.9083 C   0  0  0  0  0  0  0  0  0  0  0  0
   -6.4551    3.8001  -36.8321 C   0  0  0  0  0  0  0  0  0  0  0  0
   -6.8738    3.8346  -35.5471 N   0  0  0  0  0  0  0  0  0  0  0  0
   -5.5161    4.8125  -38.7974 O   0  0  0  0  0  0  0  0  0  0  0  0
   -7.2949    5.0188  -33.2803 Cl  0  0  0  0  0  0  0  0  0  0  0  0
   -6.6361    2.2648  -37.5844 Cl  0  0  0  0  0  0  0  0  0  0  0  0
   -5.4076    6.9718  -37.3010 H   0  0  0  0  0  0  0  0  0  0  0  0
   -6.1572    7.0994  -34.9436 H   0  0  0  0  0  0  0  0  0  0  0  0
   -5.6528    3.9151  -39.1441 H   0  0  0  0  0  0  0  0  0  0  0  0
  1  2  1  0  0  0  0
  1  3  2  0  0  0  0
  2  4  2  0  0  0  0
  3  5  1  0  0  0  0
  3  7  1  0  0  0  0
  4  6  1  0  0  0  0
  4  8  1  0  0  0  0
  5  6  2  0  0  0  0
  5  9  1  0  0  0  0
  1 10  1  0  0  0  0
  2 11  1  0  0  0  0
  7 12  1  0  0  0  0
M  END
> <id>
EN300-114479

> <smiles>
OC=1C=CC(Cl)=NC1Cl

> <MDLNUMBER>
MFCD11044319

> <IUPAC Name>
2,6-dichloropyridin-3-ol

> <CAS>
52764-11-1

> <Purity>
95

> <URL>
https://www.enaminestore.com/catalog/EN300-114479

> <MP>
136-138

> <ROCS_ShapeQuery>
_hit0

> <ROCS_TanimotoCombo>
1.021 

> <ROCS_ShapeTanimoto>
0.421 

> <ROCS_ColorTanimoto>
0.600 

> <ROCS_RefTversky>
1.179 

> <ROCS_RefColorTversky>
0.750 

> <ROCS_RefTverskyCombo>
1.929 

> <ROCS_FitTversky>
0.396 

> <ROCS_FitColorTversky>
0.750 

> <ROCS_FitTverskyCombo>
1.146 

> <ROCS_ColorScore>
-2.999

> <ROCS_Overlap>
143.659

> <ROCS_Rank>
263                 

$$$$
untitled-dbase-34371_0
  -OEChem-06232314393D

 13 13  0     0  0  0  0  0  0999 V2000
   -5.8751    6.1033  -36.7928 C   0  0  0  0  0  0  0  0  0  0  0  0
   -6.3057    6.1766  -35.4728 C   0  0  0  0  0  0  0  0  0  0  0  0
   -5.9454    4.8937  -37.4750 C   0  0  0  0  0  0  0  0  0  0  0  0
   -6.7945    5.0211  -34.8849 C   0  0  0  0  0  0  0  0  0  0  0  0
   -6.4502    3.7956  -36.7974 C   0  0  0  0  0  0  0  0  0  0  0  0
   -6.8781    3.8282  -35.5154 N   0  0  0  0  0  0  0  0  0  0  0  0
   -5.5095    4.8172  -38.8103 N   0  0  0  0  0  0  0  0  0  0  0  0
   -7.3461    5.0179  -33.2602 Cl  0  0  0  0  0  0  0  0  0  0  0  0
   -6.5895    2.2431  -37.5277 Cl  0  0  0  0  0  0  0  0  0  0  0  0
   -5.4879    6.9946  -37.2794 H   0  0  0  0  0  0  0  0  0  0  0  0
   -6.2555    7.1161  -34.9325 H   0  0  0  0  0  0  0  0  0  0  0  0
   -5.1954    5.6482  -39.2732 H   0  0  0  0  0  0  0  0  0  0  0  0
   -5.6068    3.9545  -39.3102 H   0  0  0  0  0  0  0  0  0  0  0  0
  1  2  1  0  0  0  0
  1  3  2  0  0  0  0
  2  4  2  0  0  0  0
  3  5  1  0  0  0  0
  3  7  1  0  0  0  0
  4  6  1  0  0  0  0
  4  8  1  0  0  0  0
  5  6  2  0  0  0  0
  5  9  1  0  0  0  0
  1 10  1  0  0  0  0
  2 11  1  0  0  0  0
  7 12  1  0  0  0  0
  7 13  1  0  0  0  0
M  END
> <id>
EN300-104628

> <smiles>
NC=1C=CC(Cl)=NC1Cl

> <MDLNUMBER>
MFCD00023417

> <IUPAC Name>
2,6-dichloropyridin-3-amine

> <CAS>
62476-56-6

> <Purity>
95

> <URL>
https://www.enaminestore.com/catalog/EN300-104628

> <MP>
120-122

> <ROCS_ShapeQuery>
_hit0

> <ROCS_TanimotoCombo>
1.021 

> <ROCS_ShapeTanimoto>
0.421 

> <ROCS_ColorTanimoto>
0.600 

> <ROCS_RefTversky>
1.175 

> <ROCS_RefColorTversky>
0.750 

> <ROCS_RefTverskyCombo>
1.925 

> <ROCS_FitTversky>
0.396 

> <ROCS_FitColorTversky>
0.750 

> <ROCS_FitTverskyCombo>
1.146 

> <ROCS_ColorScore>
-2.999

> <ROCS_Overlap>
143.110

> <ROCS_Rank>
264                 

$$$$
untitled-dbase-5230_0
  -OEChem-06232314393D

 18 17  0     1  0  0  0  0  0999 V2000
   -6.3836    6.4257  -36.1520 C   0  0  0  0  0  0  0  0  0  0  0  0
   -6.2785    5.4890  -36.8965 C   0  0  0  0  0  0  0  0  0  0  0  0
   -7.7666    8.3739  -35.5454 C   0  0  0  0  0  0  0  0  0  0  0  0
   -7.5141    3.8131  -38.2159 C   0  0  0  0  0  0  0  0  0  0  0  0
   -6.5109    7.5713  -35.2431 C   0  0  1  0  0  0  0  0  0  0  0  0
   -6.1493    4.3435  -37.8052 C   0  0  1  0  0  0  0  0  0  0  0  0
   -6.5893    7.1174  -33.8947 O   0  0  0  0  0  0  0  0  0  0  0  0
   -5.4525    4.7334  -38.9853 O   0  0  0  0  0  0  0  0  0  0  0  0
   -8.6667    7.7546  -35.4717 H   0  0  0  0  0  0  0  0  0  0  0  0
   -7.7160    8.7983  -36.5541 H   0  0  0  0  0  0  0  0  0  0  0  0
   -7.8733    9.2183  -34.8541 H   0  0  0  0  0  0  0  0  0  0  0  0
   -8.1140    4.5938  -38.6985 H   0  0  0  0  0  0  0  0  0  0  0  0
   -8.0737    3.4341  -37.3544 H   0  0  0  0  0  0  0  0  0  0  0  0
   -7.4062    3.0036  -38.9462 H   0  0  0  0  0  0  0  0  0  0  0  0
   -5.6352    8.2237  -35.3270 H   0  0  0  0  0  0  0  0  0  0  0  0
   -5.5776    3.5405  -37.3277 H   0  0  0  0  0  0  0  0  0  0  0  0
   -5.7693    6.6304  -33.7187 H   0  0  0  0  0  0  0  0  0  0  0  0
   -4.5790    5.0445  -38.7006 H   0  0  0  0  0  0  0  0  0  0  0  0
  1  2  3  0  0  0  0
  1  5  1  0  0  0  0
  2  6  1  0  0  0  0
  3  5  1  0  0  0  0
  4  6  1  0  0  0  0
  5  7  1  0  0  0  0
  6  8  1  0  0  0  0
  3  9  1  0  0  0  0
  3 10  1  0  0  0  0
  3 11  1  0  0  0  0
  4 12  1  0  0  0  0
  4 13  1  0  0  0  0
  4 14  1  0  0  0  0
  5 15  1  0  0  0  0
  6 16  1  0  0  0  0
  7 17  1  0  0  0  0
  8 18  1  0  0  0  0
M  END
> <id>
EN300-213339

> <smiles>
CC(O)C#CC(C)O

> <MDLNUMBER>
MFCD00004542

> <IUPAC Name>
hex-3-yne-2,5-diol

> <CAS>
3031-66-1

> <Purity>
95

> <URL>
https://www.enaminestore.com/catalog/EN300-213339

> <MP>
42-43

> <ROCS_ShapeQuery>
_hit0

> <ROCS_TanimotoCombo>
1.020 

> <ROCS_ShapeTanimoto>
0.511 

> <ROCS_ColorTanimoto>
0.509 

> <ROCS_RefTversky>
1.183 

> <ROCS_RefColorTversky>
0.675 

> <ROCS_RefTverskyCombo>
1.858 

> <ROCS_FitTversky>
0.474 

> <ROCS_FitColorTversky>
0.675 

> <ROCS_FitTverskyCombo>
1.149 

> <ROCS_ColorScore>
-2.699

> <ROCS_Overlap>
139.964

> <ROCS_Rank>
265                 

$$$$
untitled-dbase-5165_0
  -OEChem-06232314393D

 14 14  0     0  0  0  0  0  0999 V2000
   -6.8281    5.0129  -34.9673 C   0  0  0  0  0  0  0  0  0  0  0  0
   -6.4239    3.7673  -36.8421 C   0  0  0  0  0  0  0  0  0  0  0  0
   -6.3631    6.1369  -35.6138 C   0  0  0  0  0  0  0  0  0  0  0  0
   -5.9597    4.8914  -37.4889 C   0  0  0  0  0  0  0  0  0  0  0  0
   -6.3345    7.4521  -34.9164 C   0  0  0  0  0  0  0  0  0  0  0  0
   -6.8668    3.8079  -35.5698 N   0  0  0  0  0  0  0  0  0  0  0  0
   -5.9206    6.0963  -36.8862 N   0  0  0  0  0  0  0  0  0  0  0  0
   -5.5193    4.8105  -38.7796 O   0  0  0  0  0  0  0  0  0  0  0  0
   -7.1855    5.0378  -33.9446 H   0  0  0  0  0  0  0  0  0  0  0  0
   -6.4569    2.7966  -37.3223 H   0  0  0  0  0  0  0  0  0  0  0  0
   -5.3763    7.5922  -34.3993 H   0  0  0  0  0  0  0  0  0  0  0  0
   -6.4715    8.2830  -35.6219 H   0  0  0  0  0  0  0  0  0  0  0  0
   -7.1421    7.5307  -34.1756 H   0  0  0  0  0  0  0  0  0  0  0  0
   -5.2285    5.6824  -39.0857 H   0  0  0  0  0  0  0  0  0  0  0  0
  1  3  2  0  0  0  0
  1  6  1  0  0  0  0
  2  4  1  0  0  0  0
  2  6  2  0  0  0  0
  3  5  1  0  0  0  0
  3  7  1  0  0  0  0
  4  7  2  0  0  0  0
  4  8  1  0  0  0  0
  1  9  1  0  0  0  0
  2 10  1  0  0  0  0
  5 11  1  0  0  0  0
  5 12  1  0  0  0  0
  5 13  1  0  0  0  0
  8 14  1  0  0  0  0
M  END
> <id>
EN300-104726

> <smiles>
CC=1C=NC=C(O)N1

> <MDLNUMBER>
MFCD08705761

> <IUPAC Name>
6-methylpyrazin-2-ol

> <CAS>
20721-18-0

> <Purity>
95

> <URL>
https://www.enaminestore.com/catalog/EN300-104726

> <MP>
152-157

> <ROCS_ShapeQuery>
_hit0

> <ROCS_TanimotoCombo>
1.020 

> <ROCS_ShapeTanimoto>
0.521 

> <ROCS_ColorTanimoto>
0.500 

> <ROCS_RefTversky>
1.303 

> <ROCS_RefColorTversky>
0.741 

> <ROCS_RefTverskyCombo>
2.044 

> <ROCS_FitTversky>
0.464 

> <ROCS_FitColorTversky>
0.605 

> <ROCS_FitTverskyCombo>
1.070 

> <ROCS_ColorScore>
-3.002

> <ROCS_Overlap>
157.083

> <ROCS_Rank>
266                 

$$$$
untitled-dbase-14340_0
  -OEChem-06232314393D

 11 11  0     0  0  0  0  0  0999 V2000
   -6.5483    4.6778  -35.9872 C   0  0  0  0  0  0  0  0  0  0  0  0
   -6.0437    7.0853  -36.0761 C   0  0  0  0  0  0  0  0  0  0  0  0
   -5.2082    7.1411  -38.3888 C   0  0  0  0  0  0  0  0  0  0  0  0
   -6.0768    5.8420  -36.6682 C   0  0  0  0  0  0  0  0  0  0  0  0
   -5.5927    5.8742  -38.0079 C   0  0  0  0  0  0  0  0  0  0  0  0
   -6.9313    3.7322  -35.4342 N   0  0  0  0  0  0  0  0  0  0  0  0
   -5.5029    4.8207  -38.8397 O   0  0  0  0  0  0  0  0  0  0  0  0
   -5.4310    8.2846  -37.1338 S   0  0  0  0  0  0  0  0  0  0  0  0
   -6.3477    7.3564  -35.0740 H   0  0  0  0  0  0  0  0  0  0  0  0
   -4.8067    7.4533  -39.3429 H   0  0  0  0  0  0  0  0  0  0  0  0
   -5.1417    5.0864  -39.7067 H   0  0  0  0  0  0  0  0  0  0  0  0
  1  4  1  0  0  0  0
  1  6  3  0  0  0  0
  2  4  2  0  0  0  0
  2  8  1  0  0  0  0
  3  5  2  0  0  0  0
  3  8  1  0  0  0  0
  4  5  1  0  0  0  0
  5  7  1  0  0  0  0
  2  9  1  0  0  0  0
  3 10  1  0  0  0  0
  7 11  1  0  0  0  0
M  END
> <id>
EN300-1122159

> <smiles>
OC1=CSC=C1C#N

> <MDLNUMBER>
MFCD31589000

> <IUPAC Name>
4-hydroxythiophene-3-carbonitrile

> <CAS>
343268-31-5

> <URL>
https://www.enaminestore.com/catalog/EN300-1122159

> <ROCS_ShapeQuery>
_hit0

> <ROCS_TanimotoCombo>
1.020 

> <ROCS_ShapeTanimoto>
0.427 

> <ROCS_ColorTanimoto>
0.593 

> <ROCS_RefTversky>
1.096 

> <ROCS_RefColorTversky>
0.745 

> <ROCS_RefTverskyCombo>
1.840 

> <ROCS_FitTversky>
0.412 

> <ROCS_FitColorTversky>
0.745 

> <ROCS_FitTverskyCombo>
1.156 

> <ROCS_ColorScore>
-2.978

> <ROCS_Overlap>
130.935

> <ROCS_Rank>
267                 

$$$$
untitled-dbase-41948_0
  -OEChem-06232314393D

  8  8  0     0  0  0  0  0  0999 V2000
   -5.8607    5.9174  -36.6302 C   0  0  0  0  0  0  0  0  0  0  0  0
   -5.9723    4.7854  -37.4125 C   0  0  0  0  0  0  0  0  0  0  0  0
   -6.5291    3.6805  -36.7879 N   0  0  0  0  0  0  0  0  0  0  0  0
   -6.8500    3.9438  -35.5311 N   0  0  0  0  0  0  0  0  0  0  0  0
   -5.5592    4.7839  -38.6937 O   0  0  0  0  0  0  0  0  0  0  0  0
   -6.4884    5.5172  -35.0840 S   0  0  0  0  0  0  0  0  0  0  0  0
   -5.4676    6.8939  -36.8745 H   0  0  0  0  0  0  0  0  0  0  0  0
   -5.7053    3.9131  -39.1089 H   0  0  0  0  0  0  0  0  0  0  0  0
  1  2  2  0  0  0  0
  1  6  1  0  0  0  0
  2  3  1  0  0  0  0
  2  5  1  0  0  0  0
  3  4  2  0  0  0  0
  4  6  1  0  0  0  0
  1  7  1  0  0  0  0
  5  8  1  0  0  0  0
M  END
> <id>
EN300-1783570

> <smiles>
OC1=CSN=N1

> <MDLNUMBER>
MFCD32773573

> <IUPAC Name>
1,2,3-thiadiazol-4-ol

> <CAS>
120277-72-7

> <URL>
https://www.enaminestore.com/catalog/EN300-1783570

> <ROCS_ShapeQuery>
_hit0

> <ROCS_TanimotoCombo>
1.020 

> <ROCS_ShapeTanimoto>
0.516 

> <ROCS_ColorTanimoto>
0.504 

> <ROCS_RefTversky>
1.040 

> <ROCS_RefColorTversky>
0.771 

> <ROCS_RefTverskyCombo>
1.811 

> <ROCS_FitTversky>
0.506 

> <ROCS_FitColorTversky>
0.593 

> <ROCS_FitTverskyCombo>
1.099 

> <ROCS_ColorScore>
-3.136

> <ROCS_Overlap>
119.818

> <ROCS_Rank>
268                 

$$$$
untitled-dbase-14375_0
  -OEChem-06232314393D

 13 13  0     0  0  0  0  0  0999 V2000
   -6.2711    6.1525  -35.4257 C   0  0  0  0  0  0  0  0  0  0  0  0
   -6.7800    4.9905  -34.8683 C   0  0  0  0  0  0  0  0  0  0  0  0
   -5.9326    4.9166  -37.4610 C   0  0  0  0  0  0  0  0  0  0  0  0
   -5.8415    6.1064  -36.7473 C   0  0  0  0  0  0  0  0  0  0  0  0
   -6.4564    3.8099  -36.8124 C   0  0  0  0  0  0  0  0  0  0  0  0
   -6.8841    3.8162  -35.5299 N   0  0  0  0  0  0  0  0  0  0  0  0
   -5.5130    4.8143  -38.8004 N   0  0  0  0  0  0  0  0  0  0  0  0
   -6.5551    2.6484  -37.4799 F   0  0  0  0  0  0  0  0  0  0  0  0
   -5.2041    7.5430  -37.4614 Cl  0  0  0  0  0  0  0  0  0  0  0  0
   -6.2163    7.0618  -34.8364 H   0  0  0  0  0  0  0  0  0  0  0  0
   -7.1288    4.9738  -33.8409 H   0  0  0  0  0  0  0  0  0  0  0  0
   -5.5533    3.9260  -39.2610 H   0  0  0  0  0  0  0  0  0  0  0  0
   -5.0926    5.6072  -39.2449 H   0  0  0  0  0  0  0  0  0  0  0  0
  1  2  1  0  0  0  0
  1  4  2  0  0  0  0
  2  6  2  0  0  0  0
  3  4  1  0  0  0  0
  3  5  2  0  0  0  0
  3  7  1  0  0  0  0
  4  9  1  0  0  0  0
  5  6  1  0  0  0  0
  5  8  1  0  0  0  0
  1 10  1  0  0  0  0
  2 11  1  0  0  0  0
  7 12  1  0  0  0  0
  7 13  1  0  0  0  0
M  END
> <id>
EN300-1122840

> <smiles>
NC=1C(F)=NC=CC1Cl

> <MDLNUMBER>
MFCD22547110

> <IUPAC Name>
4-chloro-2-fluoropyridin-3-amine

> <CAS>
1393567-12-8

> <URL>
https://www.enaminestore.com/catalog/EN300-1122840

> <ROCS_ShapeQuery>
_hit0

> <ROCS_TanimotoCombo>
1.020 

> <ROCS_ShapeTanimoto>
0.420 

> <ROCS_ColorTanimoto>
0.600 

> <ROCS_RefTversky>
1.197 

> <ROCS_RefColorTversky>
0.750 

> <ROCS_RefTverskyCombo>
1.947 

> <ROCS_FitTversky>
0.393 

> <ROCS_FitColorTversky>
0.750 

> <ROCS_FitTverskyCombo>
1.143 

> <ROCS_ColorScore>
-3.000

> <ROCS_Overlap>
146.563

> <ROCS_Rank>
269                 

$$$$
untitled-dbase-6723_0
  -OEChem-06232314393D

  9  9  0     0  0  0  0  0  0999 V2000
   -5.9251    5.9600  -36.6209 C   0  0  0  0  0  0  0  0  0  0  0  0
   -5.9796    4.8268  -37.4075 C   0  0  0  0  0  0  0  0  0  0  0  0
   -6.4978    3.6978  -36.7929 N   0  0  0  0  0  0  0  0  0  0  0  0
   -6.8450    3.9436  -35.5396 N   0  0  0  0  0  0  0  0  0  0  0  0
   -5.5630    4.7878  -38.6944 N   0  0  0  0  0  0  0  0  0  0  0  0
   -6.5548    5.5292  -35.0839 S   0  0  0  0  0  0  0  0  0  0  0  0
   -5.5704    6.9538  -36.8555 H   0  0  0  0  0  0  0  0  0  0  0  0
   -5.2192    5.6264  -39.1817 H   0  0  0  0  0  0  0  0  0  0  0  0
   -5.6586    3.9419  -39.2726 H   0  0  0  0  0  0  0  0  0  0  0  0
  1  2  2  0  0  0  0
  1  6  1  0  0  0  0
  2  3  1  0  0  0  0
  2  5  1  0  0  0  0
  3  4  2  0  0  0  0
  4  6  1  0  0  0  0
  1  7  1  0  0  0  0
  5  8  1  0  0  0  0
  5  9  1  0  0  0  0
M  END
> <id>
EN300-180896

> <smiles>
Cl.NC1=CSN=N1

> <MDLNUMBER>
MFCD28064030

> <IUPAC Name>
1,2,3-thiadiazol-4-amine hydrochloride

> <CAS>
152513-89-8

> <Purity>
95

> <URL>
https://www.enaminestore.com/catalog/EN300-180896

> <Saltdate>
Cl

> <MP>
140-145

> <ROCS_ShapeQuery>
_hit0

> <ROCS_TanimotoCombo>
1.019 

> <ROCS_ShapeTanimoto>
0.516 

> <ROCS_ColorTanimoto>
0.503 

> <ROCS_RefTversky>
1.040 

> <ROCS_RefColorTversky>
0.769 

> <ROCS_RefTverskyCombo>
1.810 

> <ROCS_FitTversky>
0.506 

> <ROCS_FitColorTversky>
0.592 

> <ROCS_FitTverskyCombo>
1.098 

> <ROCS_ColorScore>
-3.130

> <ROCS_Overlap>
119.859

> <ROCS_Rank>
270                 

$$$$
untitled-dbase-272_3
  -OEChem-06232314393D

 17 17  0     0  0  0  0  0  0999 V2000
   -4.7098    3.7766  -36.7407 C   0  0  0  0  0  0  0  0  0  0  0  0
   -6.0811    5.8805  -36.6854 C   0  0  0  0  0  0  0  0  0  0  0  0
   -5.9843    3.0218  -36.3753 C   0  0  0  0  0  0  0  0  0  0  0  0
   -7.2770    5.0059  -36.3195 C   0  0  0  0  0  0  0  0  0  0  0  0
   -5.0321    5.0856  -37.4600 C   0  0  0  0  0  0  0  0  0  0  0  0
   -6.8555    3.8464  -35.6016 O   0  0  0  0  0  0  0  0  0  0  0  0
   -5.5409    4.8065  -38.7626 O   0  0  0  0  0  0  0  0  0  0  0  0
   -4.1051    3.9722  -35.8463 H   0  0  0  0  0  0  0  0  0  0  0  0
   -4.0895    3.1516  -37.3984 H   0  0  0  0  0  0  0  0  0  0  0  0
   -6.4192    6.7239  -37.3047 H   0  0  0  0  0  0  0  0  0  0  0  0
   -5.6371    6.3229  -35.7843 H   0  0  0  0  0  0  0  0  0  0  0  0
   -6.5184    2.7332  -37.2858 H   0  0  0  0  0  0  0  0  0  0  0  0
   -5.7580    2.1054  -35.8183 H   0  0  0  0  0  0  0  0  0  0  0  0
   -8.0064    5.5619  -35.7193 H   0  0  0  0  0  0  0  0  0  0  0  0
   -7.7837    4.6705  -37.2295 H   0  0  0  0  0  0  0  0  0  0  0  0
   -4.1236    5.6820  -37.5745 H   0  0  0  0  0  0  0  0  0  0  0  0
   -4.8479    4.3173  -39.2346 H   0  0  0  0  0  0  0  0  0  0  0  0
  1  3  1  0  0  0  0
  1  5  1  0  0  0  0
  2  4  1  0  0  0  0
  2  5  1  0  0  0  0
  3  6  1  0  0  0  0
  4  6  1  0  0  0  0
  5  7  1  0  0  0  0
  1  8  1  0  0  0  0
  1  9  1  0  0  0  0
  2 10  1  0  0  0  0
  2 11  1  0  0  0  0
  3 12  1  0  0  0  0
  3 13  1  0  0  0  0
  4 14  1  0  0  0  0
  4 15  1  0  0  0  0
  5 16  1  0  0  0  0
  7 17  1  0  0  0  0
M  END
> <id>
EN300-53372

> <smiles>
OC1CCOCC1

> <MDLNUMBER>
MFCD00006633

> <IUPAC Name>
oxan-4-ol

> <CAS>
2081-44-9

> <Purity>
95

> <URL>
https://www.enaminestore.com/catalog/EN300-53372

> <ROCS_ShapeQuery>
_hit0

> <ROCS_TanimotoCombo>
1.019 

> <ROCS_ShapeTanimoto>
0.423 

> <ROCS_ColorTanimoto>
0.597 

> <ROCS_RefTversky>
1.000 

> <ROCS_RefColorTversky>
0.747 

> <ROCS_RefTverskyCombo>
1.747 

> <ROCS_FitTversky>
0.424 

> <ROCS_FitColorTversky>
0.747 

> <ROCS_FitTverskyCombo>
1.171 

> <ROCS_ColorScore>
-2.989

> <ROCS_Overlap>
116.202

> <ROCS_Rank>
271                 

$$$$
untitled-dbase-16314_0
  -OEChem-06232314393D

 16 16  0     0  0  0  0  0  0999 V2000
   -6.3104    6.1627  -35.4453 C   0  0  0  0  0  0  0  0  0  0  0  0
   -6.7992    4.9976  -34.8766 C   0  0  0  0  0  0  0  0  0  0  0  0
   -5.8758    6.1102  -36.7650 C   0  0  0  0  0  0  0  0  0  0  0  0
   -5.9423    4.9112  -37.4658 C   0  0  0  0  0  0  0  0  0  0  0  0
   -6.4474    3.8021  -36.8067 C   0  0  0  0  0  0  0  0  0  0  0  0
   -5.3441    7.3512  -37.4032 C   0  0  0  0  0  0  0  0  0  0  0  0
   -6.8792    3.8144  -35.5256 N   0  0  0  0  0  0  0  0  0  0  0  0
   -5.5133    4.8150  -38.8015 N   0  0  0  0  0  0  0  0  0  0  0  0
   -6.5224    2.6320  -37.4622 F   0  0  0  0  0  0  0  0  0  0  0  0
   -6.2720    7.0820  -34.8707 H   0  0  0  0  0  0  0  0  0  0  0  0
   -7.1508    4.9856  -33.8502 H   0  0  0  0  0  0  0  0  0  0  0  0
   -4.2621    7.4267  -37.2444 H   0  0  0  0  0  0  0  0  0  0  0  0
   -5.5401    7.3572  -38.4826 H   0  0  0  0  0  0  0  0  0  0  0  0
   -5.8219    8.2470  -36.9872 H   0  0  0  0  0  0  0  0  0  0  0  0
   -5.5314    3.9249  -39.2613 H   0  0  0  0  0  0  0  0  0  0  0  0
   -5.1071    5.6157  -39.2465 H   0  0  0  0  0  0  0  0  0  0  0  0
  1  2  1  0  0  0  0
  1  3  2  0  0  0  0
  2  7  2  0  0  0  0
  3  4  1  0  0  0  0
  3  6  1  0  0  0  0
  4  5  2  0  0  0  0
  4  8  1  0  0  0  0
  5  7  1  0  0  0  0
  5  9  1  0  0  0  0
  1 10  1  0  0  0  0
  2 11  1  0  0  0  0
  6 12  1  0  0  0  0
  6 13  1  0  0  0  0
  6 14  1  0  0  0  0
  8 15  1  0  0  0  0
  8 16  1  0  0  0  0
M  END
> <id>
EN300-1295268

> <smiles>
CC=1C=CN=C(F)C1N

> <MDLNUMBER>
MFCD04112556

> <IUPAC Name>
2-fluoro-4-methylpyridin-3-amine

> <CAS>
173435-32-0

> <Purity>
95

> <URL>
https://www.enaminestore.com/catalog/EN300-1295268

> <MP>
63-64

> <ROCS_ShapeQuery>
_hit0

> <ROCS_TanimotoCombo>
1.019 

> <ROCS_ShapeTanimoto>
0.419 

> <ROCS_ColorTanimoto>
0.600 

> <ROCS_RefTversky>
1.209 

> <ROCS_RefColorTversky>
0.750 

> <ROCS_RefTverskyCombo>
1.959 

> <ROCS_FitTversky>
0.391 

> <ROCS_FitColorTversky>
0.750 

> <ROCS_FitTverskyCombo>
1.141 

> <ROCS_ColorScore>
-3.000

> <ROCS_Overlap>
148.428

> <ROCS_Rank>
272                 

$$$$
untitled-dbase-6870_0
  -OEChem-06232314393D

 15 15  0     0  0  0  0  0  0999 V2000
   -5.8296    6.1009  -36.8211 C   0  0  0  0  0  0  0  0  0  0  0  0
   -6.2527    6.1805  -35.4990 C   0  0  0  0  0  0  0  0  0  0  0  0
   -5.9287    4.8946  -37.5055 C   0  0  0  0  0  0  0  0  0  0  0  0
   -6.7634    5.0344  -34.9114 C   0  0  0  0  0  0  0  0  0  0  0  0
   -6.4537    3.8060  -36.8279 C   0  0  0  0  0  0  0  0  0  0  0  0
   -7.2269    5.0833  -33.4938 C   0  0  0  0  0  0  0  0  0  0  0  0
   -6.8752    3.8449  -35.5440 N   0  0  0  0  0  0  0  0  0  0  0  0
   -5.5165    4.8134  -38.7967 O   0  0  0  0  0  0  0  0  0  0  0  0
   -6.6235    2.2656  -37.5725 Cl  0  0  0  0  0  0  0  0  0  0  0  0
   -5.4241    6.9814  -37.3116 H   0  0  0  0  0  0  0  0  0  0  0  0
   -6.1807    7.1156  -34.9539 H   0  0  0  0  0  0  0  0  0  0  0  0
   -8.2887    5.3535  -33.4491 H   0  0  0  0  0  0  0  0  0  0  0  0
   -7.0928    4.1135  -32.9979 H   0  0  0  0  0  0  0  0  0  0  0  0
   -6.6552    5.8191  -32.9137 H   0  0  0  0  0  0  0  0  0  0  0  0
   -5.6471    3.9134  -39.1389 H   0  0  0  0  0  0  0  0  0  0  0  0
  1  2  1  0  0  0  0
  1  3  2  0  0  0  0
  2  4  2  0  0  0  0
  3  5  1  0  0  0  0
  3  8  1  0  0  0  0
  4  6  1  0  0  0  0
  4  7  1  0  0  0  0
  5  7  2  0  0  0  0
  5  9  1  0  0  0  0
  1 10  1  0  0  0  0
  2 11  1  0  0  0  0
  6 12  1  0  0  0  0
  6 13  1  0  0  0  0
  6 14  1  0  0  0  0
  8 15  1  0  0  0  0
M  END
> <id>
EN300-82645

> <smiles>
CC=1C=CC(O)=C(Cl)N1

> <MDLNUMBER>
MFCD07776977

> <IUPAC Name>
2-chloro-6-methylpyridin-3-ol

> <CAS>
35680-24-1

> <Purity>
95

> <URL>
https://www.enaminestore.com/catalog/EN300-82645

> <MP>
190-191

> <ROCS_ShapeQuery>
_hit0

> <ROCS_TanimotoCombo>
1.019 

> <ROCS_ShapeTanimoto>
0.419 

> <ROCS_ColorTanimoto>
0.599 

> <ROCS_RefTversky>
1.188 

> <ROCS_RefColorTversky>
0.750 

> <ROCS_RefTverskyCombo>
1.937 

> <ROCS_FitTversky>
0.393 

> <ROCS_FitColorTversky>
0.750 

> <ROCS_FitTverskyCombo>
1.143 

> <ROCS_ColorScore>
-2.998

> <ROCS_Overlap>
145.124

> <ROCS_Rank>
273                 

$$$$
untitled-dbase-32489_0
  -OEChem-06232314393D

 16 16  0     0  0  0  0  0  0999 V2000
   -5.8356    6.0923  -36.7837 C   0  0  0  0  0  0  0  0  0  0  0  0
   -6.2566    6.1629  -35.4604 C   0  0  0  0  0  0  0  0  0  0  0  0
   -5.9372    4.8911  -37.4766 C   0  0  0  0  0  0  0  0  0  0  0  0
   -6.7680    5.0131  -34.8804 C   0  0  0  0  0  0  0  0  0  0  0  0
   -6.4626    3.7983  -36.8062 C   0  0  0  0  0  0  0  0  0  0  0  0
   -7.2306    5.0523  -33.4623 C   0  0  0  0  0  0  0  0  0  0  0  0
   -6.8822    3.8284  -35.5214 N   0  0  0  0  0  0  0  0  0  0  0  0
   -5.5119    4.8176  -38.8155 N   0  0  0  0  0  0  0  0  0  0  0  0
   -6.6415    2.2565  -37.5502 Cl  0  0  0  0  0  0  0  0  0  0  0  0
   -5.4302    6.9785  -37.2648 H   0  0  0  0  0  0  0  0  0  0  0  0
   -6.1829    7.0937  -34.9087 H   0  0  0  0  0  0  0  0  0  0  0  0
   -8.2922    5.3229  -33.4150 H   0  0  0  0  0  0  0  0  0  0  0  0
   -7.0969    4.0789  -32.9733 H   0  0  0  0  0  0  0  0  0  0  0  0
   -6.6580    5.7834  -32.8772 H   0  0  0  0  0  0  0  0  0  0  0  0
   -5.1825    5.6457  -39.2728 H   0  0  0  0  0  0  0  0  0  0  0  0
   -5.6316    3.9620  -39.3227 H   0  0  0  0  0  0  0  0  0  0  0  0
  1  2  1  0  0  0  0
  1  3  2  0  0  0  0
  2  4  2  0  0  0  0
  3  5  1  0  0  0  0
  3  8  1  0  0  0  0
  4  6  1  0  0  0  0
  4  7  1  0  0  0  0
  5  7  2  0  0  0  0
  5  9  1  0  0  0  0
  1 10  1  0  0  0  0
  2 11  1  0  0  0  0
  6 12  1  0  0  0  0
  6 13  1  0  0  0  0
  6 14  1  0  0  0  0
  8 15  1  0  0  0  0
  8 16  1  0  0  0  0
M  END
> <id>
EN300-102383

> <smiles>
CC=1C=CC(N)=C(Cl)N1

> <MDLNUMBER>
MFCD03095213

> <IUPAC Name>
2-chloro-6-methylpyridin-3-amine

> <CAS>
39745-40-9

> <Purity>
95

> <URL>
https://www.enaminestore.com/catalog/EN300-102383

> <MP>
76-78

> <ROCS_ShapeQuery>
_hit0

> <ROCS_TanimotoCombo>
1.019 

> <ROCS_ShapeTanimoto>
0.419 

> <ROCS_ColorTanimoto>
0.600 

> <ROCS_RefTversky>
1.184 

> <ROCS_RefColorTversky>
0.750 

> <ROCS_RefTverskyCombo>
1.934 

> <ROCS_FitTversky>
0.394 

> <ROCS_FitColorTversky>
0.750 

> <ROCS_FitTverskyCombo>
1.143 

> <ROCS_ColorScore>
-2.999

> <ROCS_Overlap>
144.565

> <ROCS_Rank>
274                 

$$$$
untitled-dbase-32688_0
  -OEChem-06232314393D

 16 16  0     0  0  0  0  0  0999 V2000
   -5.8356    6.0923  -36.7837 C   0  0  0  0  0  0  0  0  0  0  0  0
   -6.2566    6.1629  -35.4604 C   0  0  0  0  0  0  0  0  0  0  0  0
   -5.9372    4.8911  -37.4766 C   0  0  0  0  0  0  0  0  0  0  0  0
   -6.7680    5.0131  -34.8804 C   0  0  0  0  0  0  0  0  0  0  0  0
   -6.4626    3.7983  -36.8062 C   0  0  0  0  0  0  0  0  0  0  0  0
   -7.2306    5.0523  -33.4623 C   0  0  0  0  0  0  0  0  0  0  0  0
   -6.8822    3.8284  -35.5214 N   0  0  0  0  0  0  0  0  0  0  0  0
   -5.5119    4.8176  -38.8155 N   0  0  0  0  0  0  0  0  0  0  0  0
   -6.6415    2.2565  -37.5502 Cl  0  0  0  0  0  0  0  0  0  0  0  0
   -5.4302    6.9785  -37.2648 H   0  0  0  0  0  0  0  0  0  0  0  0
   -6.1829    7.0937  -34.9087 H   0  0  0  0  0  0  0  0  0  0  0  0
   -8.2922    5.3229  -33.4150 H   0  0  0  0  0  0  0  0  0  0  0  0
   -7.0969    4.0789  -32.9733 H   0  0  0  0  0  0  0  0  0  0  0  0
   -6.6580    5.7834  -32.8772 H   0  0  0  0  0  0  0  0  0  0  0  0
   -5.1825    5.6457  -39.2728 H   0  0  0  0  0  0  0  0  0  0  0  0
   -5.6316    3.9620  -39.3227 H   0  0  0  0  0  0  0  0  0  0  0  0
  1  2  1  0  0  0  0
  1  3  2  0  0  0  0
  2  4  2  0  0  0  0
  3  5  1  0  0  0  0
  3  8  1  0  0  0  0
  4  6  1  0  0  0  0
  4  7  1  0  0  0  0
  5  7  2  0  0  0  0
  5  9  1  0  0  0  0
  1 10  1  0  0  0  0
  2 11  1  0  0  0  0
  6 12  1  0  0  0  0
  6 13  1  0  0  0  0
  6 14  1  0  0  0  0
  8 15  1  0  0  0  0
  8 16  1  0  0  0  0
M  END
> <id>
EN300-113554

> <smiles>
Cl.CC=1C=CC(N)=C(Cl)N1

> <MDLNUMBER>
MFCD22421834

> <IUPAC Name>
2-chloro-6-methylpyridin-3-amine hydrochloride

> <CAS>
1423034-28-9

> <Purity>
95

> <URL>
https://www.enaminestore.com/catalog/EN300-113554

> <Saltdate>
Cl

> <ROCS_ShapeQuery>
_hit0

> <ROCS_TanimotoCombo>
1.019 

> <ROCS_ShapeTanimoto>
0.419 

> <ROCS_ColorTanimoto>
0.600 

> <ROCS_RefTversky>
1.184 

> <ROCS_RefColorTversky>
0.750 

> <ROCS_RefTverskyCombo>
1.934 

> <ROCS_FitTversky>
0.394 

> <ROCS_FitColorTversky>
0.750 

> <ROCS_FitTverskyCombo>
1.143 

> <ROCS_ColorScore>
-2.999

> <ROCS_Overlap>
144.565

> <ROCS_Rank>
275                 

$$$$
untitled-dbase-19635_0
  -OEChem-06232314393D

 14 14  0     0  0  0  0  0  0999 V2000
   -6.4094    3.4011  -37.2453 C   0  0  0  0  0  0  0  0  0  0  0  0
   -5.9978    5.7104  -36.7142 C   0  0  0  0  0  0  0  0  0  0  0  0
   -6.8911    3.2463  -35.9554 C   0  0  0  0  0  0  0  0  0  0  0  0
   -5.9561    4.6598  -37.6240 C   0  0  0  0  0  0  0  0  0  0  0  0
   -6.4980    5.4522  -35.4481 C   0  0  0  0  0  0  0  0  0  0  0  0
   -6.9473    4.2429  -35.0438 N   0  0  0  0  0  0  0  0  0  0  0  0
   -6.5339    6.5328  -34.5319 N   0  0  0  0  0  0  0  0  0  0  0  0
   -5.4742    4.8622  -38.8801 O   0  0  0  0  0  0  0  0  0  0  0  0
   -6.3882    2.5628  -37.9332 H   0  0  0  0  0  0  0  0  0  0  0  0
   -5.6482    6.6989  -36.9965 H   0  0  0  0  0  0  0  0  0  0  0  0
   -7.2558    2.2845  -35.6099 H   0  0  0  0  0  0  0  0  0  0  0  0
   -6.1596    7.4132  -34.8114 H   0  0  0  0  0  0  0  0  0  0  0  0
   -6.8449    6.3632  -33.6003 H   0  0  0  0  0  0  0  0  0  0  0  0
   -5.1987    5.7865  -38.9904 H   0  0  0  0  0  0  0  0  0  0  0  0
  1  3  1  0  0  0  0
  1  4  2  0  0  0  0
  2  4  1  0  0  0  0
  2  5  2  0  0  0  0
  3  6  2  0  0  0  0
  4  8  1  0  0  0  0
  5  6  1  0  0  0  0
  5  7  1  0  0  0  0
  1  9  1  0  0  0  0
  2 10  1  0  0  0  0
  3 11  1  0  0  0  0
  7 12  1  0  0  0  0
  7 13  1  0  0  0  0
  8 14  1  0  0  0  0
M  END
> <id>
EN300-195987

> <smiles>
NC=1C=C(O)C=CN1

> <MDLNUMBER>
MFCD04114161

> <IUPAC Name>
2-aminopyridin-4-ol

> <CAS>
33631-05-9

> <Purity>
95

> <URL>
https://www.enaminestore.com/catalog/EN300-195987

> <ROCS_ShapeQuery>
_hit0

> <ROCS_TanimotoCombo>
1.019 

> <ROCS_ShapeTanimoto>
0.492 

> <ROCS_ColorTanimoto>
0.527 

> <ROCS_RefTversky>
1.250 

> <ROCS_RefColorTversky>
0.842 

> <ROCS_RefTverskyCombo>
2.092 

> <ROCS_FitTversky>
0.448 

> <ROCS_FitColorTversky>
0.585 

> <ROCS_FitTverskyCombo>
1.032 

> <ROCS_ColorScore>
-3.453

> <ROCS_Overlap>
150.507

> <ROCS_Rank>
276                 

$$$$
untitled-dbase-45841_0
  -OEChem-06232314393D

 22 22  0     0  0  0  0  0  0999 V2000
   -5.9644    6.1096  -36.7972 C   0  0  0  0  0  0  0  0  0  0  0  0
   -6.4193    6.1678  -35.4846 C   0  0  0  0  0  0  0  0  0  0  0  0
   -5.9694    4.8960  -37.4757 C   0  0  0  0  0  0  0  0  0  0  0  0
   -6.8654    4.9934  -34.9001 C   0  0  0  0  0  0  0  0  0  0  0  0
   -6.4354    3.7784  -36.8020 C   0  0  0  0  0  0  0  0  0  0  0  0
   -5.4719    7.3510  -37.4717 C   0  0  0  0  0  0  0  0  0  0  0  0
   -6.4259    7.4547  -34.7293 C   0  0  0  0  0  0  0  0  0  0  0  0
   -7.3636    4.9934  -33.4918 C   0  0  0  0  0  0  0  0  0  0  0  0
   -6.8852    3.7959  -35.5273 N   0  0  0  0  0  0  0  0  0  0  0  0
   -5.5127    4.8147  -38.8061 N   0  0  0  0  0  0  0  0  0  0  0  0
   -6.4942    2.2176  -37.5267 Cl  0  0  0  0  0  0  0  0  0  0  0  0
   -4.3963    7.4703  -37.3034 H   0  0  0  0  0  0  0  0  0  0  0  0
   -5.6569    7.3123  -38.5513 H   0  0  0  0  0  0  0  0  0  0  0  0
   -5.9886    8.2385  -37.0886 H   0  0  0  0  0  0  0  0  0  0  0  0
   -7.3790    7.9771  -34.8747 H   0  0  0  0  0  0  0  0  0  0  0  0
   -6.2814    7.2858  -33.6546 H   0  0  0  0  0  0  0  0  0  0  0  0
   -5.6130    8.1139  -35.0599 H   0  0  0  0  0  0  0  0  0  0  0  0
   -8.4421    5.1874  -33.4708 H   0  0  0  0  0  0  0  0  0  0  0  0
   -7.1718    4.0300  -33.0039 H   0  0  0  0  0  0  0  0  0  0  0  0
   -6.8582    5.7611  -32.8931 H   0  0  0  0  0  0  0  0  0  0  0  0
   -5.4811    3.9230  -39.2590 H   0  0  0  0  0  0  0  0  0  0  0  0
   -5.1390    5.6324  -39.2457 H   0  0  0  0  0  0  0  0  0  0  0  0
  1  2  2  0  0  0  0
  1  3  1  0  0  0  0
  1  6  1  0  0  0  0
  2  4  1  0  0  0  0
  2  7  1  0  0  0  0
  3  5  2  0  0  0  0
  3 10  1  0  0  0  0
  4  8  1  0  0  0  0
  4  9  2  0  0  0  0
  5  9  1  0  0  0  0
  5 11  1  0  0  0  0
  6 12  1  0  0  0  0
  6 13  1  0  0  0  0
  6 14  1  0  0  0  0
  7 15  1  0  0  0  0
  7 16  1  0  0  0  0
  7 17  1  0  0  0  0
  8 18  1  0  0  0  0
  8 19  1  0  0  0  0
  8 20  1  0  0  0  0
 10 21  1  0  0  0  0
 10 22  1  0  0  0  0
M  END
> <id>
EN300-22823653

> <smiles>
CC=1N=C(Cl)C(N)=C(C)C1C

> <MDLNUMBER>
MFCD31559984

> <IUPAC Name>
2-chloro-4,5,6-trimethylpyridin-3-amine

> <CAS>
2140305-48-0

> <Purity>
95

> <URL>
https://www.enaminestore.com/catalog/EN300-22823653

> <ROCS_ShapeQuery>
_hit0

> <ROCS_TanimotoCombo>
1.019 

> <ROCS_ShapeTanimoto>
0.419 

> <ROCS_ColorTanimoto>
0.600 

> <ROCS_RefTversky>
1.347 

> <ROCS_RefColorTversky>
0.750 

> <ROCS_RefTverskyCombo>
2.097 

> <ROCS_FitTversky>
0.378 

> <ROCS_FitColorTversky>
0.750 

> <ROCS_FitTverskyCombo>
1.128 

> <ROCS_ColorScore>
-3.000

> <ROCS_Overlap>
170.372

> <ROCS_Rank>
277                 

$$$$
untitled-dbase-37201_0
  -OEChem-06232314393D

 13 13  0     0  0  0  0  0  0999 V2000
   -6.2891    6.1515  -35.4434 C   0  0  0  0  0  0  0  0  0  0  0  0
   -6.7920    4.9916  -34.8762 C   0  0  0  0  0  0  0  0  0  0  0  0
   -5.9415    4.8995  -37.4673 C   0  0  0  0  0  0  0  0  0  0  0  0
   -5.8579    6.0961  -36.7641 C   0  0  0  0  0  0  0  0  0  0  0  0
   -6.4598    3.7957  -36.8094 C   0  0  0  0  0  0  0  0  0  0  0  0
   -6.8888    3.8110  -35.5275 N   0  0  0  0  0  0  0  0  0  0  0  0
   -5.5147    4.8155  -38.8029 N   0  0  0  0  0  0  0  0  0  0  0  0
   -5.3629    7.1972  -37.3466 F   0  0  0  0  0  0  0  0  0  0  0  0
   -6.5526    2.6288  -37.4687 F   0  0  0  0  0  0  0  0  0  0  0  0
   -6.2324    7.0733  -34.8762 H   0  0  0  0  0  0  0  0  0  0  0  0
   -7.1425    4.9829  -33.8495 H   0  0  0  0  0  0  0  0  0  0  0  0
   -5.5407    3.9311  -39.2748 H   0  0  0  0  0  0  0  0  0  0  0  0
   -5.1011    5.6177  -39.2400 H   0  0  0  0  0  0  0  0  0  0  0  0
  1  2  2  0  0  0  0
  1  4  1  0  0  0  0
  2  6  1  0  0  0  0
  3  4  2  0  0  0  0
  3  5  1  0  0  0  0
  3  7  1  0  0  0  0
  4  8  1  0  0  0  0
  5  6  2  0  0  0  0
  5  9  1  0  0  0  0
  1 10  1  0  0  0  0
  2 11  1  0  0  0  0
  7 12  1  0  0  0  0
  7 13  1  0  0  0  0
M  END
> <id>
EN300-215865

> <smiles>
NC=1C(F)=CC=NC1F

> <MDLNUMBER>
MFCD16606148

> <IUPAC Name>
2,4-difluoropyridin-3-amine

> <CAS>
1211528-95-8

> <Purity>
95

> <URL>
https://www.enaminestore.com/catalog/EN300-215865

> <ROCS_ShapeQuery>
_hit0

> <ROCS_TanimotoCombo>
1.019 

> <ROCS_ShapeTanimoto>
0.419 

> <ROCS_ColorTanimoto>
0.600 

> <ROCS_RefTversky>
1.219 

> <ROCS_RefColorTversky>
0.750 

> <ROCS_RefTverskyCombo>
1.969 

> <ROCS_FitTversky>
0.389 

> <ROCS_FitColorTversky>
0.750 

> <ROCS_FitTverskyCombo>
1.139 

> <ROCS_ColorScore>
-3.000

> <ROCS_Overlap>
149.937

> <ROCS_Rank>
278                 

$$$$
untitled-dbase-16064_0
  -OEChem-06232314393D

 12 12  0     0  0  0  0  0  0999 V2000
   -6.4224    3.7847  -36.8221 C   0  0  0  0  0  0  0  0  0  0  0  0
   -6.8582    5.0050  -34.9379 C   0  0  0  0  0  0  0  0  0  0  0  0
   -5.9716    4.9223  -37.4547 C   0  0  0  0  0  0  0  0  0  0  0  0
   -6.4068    6.1426  -35.5701 C   0  0  0  0  0  0  0  0  0  0  0  0
   -6.8739    3.8057  -35.5524 N   0  0  0  0  0  0  0  0  0  0  0  0
   -5.9556    6.1217  -36.8399 N   0  0  0  0  0  0  0  0  0  0  0  0
   -5.5155    4.8123  -38.7871 N   0  0  0  0  0  0  0  0  0  0  0  0
   -6.4116    7.3112  -34.9141 F   0  0  0  0  0  0  0  0  0  0  0  0
   -6.4394    2.8152  -37.3068 H   0  0  0  0  0  0  0  0  0  0  0  0
   -7.2210    5.0225  -33.9176 H   0  0  0  0  0  0  0  0  0  0  0  0
   -5.4869    3.9116  -39.2178 H   0  0  0  0  0  0  0  0  0  0  0  0
   -5.1423    5.6203  -39.2407 H   0  0  0  0  0  0  0  0  0  0  0  0
  1  3  2  0  0  0  0
  1  5  1  0  0  0  0
  2  4  1  0  0  0  0
  2  5  2  0  0  0  0
  3  6  1  0  0  0  0
  3  7  1  0  0  0  0
  4  6  2  0  0  0  0
  4  8  1  0  0  0  0
  1  9  1  0  0  0  0
  2 10  1  0  0  0  0
  7 11  1  0  0  0  0
  7 12  1  0  0  0  0
M  END
> <id>
EN300-817944

> <smiles>
NC=1C=NC=C(F)N1

> <MDLNUMBER>
MFCD22566352

> <IUPAC Name>
6-fluoropyrazin-2-amine

> <CAS>
1246466-74-9

> <Purity>
95

> <URL>
https://www.enaminestore.com/catalog/EN300-817944

> <ROCS_ShapeQuery>
_hit0

> <ROCS_TanimotoCombo>
1.018 

> <ROCS_ShapeTanimoto>
0.518 

> <ROCS_ColorTanimoto>
0.500 

> <ROCS_RefTversky>
1.307 

> <ROCS_RefColorTversky>
0.741 

> <ROCS_RefTverskyCombo>
2.049 

> <ROCS_FitTversky>
0.462 

> <ROCS_FitColorTversky>
0.606 

> <ROCS_FitTverskyCombo>
1.068 

> <ROCS_ColorScore>
-3.003

> <ROCS_Overlap>
157.808

> <ROCS_Rank>
279                 

$$$$
untitled-dbase-21076_0
  -OEChem-06232314393D

 14 14  0     0  0  0  0  0  0999 V2000
   -6.0097    5.7335  -36.5775 C   0  0  0  0  0  0  0  0  0  0  0  0
   -5.9713    4.7278  -37.5121 C   0  0  0  0  0  0  0  0  0  0  0  0
   -6.5037    3.6077  -36.8459 C   0  0  0  0  0  0  0  0  0  0  0  0
   -6.7803    5.8455  -34.1956 C   0  0  0  0  0  0  0  0  0  0  0  0
   -6.8544    3.8762  -35.5854 N   0  0  0  0  0  0  0  0  0  0  0  0
   -6.5417    5.1764  -35.4520 N   0  0  0  0  0  0  0  0  0  0  0  0
   -5.5226    4.8056  -38.7793 N   0  0  0  0  0  0  0  0  0  0  0  0
   -6.6480    2.4034  -37.4043 F   0  0  0  0  0  0  0  0  0  0  0  0
   -5.7109    6.7725  -36.6154 H   0  0  0  0  0  0  0  0  0  0  0  0
   -7.7898    6.2643  -34.2229 H   0  0  0  0  0  0  0  0  0  0  0  0
   -6.6866    5.1269  -33.3767 H   0  0  0  0  0  0  0  0  0  0  0  0
   -6.0396    6.6389  -34.0624 H   0  0  0  0  0  0  0  0  0  0  0  0
   -5.1911    5.6913  -39.1938 H   0  0  0  0  0  0  0  0  0  0  0  0
   -5.5739    4.0075  -39.4325 H   0  0  0  0  0  0  0  0  0  0  0  0
  1  2  2  0  0  0  0
  1  6  1  0  0  0  0
  2  3  1  0  0  0  0
  2  7  1  0  0  0  0
  3  5  2  0  0  0  0
  3  8  1  0  0  0  0
  4  6  1  0  0  0  0
  5  6  1  0  0  0  0
  1  9  1  0  0  0  0
  4 10  1  0  0  0  0
  4 11  1  0  0  0  0
  4 12  1  0  0  0  0
  7 13  1  0  0  0  0
  7 14  1  0  0  0  0
M  END
> <id>
EN300-7473503

> <smiles>
Cl.CN1C=C(N)C(F)=N1

> <MDLNUMBER>
MFCD32219585

> <IUPAC Name>
3-fluoro-1-methyl-1H-pyrazol-4-amine hydrochloride

> <CAS>
2402829-78-9

> <Purity>
95

> <URL>
https://www.enaminestore.com/catalog/EN300-7473503

> <Saltdate>
Cl

> <ROCS_ShapeQuery>
_hit0

> <ROCS_TanimotoCombo>
1.018 

> <ROCS_ShapeTanimoto>
0.421 

> <ROCS_ColorTanimoto>
0.597 

> <ROCS_RefTversky>
1.139 

> <ROCS_RefColorTversky>
0.748 

> <ROCS_RefTverskyCombo>
1.887 

> <ROCS_FitTversky>
0.401 

> <ROCS_FitColorTversky>
0.748 

> <ROCS_FitTverskyCombo>
1.148 

> <ROCS_ColorScore>
-2.991

> <ROCS_Overlap>
137.591

> <ROCS_Rank>
280                 

$$$$
untitled-dbase-38515_0
  -OEChem-06232314393D

 14 14  0     0  0  0  0  0  0999 V2000
   -6.0097    5.7335  -36.5775 C   0  0  0  0  0  0  0  0  0  0  0  0
   -5.9713    4.7278  -37.5121 C   0  0  0  0  0  0  0  0  0  0  0  0
   -6.5037    3.6077  -36.8459 C   0  0  0  0  0  0  0  0  0  0  0  0
   -6.7803    5.8455  -34.1956 C   0  0  0  0  0  0  0  0  0  0  0  0
   -6.8544    3.8762  -35.5854 N   0  0  0  0  0  0  0  0  0  0  0  0
   -6.5417    5.1764  -35.4520 N   0  0  0  0  0  0  0  0  0  0  0  0
   -5.5226    4.8056  -38.7793 N   0  0  0  0  0  0  0  0  0  0  0  0
   -6.6480    2.4034  -37.4043 F   0  0  0  0  0  0  0  0  0  0  0  0
   -5.7109    6.7725  -36.6154 H   0  0  0  0  0  0  0  0  0  0  0  0
   -7.7898    6.2643  -34.2229 H   0  0  0  0  0  0  0  0  0  0  0  0
   -6.6866    5.1269  -33.3767 H   0  0  0  0  0  0  0  0  0  0  0  0
   -6.0396    6.6389  -34.0624 H   0  0  0  0  0  0  0  0  0  0  0  0
   -5.1911    5.6913  -39.1938 H   0  0  0  0  0  0  0  0  0  0  0  0
   -5.5739    4.0075  -39.4325 H   0  0  0  0  0  0  0  0  0  0  0  0
  1  2  2  0  0  0  0
  1  6  1  0  0  0  0
  2  3  1  0  0  0  0
  2  7  1  0  0  0  0
  3  5  2  0  0  0  0
  3  8  1  0  0  0  0
  4  6  1  0  0  0  0
  5  6  1  0  0  0  0
  1  9  1  0  0  0  0
  4 10  1  0  0  0  0
  4 11  1  0  0  0  0
  4 12  1  0  0  0  0
  7 13  1  0  0  0  0
  7 14  1  0  0  0  0
M  END
> <id>
EN300-1295540

> <smiles>
CN1C=C(N)C(F)=N1

> <MDLNUMBER>
MFCD28353680

> <IUPAC Name>
3-fluoro-1-methyl-1H-pyrazol-4-amine

> <CAS>
1936174-81-0

> <Purity>
95

> <URL>
https://www.enaminestore.com/catalog/EN300-1295540

> <ROCS_ShapeQuery>
_hit0

> <ROCS_TanimotoCombo>
1.018 

> <ROCS_ShapeTanimoto>
0.421 

> <ROCS_ColorTanimoto>
0.597 

> <ROCS_RefTversky>
1.139 

> <ROCS_RefColorTversky>
0.748 

> <ROCS_RefTverskyCombo>
1.887 

> <ROCS_FitTversky>
0.401 

> <ROCS_FitColorTversky>
0.748 

> <ROCS_FitTverskyCombo>
1.148 

> <ROCS_ColorScore>
-2.991

> <ROCS_Overlap>
137.591

> <ROCS_Rank>
281                 

$$$$
untitled-dbase-11466_10
  -OEChem-06232314393D

 10  9  0     0  0  0  0  0  0999 V2000
   -5.4966    5.7378  -37.2256 C   0  0  0  0  0  0  0  0  0  0  0  0
   -6.3223    5.4419  -36.0247 C   0  0  0  0  0  0  0  0  0  0  0  0
   -4.6544    6.8091  -37.1117 N   0  0  0  0  0  0  0  0  0  0  0  0
   -6.6469    6.5227  -35.2523 N   0  0  0  0  0  0  0  0  0  0  0  0
   -5.6355    4.7432  -38.5475 S   0  0  0  0  0  0  0  0  0  0  0  0
   -6.7991    3.8740  -35.7576 S   0  0  0  0  0  0  0  0  0  0  0  0
   -4.5981    7.3643  -36.2638 H   0  0  0  0  0  0  0  0  0  0  0  0
   -4.0526    7.0871  -37.8798 H   0  0  0  0  0  0  0  0  0  0  0  0
   -7.2069    6.4181  -34.4128 H   0  0  0  0  0  0  0  0  0  0  0  0
   -6.3433    7.4631  -35.4843 H   0  0  0  0  0  0  0  0  0  0  0  0
  1  2  1  0  0  0  0
  1  3  1  0  0  0  0
  1  5  2  0  0  0  0
  2  4  1  0  0  0  0
  2  6  2  0  0  0  0
  3  7  1  0  0  0  0
  3  8  1  0  0  0  0
  4  9  1  0  0  0  0
  4 10  1  0  0  0  0
M  END
> <id>
EN300-16583

> <smiles>
NC(=S)C(=S)N

> <MDLNUMBER>
MFCD00004941

> <IUPAC Name>
ethanedithioamide

> <CAS>
79-40-3

> <Purity>
95

> <URL>
https://www.enaminestore.com/catalog/EN300-16583

> <ROCS_ShapeQuery>
_hit0

> <ROCS_TanimotoCombo>
1.018 

> <ROCS_ShapeTanimoto>
0.568 

> <ROCS_ColorTanimoto>
0.450 

> <ROCS_RefTversky>
1.025 

> <ROCS_RefColorTversky>
0.477 

> <ROCS_RefTverskyCombo>
1.503 

> <ROCS_FitTversky>
0.560 

> <ROCS_FitColorTversky>
0.887 

> <ROCS_FitTverskyCombo>
1.447 

> <ROCS_ColorScore>
-1.862

> <ROCS_Overlap>
116.597

> <ROCS_Rank>
282                 

$$$$
untitled-dbase-38341_0
  -OEChem-06232314393D

 17 17  0     0  0  0  0  0  0999 V2000
   -5.9776    4.7139  -37.5102 C   0  0  0  0  0  0  0  0  0  0  0  0
   -6.4968    3.5881  -36.8433 C   0  0  0  0  0  0  0  0  0  0  0  0
   -6.0338    5.7212  -36.5782 C   0  0  0  0  0  0  0  0  0  0  0  0
   -6.6707    2.2228  -37.3713 C   0  0  0  0  0  0  0  0  0  0  0  0
   -6.8165    5.8304  -34.2016 C   0  0  0  0  0  0  0  0  0  0  0  0
   -6.8562    3.8546  -35.5848 N   0  0  0  0  0  0  0  0  0  0  0  0
   -6.5623    5.1593  -35.4534 N   0  0  0  0  0  0  0  0  0  0  0  0
   -5.5250    4.7996  -38.7762 N   0  0  0  0  0  0  0  0  0  0  0  0
   -5.6517    6.9889  -36.7355 F   0  0  0  0  0  0  0  0  0  0  0  0
   -5.7726    1.6080  -37.1919 H   0  0  0  0  0  0  0  0  0  0  0  0
   -7.5280    1.7038  -36.9078 H   0  0  0  0  0  0  0  0  0  0  0  0
   -6.8658    2.2191  -38.4581 H   0  0  0  0  0  0  0  0  0  0  0  0
   -7.8321    6.2336  -34.2352 H   0  0  0  0  0  0  0  0  0  0  0  0
   -6.7154    5.1170  -33.3789 H   0  0  0  0  0  0  0  0  0  0  0  0
   -6.0885    6.6356  -34.0688 H   0  0  0  0  0  0  0  0  0  0  0  0
   -5.4744    3.9788  -39.4001 H   0  0  0  0  0  0  0  0  0  0  0  0
   -5.1178    5.6680  -39.1579 H   0  0  0  0  0  0  0  0  0  0  0  0
  1  2  1  0  0  0  0
  1  3  2  0  0  0  0
  1  8  1  0  0  0  0
  2  4  1  0  0  0  0
  2  6  2  0  0  0  0
  3  7  1  0  0  0  0
  3  9  1  0  0  0  0
  5  7  1  0  0  0  0
  6  7  1  0  0  0  0
  4 10  1  0  0  0  0
  4 11  1  0  0  0  0
  4 12  1  0  0  0  0
  5 13  1  0  0  0  0
  5 14  1  0  0  0  0
  5 15  1  0  0  0  0
  8 16  1  0  0  0  0
  8 17  1  0  0  0  0
M  END
> <id>
EN300-647960

> <smiles>
CC1=NN(C)C(F)=C1N

> <MDLNUMBER>
MFCD32746099

> <IUPAC Name>
5-fluoro-1,3-dimethyl-1H-pyrazol-4-amine

> <CAS>
2150020-90-7

> <URL>
https://www.enaminestore.com/catalog/EN300-647960

> <ROCS_ShapeQuery>
_hit0

> <ROCS_TanimotoCombo>
1.018 

> <ROCS_ShapeTanimoto>
0.420 

> <ROCS_ColorTanimoto>
0.598 

> <ROCS_RefTversky>
1.222 

> <ROCS_RefColorTversky>
0.748 

> <ROCS_RefTverskyCombo>
1.970 

> <ROCS_FitTversky>
0.391 

> <ROCS_FitColorTversky>
0.748 

> <ROCS_FitTverskyCombo>
1.139 

> <ROCS_ColorScore>
-2.993

> <ROCS_Overlap>
150.277

> <ROCS_Rank>
283                 

$$$$
untitled-dbase-21123_0
  -OEChem-06232314393D

 21 21  0     1  0  0  0  0  0999 V2000
   -7.0439    3.3283  -35.6512 C   0  0  0  0  0  0  0  0  0  0  0  0
   -6.6979    4.4675  -34.6952 C   0  0  0  0  0  0  0  0  0  0  0  0
   -6.2312    3.4094  -36.9388 C   0  0  0  0  0  0  0  0  0  0  0  0
   -6.0280    5.9096  -36.6587 C   0  0  0  0  0  0  0  0  0  0  0  0
   -6.8448    5.8350  -35.3674 C   0  0  2  0  0  0  0  0  0  0  0  0
   -6.3802    4.7715  -37.6145 C   0  0  1  0  0  0  0  0  0  0  0  0
   -6.4624    6.8888  -34.4591 N   0  0  0  0  0  0  0  0  0  0  0  0
   -5.5163    4.8423  -38.7437 O   0  0  0  0  0  0  0  0  0  0  0  0
   -6.8619    2.3659  -35.1595 H   0  0  0  0  0  0  0  0  0  0  0  0
   -8.1135    3.3667  -35.8920 H   0  0  0  0  0  0  0  0  0  0  0  0
   -7.3477    4.4077  -33.8133 H   0  0  0  0  0  0  0  0  0  0  0  0
   -5.6682    4.3318  -34.3384 H   0  0  0  0  0  0  0  0  0  0  0  0
   -5.1718    3.2161  -36.7241 H   0  0  0  0  0  0  0  0  0  0  0  0
   -6.5420    2.6168  -37.6301 H   0  0  0  0  0  0  0  0  0  0  0  0
   -6.1921    6.8712  -37.1622 H   0  0  0  0  0  0  0  0  0  0  0  0
   -4.9519    5.8752  -36.4365 H   0  0  0  0  0  0  0  0  0  0  0  0
   -7.9125    5.9745  -35.6289 H   0  0  0  0  0  0  0  0  0  0  0  0
   -7.4090    4.8963  -37.9725 H   0  0  0  0  0  0  0  0  0  0  0  0
   -6.6018    7.7577  -34.9172 H   0  0  0  0  0  0  0  0  0  0  0  0
   -7.0335    6.8219  -33.6506 H   0  0  0  0  0  0  0  0  0  0  0  0
   -5.7845    4.1288  -39.3440 H   0  0  0  0  0  0  0  0  0  0  0  0
  1  2  1  0  0  0  0
  1  3  1  0  0  0  0
  2  5  1  0  0  0  0
  3  6  1  0  0  0  0
  4  5  1  0  0  0  0
  4  6  1  0  0  0  0
  5  7  1  6  0  0  0
  6  8  1  6  0  0  0
  1  9  1  0  0  0  0
  1 10  1  0  0  0  0
  2 11  1  0  0  0  0
  2 12  1  0  0  0  0
  3 13  1  0  0  0  0
  3 14  1  0  0  0  0
  4 15  1  0  0  0  0
  4 16  1  0  0  0  0
  5 17  1  0  0  0  0
  6 18  1  0  0  0  0
  7 19  1  0  0  0  0
  7 20  1  0  0  0  0
  8 21  1  0  0  0  0
M  END
> <id>
EN300-136565

> <smiles>
N[C@@H]1CCC[C@H](O)C1

> <MDLNUMBER>
MFCD19237876

> <IUPAC Name>
(1S,3R)-3-aminocyclohexan-1-ol

> <CAS>
1110772-04-7

> <URL>
https://www.enaminestore.com/catalog/EN300-136565

> <ROCS_ShapeQuery>
_hit0

> <ROCS_TanimotoCombo>
1.018 

> <ROCS_ShapeTanimoto>
0.525 

> <ROCS_ColorTanimoto>
0.493 

> <ROCS_RefTversky>
1.236 

> <ROCS_RefColorTversky>
0.734 

> <ROCS_RefTverskyCombo>
1.970 

> <ROCS_FitTversky>
0.477 

> <ROCS_FitColorTversky>
0.601 

> <ROCS_FitTverskyCombo>
1.078 

> <ROCS_ColorScore>
-2.974

> <ROCS_Overlap>
147.060

> <ROCS_Rank>
284                 

$$$$
untitled-dbase-23299_0
  -OEChem-06232314393D

 21 21  0     1  0  0  0  0  0999 V2000
   -7.0439    3.3283  -35.6512 C   0  0  0  0  0  0  0  0  0  0  0  0
   -6.6979    4.4675  -34.6952 C   0  0  0  0  0  0  0  0  0  0  0  0
   -6.2312    3.4094  -36.9388 C   0  0  0  0  0  0  0  0  0  0  0  0
   -6.0280    5.9096  -36.6587 C   0  0  0  0  0  0  0  0  0  0  0  0
   -6.8448    5.8350  -35.3674 C   0  0  2  0  0  0  0  0  0  0  0  0
   -6.3802    4.7715  -37.6145 C   0  0  1  0  0  0  0  0  0  0  0  0
   -6.4624    6.8888  -34.4591 N   0  0  0  0  0  0  0  0  0  0  0  0
   -5.5163    4.8423  -38.7437 O   0  0  0  0  0  0  0  0  0  0  0  0
   -6.8619    2.3659  -35.1595 H   0  0  0  0  0  0  0  0  0  0  0  0
   -8.1135    3.3667  -35.8920 H   0  0  0  0  0  0  0  0  0  0  0  0
   -7.3477    4.4077  -33.8133 H   0  0  0  0  0  0  0  0  0  0  0  0
   -5.6682    4.3318  -34.3384 H   0  0  0  0  0  0  0  0  0  0  0  0
   -5.1718    3.2161  -36.7241 H   0  0  0  0  0  0  0  0  0  0  0  0
   -6.5420    2.6168  -37.6301 H   0  0  0  0  0  0  0  0  0  0  0  0
   -6.1921    6.8712  -37.1622 H   0  0  0  0  0  0  0  0  0  0  0  0
   -4.9519    5.8752  -36.4365 H   0  0  0  0  0  0  0  0  0  0  0  0
   -7.9125    5.9745  -35.6289 H   0  0  0  0  0  0  0  0  0  0  0  0
   -7.4090    4.8963  -37.9725 H   0  0  0  0  0  0  0  0  0  0  0  0
   -6.6018    7.7577  -34.9172 H   0  0  0  0  0  0  0  0  0  0  0  0
   -7.0335    6.8219  -33.6506 H   0  0  0  0  0  0  0  0  0  0  0  0
   -5.7845    4.1288  -39.3440 H   0  0  0  0  0  0  0  0  0  0  0  0
  1  2  1  0  0  0  0
  1  3  1  0  0  0  0
  2  5  1  0  0  0  0
  3  6  1  0  0  0  0
  4  5  1  0  0  0  0
  4  6  1  0  0  0  0
  5  7  1  6  0  0  0
  6  8  1  6  0  0  0
  1  9  1  0  0  0  0
  1 10  1  0  0  0  0
  2 11  1  0  0  0  0
  2 12  1  0  0  0  0
  3 13  1  0  0  0  0
  3 14  1  0  0  0  0
  4 15  1  0  0  0  0
  4 16  1  0  0  0  0
  5 17  1  0  0  0  0
  6 18  1  0  0  0  0
  7 19  1  0  0  0  0
  7 20  1  0  0  0  0
  8 21  1  0  0  0  0
M  END
> <id>
EN300-19960090

> <smiles>
Cl.N[C@@H]1CCC[C@H](O)C1

> <MDLNUMBER>
MFCD26954735

> <IUPAC Name>
(1S,3R)-3-aminocyclohexan-1-ol hydrochloride

> <CAS>
2331211-57-3

> <Purity>
95

> <URL>
https://www.enaminestore.com/catalog/EN300-19960090

> <Saltdate>
Cl

> <ROCS_ShapeQuery>
_hit0

> <ROCS_TanimotoCombo>
1.018 

> <ROCS_ShapeTanimoto>
0.525 

> <ROCS_ColorTanimoto>
0.493 

> <ROCS_RefTversky>
1.236 

> <ROCS_RefColorTversky>
0.734 

> <ROCS_RefTverskyCombo>
1.970 

> <ROCS_FitTversky>
0.477 

> <ROCS_FitColorTversky>
0.601 

> <ROCS_FitTverskyCombo>
1.078 

> <ROCS_ColorScore>
-2.974

> <ROCS_Overlap>
147.060

> <ROCS_Rank>
285                 

$$$$
untitled-dbase-150_0
  -OEChem-06232314393D

 20 20  0     0  0  0  0  0  0999 V2000
   -5.9814    4.7215  -37.5122 C   0  0  0  0  0  0  0  0  0  0  0  0
   -6.4903    3.5917  -36.8441 C   0  0  0  0  0  0  0  0  0  0  0  0
   -6.0543    5.7311  -36.5838 C   0  0  0  0  0  0  0  0  0  0  0  0
   -6.6456    2.2228  -37.3685 C   0  0  0  0  0  0  0  0  0  0  0  0
   -5.6779    7.1561  -36.6595 C   0  0  0  0  0  0  0  0  0  0  0  0
   -6.8541    5.8248  -34.2032 C   0  0  0  0  0  0  0  0  0  0  0  0
   -6.8590    3.8579  -35.5883 N   0  0  0  0  0  0  0  0  0  0  0  0
   -6.5815    5.1665  -35.4598 N   0  0  0  0  0  0  0  0  0  0  0  0
   -5.5238    4.8031  -38.7774 N   0  0  0  0  0  0  0  0  0  0  0  0
   -5.7412    1.6193  -37.1833 H   0  0  0  0  0  0  0  0  0  0  0  0
   -7.4988    1.6952  -36.9073 H   0  0  0  0  0  0  0  0  0  0  0  0
   -6.8359    2.2134  -38.4562 H   0  0  0  0  0  0  0  0  0  0  0  0
   -6.5231    7.7726  -37.0072 H   0  0  0  0  0  0  0  0  0  0  0  0
   -5.3550    7.5516  -35.6812 H   0  0  0  0  0  0  0  0  0  0  0  0
   -4.8336    7.3252  -37.3498 H   0  0  0  0  0  0  0  0  0  0  0  0
   -7.8751    6.2137  -34.2406 H   0  0  0  0  0  0  0  0  0  0  0  0
   -6.7484    5.1065  -33.3854 H   0  0  0  0  0  0  0  0  0  0  0  0
   -6.1386    6.6392  -34.0592 H   0  0  0  0  0  0  0  0  0  0  0  0
   -5.4615    3.9783  -39.3944 H   0  0  0  0  0  0  0  0  0  0  0  0
   -5.1248    5.6731  -39.1631 H   0  0  0  0  0  0  0  0  0  0  0  0
  1  2  1  0  0  0  0
  1  3  2  0  0  0  0
  1  9  1  0  0  0  0
  2  4  1  0  0  0  0
  2  7  2  0  0  0  0
  3  5  1  0  0  0  0
  3  8  1  0  0  0  0
  6  8  1  0  0  0  0
  7  8  1  0  0  0  0
  4 10  1  0  0  0  0
  4 11  1  0  0  0  0
  4 12  1  0  0  0  0
  5 13  1  0  0  0  0
  5 14  1  0  0  0  0
  5 15  1  0  0  0  0
  6 16  1  0  0  0  0
  6 17  1  0  0  0  0
  6 18  1  0  0  0  0
  9 19  1  0  0  0  0
  9 20  1  0  0  0  0
M  END
> <id>
EN300-11797

> <smiles>
CC1=NN(C)C(C)=C1N

> <MDLNUMBER>
MFCD00052883

> <IUPAC Name>
trimethyl-1H-pyrazol-4-amine

> <CAS>
28466-21-9

> <Purity>
95

> <URL>
https://www.enaminestore.com/catalog/EN300-11797

> <MP>
100-105

> <ROCS_ShapeQuery>
_hit0

> <ROCS_TanimotoCombo>
1.018 

> <ROCS_ShapeTanimoto>
0.420 

> <ROCS_ColorTanimoto>
0.598 

> <ROCS_RefTversky>
1.212 

> <ROCS_RefColorTversky>
0.748 

> <ROCS_RefTverskyCombo>
1.960 

> <ROCS_FitTversky>
0.392 

> <ROCS_FitColorTversky>
0.748 

> <ROCS_FitTverskyCombo>
1.140 

> <ROCS_ColorScore>
-2.993

> <ROCS_Overlap>
148.749

> <ROCS_Rank>
286                 

$$$$
untitled-dbase-1441_0
  -OEChem-06232314393D

 19 19  0     0  0  0  0  0  0999 V2000
   -5.9767    4.6991  -37.5214 C   0  0  0  0  0  0  0  0  0  0  0  0
   -6.5132    3.5837  -36.8507 C   0  0  0  0  0  0  0  0  0  0  0  0
   -6.0049    5.7069  -36.5886 C   0  0  0  0  0  0  0  0  0  0  0  0
   -6.7167    2.2250  -37.3828 C   0  0  0  0  0  0  0  0  0  0  0  0
   -5.5826    7.1181  -36.6677 C   0  0  0  0  0  0  0  0  0  0  0  0
   -6.7707    5.8172  -34.1975 C   0  0  0  0  0  0  0  0  0  0  0  0
   -6.8568    3.8567  -35.5892 N   0  0  0  0  0  0  0  0  0  0  0  0
   -6.5355    5.1552  -35.4597 N   0  0  0  0  0  0  0  0  0  0  0  0
   -5.5289    4.8007  -38.7789 O   0  0  0  0  0  0  0  0  0  0  0  0
   -5.8293    1.5917  -37.2129 H   0  0  0  0  0  0  0  0  0  0  0  0
   -7.5805    1.7197  -36.9155 H   0  0  0  0  0  0  0  0  0  0  0  0
   -6.9199    2.2290  -38.4685 H   0  0  0  0  0  0  0  0  0  0  0  0
   -6.4113    7.7634  -37.0032 H   0  0  0  0  0  0  0  0  0  0  0  0
   -5.2334    7.5017  -35.6935 H   0  0  0  0  0  0  0  0  0  0  0  0
   -4.7425    7.2608  -37.3693 H   0  0  0  0  0  0  0  0  0  0  0  0
   -7.7791    6.2387  -34.2205 H   0  0  0  0  0  0  0  0  0  0  0  0
   -6.6776    5.0928  -33.3836 H   0  0  0  0  0  0  0  0  0  0  0  0
   -6.0277    6.6077  -34.0601 H   0  0  0  0  0  0  0  0  0  0  0  0
   -5.6077    3.9509  -39.2575 H   0  0  0  0  0  0  0  0  0  0  0  0
  1  2  1  0  0  0  0
  1  3  2  0  0  0  0
  1  9  1  0  0  0  0
  2  4  1  0  0  0  0
  2  7  2  0  0  0  0
  3  5  1  0  0  0  0
  3  8  1  0  0  0  0
  6  8  1  0  0  0  0
  7  8  1  0  0  0  0
  4 10  1  0  0  0  0
  4 11  1  0  0  0  0
  4 12  1  0  0  0  0
  5 13  1  0  0  0  0
  5 14  1  0  0  0  0
  5 15  1  0  0  0  0
  6 16  1  0  0  0  0
  6 17  1  0  0  0  0
  6 18  1  0  0  0  0
  9 19  1  0  0  0  0
M  END
> <id>
EN300-85121

> <smiles>
CC1=NN(C)C(C)=C1O

> <MDLNUMBER>
MFCD20441530

> <IUPAC Name>
trimethyl-1H-pyrazol-4-ol

> <CAS>
89193-22-6

> <Purity>
95

> <URL>
https://www.enaminestore.com/catalog/EN300-85121

> <MP>
183-187

> <ROCS_ShapeQuery>
_hit0

> <ROCS_TanimotoCombo>
1.018 

> <ROCS_ShapeTanimoto>
0.420 

> <ROCS_ColorTanimoto>
0.598 

> <ROCS_RefTversky>
1.213 

> <ROCS_RefColorTversky>
0.748 

> <ROCS_RefTverskyCombo>
1.961 

> <ROCS_FitTversky>
0.391 

> <ROCS_FitColorTversky>
0.748 

> <ROCS_FitTverskyCombo>
1.140 

> <ROCS_ColorScore>
-2.993

> <ROCS_Overlap>
148.852

> <ROCS_Rank>
287                 

$$$$
untitled-dbase-15452_3
  -OEChem-06232314393D

 23 23  0     1  0  0  0  0  0999 V2000
   -6.5835    6.8479  -34.5022 C   0  0  0  0  0  0  0  0  0  0  0  0
   -6.4594    5.5212  -34.3578 C   0  0  0  0  0  0  0  0  0  0  0  0
   -7.2553    7.5100  -35.6642 C   0  0  0  0  0  0  0  0  0  0  0  0
   -6.9918    4.4960  -35.3131 C   0  0  0  0  0  0  0  0  0  0  0  0
   -6.2856    7.8130  -36.8038 C   0  0  0  0  0  0  0  0  0  0  0  0
   -6.1146    4.2622  -36.5439 C   0  0  0  0  0  0  0  0  0  0  0  0
   -5.4072    6.6465  -37.2792 C   0  0  0  0  0  0  0  0  0  0  0  0
   -6.1612    5.3550  -37.6285 C   0  0  1  0  0  0  0  0  0  0  0  0
   -5.5145    4.8111  -38.7892 O   0  0  0  0  0  0  0  0  0  0  0  0
   -6.1870    7.4916  -33.7293 H   0  0  0  0  0  0  0  0  0  0  0  0
   -5.9622    5.1439  -33.4611 H   0  0  0  0  0  0  0  0  0  0  0  0
   -8.0177    6.8219  -36.0334 H   0  0  0  0  0  0  0  0  0  0  0  0
   -7.7845    8.4104  -35.3585 H   0  0  0  0  0  0  0  0  0  0  0  0
   -7.1721    3.5360  -34.8011 H   0  0  0  0  0  0  0  0  0  0  0  0
   -7.9955    4.8165  -35.6430 H   0  0  0  0  0  0  0  0  0  0  0  0
   -6.8249    8.2452  -37.6594 H   0  0  0  0  0  0  0  0  0  0  0  0
   -5.6069    8.6033  -36.4498 H   0  0  0  0  0  0  0  0  0  0  0  0
   -5.0785    4.1228  -36.2126 H   0  0  0  0  0  0  0  0  0  0  0  0
   -6.3925    3.3087  -37.0100 H   0  0  0  0  0  0  0  0  0  0  0  0
   -4.8748    6.9987  -38.1760 H   0  0  0  0  0  0  0  0  0  0  0  0
   -4.6160    6.4468  -36.5423 H   0  0  0  0  0  0  0  0  0  0  0  0
   -7.1866    5.5686  -37.9195 H   0  0  0  0  0  0  0  0  0  0  0  0
   -4.6104    4.5998  -38.5177 H   0  0  0  0  0  0  0  0  0  0  0  0
  1  2  2  0  0  0  0
  1  3  1  0  0  0  0
  2  4  1  0  0  0  0
  3  5  1  0  0  0  0
  4  6  1  0  0  0  0
  5  7  1  0  0  0  0
  6  8  1  0  0  0  0
  7  8  1  0  0  0  0
  8  9  1  0  0  0  0
  1 10  1  0  0  0  0
  2 11  1  0  0  0  0
  3 12  1  0  0  0  0
  3 13  1  0  0  0  0
  4 14  1  0  0  0  0
  4 15  1  0  0  0  0
  5 16  1  0  0  0  0
  5 17  1  0  0  0  0
  6 18  1  0  0  0  0
  6 19  1  0  0  0  0
  7 20  1  0  0  0  0
  7 21  1  0  0  0  0
  8 22  1  0  0  0  0
  9 23  1  0  0  0  0
M  END
> <id>
EN300-1177815

> <smiles>
OC1CCC/C=C\CC1

> <MDLNUMBER>
MFCD06252442

> <IUPAC Name>
(4Z)-cyclooct-4-en-1-ol

> <CAS>
4277-34-3

> <Purity>
95

> <URL>
https://www.enaminestore.com/catalog/EN300-1177815

> <ROCS_ShapeQuery>
_hit0

> <ROCS_TanimotoCombo>
1.017 

> <ROCS_ShapeTanimoto>
0.518 

> <ROCS_ColorTanimoto>
0.500 

> <ROCS_RefTversky>
1.311 

> <ROCS_RefColorTversky>
0.513 

> <ROCS_RefTverskyCombo>
1.824 

> <ROCS_FitTversky>
0.461 

> <ROCS_FitColorTversky>
0.952 

> <ROCS_FitTverskyCombo>
1.413 

> <ROCS_ColorScore>
-2.000

> <ROCS_Overlap>
158.429

> <ROCS_Rank>
288                 

$$$$
untitled-dbase-9020_0
  -OEChem-06232314393D

 23 23  0     1  0  0  0  0  0999 V2000
   -6.5835    6.8480  -34.5022 C   0  0  0  0  0  0  0  0  0  0  0  0
   -6.4593    5.5212  -34.3578 C   0  0  0  0  0  0  0  0  0  0  0  0
   -7.2553    7.5100  -35.6642 C   0  0  0  0  0  0  0  0  0  0  0  0
   -6.9918    4.4960  -35.3131 C   0  0  0  0  0  0  0  0  0  0  0  0
   -6.2856    7.8130  -36.8039 C   0  0  0  0  0  0  0  0  0  0  0  0
   -6.1146    4.2623  -36.5439 C   0  0  0  0  0  0  0  0  0  0  0  0
   -5.4072    6.6466  -37.2792 C   0  0  0  0  0  0  0  0  0  0  0  0
   -6.1612    5.3550  -37.6285 C   0  0  1  0  0  0  0  0  0  0  0  0
   -5.5145    4.8111  -38.7892 O   0  0  0  0  0  0  0  0  0  0  0  0
   -6.1648    7.4924  -33.7416 H   0  0  0  0  0  0  0  0  0  0  0  0
   -5.9001    5.1459  -33.4975 H   0  0  0  0  0  0  0  0  0  0  0  0
   -8.1005    6.9253  -36.0221 H   0  0  0  0  0  0  0  0  0  0  0  0
   -7.6710    8.4530  -35.3046 H   0  0  0  0  0  0  0  0  0  0  0  0
   -7.1094    3.5423  -34.7693 H   0  0  0  0  0  0  0  0  0  0  0  0
   -8.0163    4.7496  -35.6333 H   0  0  0  0  0  0  0  0  0  0  0  0
   -6.8895    8.1326  -37.6661 H   0  0  0  0  0  0  0  0  0  0  0  0
   -5.6526    8.6748  -36.5479 H   0  0  0  0  0  0  0  0  0  0  0  0
   -5.0711    4.1415  -36.2269 H   0  0  0  0  0  0  0  0  0  0  0  0
   -6.3875    3.2975  -36.9886 H   0  0  0  0  0  0  0  0  0  0  0  0
   -4.7784    6.9680  -38.1211 H   0  0  0  0  0  0  0  0  0  0  0  0
   -4.7006    6.4329  -36.4635 H   0  0  0  0  0  0  0  0  0  0  0  0
   -7.1861    5.5692  -37.9180 H   0  0  0  0  0  0  0  0  0  0  0  0
   -4.6104    4.5998  -38.5178 H   0  0  0  0  0  0  0  0  0  0  0  0
  1  2  2  3  0  0  0
  1  3  1  0  0  0  0
  2  4  1  0  0  0  0
  3  5  1  0  0  0  0
  4  6  1  0  0  0  0
  5  7  1  0  0  0  0
  6  8  1  0  0  0  0
  7  8  1  0  0  0  0
  8  9  1  0  0  0  0
  1 10  1  0  0  0  0
  2 11  1  0  0  0  0
  3 12  1  0  0  0  0
  3 13  1  0  0  0  0
  4 14  1  0  0  0  0
  4 15  1  0  0  0  0
  5 16  1  0  0  0  0
  5 17  1  0  0  0  0
  6 18  1  0  0  0  0
  6 19  1  0  0  0  0
  7 20  1  0  0  0  0
  7 21  1  0  0  0  0
  8 22  1  0  0  0  0
  9 23  1  0  0  0  0
M  END
> <id>
EN300-316153

> <smiles>
OC1CCCC=CCC1

> <IUPAC Name>
cyclooct-4-en-1-ol

> <CAS>
4277-34-3

> <URL>
https://www.enaminestore.com/catalog/EN300-316153

> <ROCS_ShapeQuery>
_hit0

> <ROCS_TanimotoCombo>
1.017 

> <ROCS_ShapeTanimoto>
0.518 

> <ROCS_ColorTanimoto>
0.500 

> <ROCS_RefTversky>
1.311 

> <ROCS_RefColorTversky>
0.513 

> <ROCS_RefTverskyCombo>
1.824 

> <ROCS_FitTversky>
0.461 

> <ROCS_FitColorTversky>
0.952 

> <ROCS_FitTverskyCombo>
1.413 

> <ROCS_ColorScore>
-2.000

> <ROCS_Overlap>
158.429

> <ROCS_Rank>
289                 

$$$$
untitled-dbase-50799_0
  -OEChem-06232314393D

 19 19  0     1  0  0  0  0  0999 V2000
   -6.9616    3.4019  -35.8482 C   0  0  0  0  0  0  0  0  0  0  0  0
   -6.1682    3.4280  -36.9283 C   0  0  0  0  0  0  0  0  0  0  0  0
   -7.1393    4.5757  -34.9293 C   0  0  0  0  0  0  0  0  0  0  0  0
   -5.8500    5.9219  -36.6286 C   0  0  0  0  0  0  0  0  0  0  0  0
   -5.3929    4.6449  -37.3450 C   0  0  2  0  0  0  0  0  0  0  0  0
   -6.0735    5.6640  -35.1362 C   0  0  1  0  0  0  0  0  0  0  0  0
   -6.4823    6.8945  -34.4624 N   0  0  0  0  0  0  0  0  0  0  0  0
   -5.5353    4.8521  -38.7478 O   0  0  0  0  0  0  0  0  0  0  0  0
   -7.5070    2.4927  -35.6125 H   0  0  0  0  0  0  0  0  0  0  0  0
   -6.0698    2.5299  -37.5318 H   0  0  0  0  0  0  0  0  0  0  0  0
   -8.1473    4.9789  -35.0934 H   0  0  0  0  0  0  0  0  0  0  0  0
   -7.1017    4.2266  -33.8899 H   0  0  0  0  0  0  0  0  0  0  0  0
   -5.0972    6.7061  -36.7811 H   0  0  0  0  0  0  0  0  0  0  0  0
   -6.7700    6.3027  -37.0947 H   0  0  0  0  0  0  0  0  0  0  0  0
   -4.3297    4.4668  -37.1421 H   0  0  0  0  0  0  0  0  0  0  0  0
   -5.1318    5.3319  -34.6893 H   0  0  0  0  0  0  0  0  0  0  0  0
   -6.5998    6.6943  -33.4980 H   0  0  0  0  0  0  0  0  0  0  0  0
   -5.7697    7.5713  -34.5971 H   0  0  0  0  0  0  0  0  0  0  0  0
   -5.0193    5.6443  -38.9644 H   0  0  0  0  0  0  0  0  0  0  0  0
  1  2  2  0  0  0  0
  1  3  1  0  0  0  0
  2  5  1  0  0  0  0
  3  6  1  0  0  0  0
  4  5  1  0  0  0  0
  4  6  1  0  0  0  0
  5  8  1  1  0  0  0
  6  7  1  1  0  0  0
  1  9  1  0  0  0  0
  2 10  1  0  0  0  0
  3 11  1  0  0  0  0
  3 12  1  0  0  0  0
  4 13  1  0  0  0  0
  4 14  1  0  0  0  0
  5 15  1  0  0  0  0
  6 16  1  0  0  0  0
  7 17  1  0  0  0  0
  7 18  1  0  0  0  0
  8 19  1  0  0  0  0
M  END
> <id>
EN300-39848118

> <smiles>
N[C@H]1CC=C[C@@H](O)C1

> <IUPAC Name>
(1S,5S)-5-aminocyclohex-2-en-1-ol

> <URL>
https://www.enaminestore.com/catalog/EN300-39848118

> <ROCS_ShapeQuery>
_hit0

> <ROCS_TanimotoCombo>
1.017 

> <ROCS_ShapeTanimoto>
0.524 

> <ROCS_ColorTanimoto>
0.493 

> <ROCS_RefTversky>
1.246 

> <ROCS_RefColorTversky>
0.734 

> <ROCS_RefTverskyCombo>
1.981 

> <ROCS_FitTversky>
0.475 

> <ROCS_FitColorTversky>
0.601 

> <ROCS_FitTverskyCombo>
1.075 

> <ROCS_ColorScore>
-2.973

> <ROCS_Overlap>
148.597

> <ROCS_Rank>
290                 

$$$$
untitled-dbase-25036_0
  -OEChem-06232314393D

 12 12  0     0  0  0  0  0  0999 V2000
   -6.2791    6.1628  -35.4660 C   0  0  0  0  0  0  0  0  0  0  0  0
   -6.7738    4.9995  -34.8987 C   0  0  0  0  0  0  0  0  0  0  0  0
   -5.9297    4.9151  -37.4922 C   0  0  0  0  0  0  0  0  0  0  0  0
   -5.8511    6.1114  -36.7879 C   0  0  0  0  0  0  0  0  0  0  0  0
   -6.4398    3.8076  -36.8342 C   0  0  0  0  0  0  0  0  0  0  0  0
   -6.8655    3.8189  -35.5511 N   0  0  0  0  0  0  0  0  0  0  0  0
   -5.5254    4.8108  -38.7845 O   0  0  0  0  0  0  0  0  0  0  0  0
   -6.5240    2.6426  -37.4966 F   0  0  0  0  0  0  0  0  0  0  0  0
   -5.2298    7.5397  -37.5266 Cl  0  0  0  0  0  0  0  0  0  0  0  0
   -6.2334    7.0774  -34.8843 H   0  0  0  0  0  0  0  0  0  0  0  0
   -7.1205    4.9867  -33.8707 H   0  0  0  0  0  0  0  0  0  0  0  0
   -5.1937    5.6654  -39.1063 H   0  0  0  0  0  0  0  0  0  0  0  0
  1  2  1  0  0  0  0
  1  4  2  0  0  0  0
  2  6  2  0  0  0  0
  3  4  1  0  0  0  0
  3  5  2  0  0  0  0
  3  7  1  0  0  0  0
  4  9  1  0  0  0  0
  5  6  1  0  0  0  0
  5  8  1  0  0  0  0
  1 10  1  0  0  0  0
  2 11  1  0  0  0  0
  7 12  1  0  0  0  0
M  END
> <id>
EN300-1963932

> <smiles>
OC=1C(F)=NC=CC1Cl

> <MDLNUMBER>
MFCD16610323

> <IUPAC Name>
4-chloro-2-fluoropyridin-3-ol

> <CAS>
1227592-74-6

> <URL>
https://www.enaminestore.com/catalog/EN300-1963932

> <ROCS_ShapeQuery>
_hit0

> <ROCS_TanimotoCombo>
1.017 

> <ROCS_ShapeTanimoto>
0.418 

> <ROCS_ColorTanimoto>
0.600 

> <ROCS_RefTversky>
1.197 

> <ROCS_RefColorTversky>
0.750 

> <ROCS_RefTverskyCombo>
1.947 

> <ROCS_FitTversky>
0.391 

> <ROCS_FitColorTversky>
0.750 

> <ROCS_FitTverskyCombo>
1.140 

> <ROCS_ColorScore>
-2.998

> <ROCS_Overlap>
146.630

> <ROCS_Rank>
291                 

$$$$
untitled-dbase-21754_37
  -OEChem-06232314393D

 12 11  0     0  0  0  0  0  0999 V2000
   -6.3901    5.4089  -35.4302 C   0  0  0  0  0  0  0  0  0  0  0  0
   -5.8008    4.9618  -38.0515 C   0  0  0  0  0  0  0  0  0  0  0  0
   -6.5970    7.5876  -34.4110 N   0  0  0  0  0  0  0  0  0  0  0  0
   -6.4279    6.2188  -34.3148 N   0  0  0  0  0  0  0  0  0  0  0  0
   -6.8755    3.8090  -35.5446 S   0  0  0  0  0  0  0  0  0  0  0  0
   -5.7036    6.2707  -36.8072 S   0  0  0  0  0  0  0  0  0  0  0  0
   -5.4062    5.3243  -39.0039 H   0  0  0  0  0  0  0  0  0  0  0  0
   -6.8413    4.6575  -38.1895 H   0  0  0  0  0  0  0  0  0  0  0  0
   -5.2155    4.0978  -37.7278 H   0  0  0  0  0  0  0  0  0  0  0  0
   -6.1371    7.8813  -35.2719 H   0  0  0  0  0  0  0  0  0  0  0  0
   -6.0621    8.0050  -33.6503 H   0  0  0  0  0  0  0  0  0  0  0  0
   -6.3294    5.8230  -33.3851 H   0  0  0  0  0  0  0  0  0  0  0  0
  1  4  1  0  0  0  0
  1  5  2  0  0  0  0
  1  6  1  0  0  0  0
  2  6  1  0  0  0  0
  3  4  1  0  0  0  0
  2  7  1  0  0  0  0
  2  8  1  0  0  0  0
  2  9  1  0  0  0  0
  3 10  1  0  0  0  0
  3 11  1  0  0  0  0
  4 12  1  0  0  0  0
M  END
> <id>
EN300-43242

> <smiles>
CSC(=S)NN

> <MDLNUMBER>
MFCD00463356

> <IUPAC Name>
{[(methylsulfanyl)methanethioyl]amino}amine

> <CAS>
5397-03-5

> <Purity>
95

> <URL>
https://www.enaminestore.com/catalog/EN300-43242

> <MP>
81-83

> <ROCS_ShapeQuery>
_hit0

> <ROCS_TanimotoCombo>
1.017 

> <ROCS_ShapeTanimoto>
0.647 

> <ROCS_ColorTanimoto>
0.370 

> <ROCS_RefTversky>
1.074 

> <ROCS_RefColorTversky>
0.558 

> <ROCS_RefTverskyCombo>
1.632 

> <ROCS_FitTversky>
0.620 

> <ROCS_FitColorTversky>
0.523 

> <ROCS_FitTverskyCombo>
1.143 

> <ROCS_ColorScore>
-2.239

> <ROCS_Overlap>
121.478

> <ROCS_Rank>
292                 

$$$$
untitled-dbase-22221_0
  -OEChem-06232314393D

 17 17  0     0  0  0  0  0  0999 V2000
   -5.9809    4.7220  -37.5122 C   0  0  0  0  0  0  0  0  0  0  0  0
   -6.4940    3.5930  -36.8459 C   0  0  0  0  0  0  0  0  0  0  0  0
   -6.0451    5.7292  -36.5805 C   0  0  0  0  0  0  0  0  0  0  0  0
   -6.6587    2.2267  -37.3741 C   0  0  0  0  0  0  0  0  0  0  0  0
   -6.8413    5.8068  -34.1899 C   0  0  0  0  0  0  0  0  0  0  0  0
   -6.8572    3.8575  -35.5881 N   0  0  0  0  0  0  0  0  0  0  0  0
   -6.5719    5.1641  -35.4565 N   0  0  0  0  0  0  0  0  0  0  0  0
   -5.5285    4.8024  -38.7794 N   0  0  0  0  0  0  0  0  0  0  0  0
   -5.6147    7.3689  -36.6239 Cl  0  0  0  0  0  0  0  0  0  0  0  0
   -5.7570    1.6175  -37.1936 H   0  0  0  0  0  0  0  0  0  0  0  0
   -7.5134    1.7024  -36.9117 H   0  0  0  0  0  0  0  0  0  0  0  0
   -6.8524    2.2218  -38.4612 H   0  0  0  0  0  0  0  0  0  0  0  0
   -7.8611    6.1992  -34.2210 H   0  0  0  0  0  0  0  0  0  0  0  0
   -6.7368    5.0773  -33.3820 H   0  0  0  0  0  0  0  0  0  0  0  0
   -6.1232    6.6171  -34.0359 H   0  0  0  0  0  0  0  0  0  0  0  0
   -5.4746    3.9782  -39.3979 H   0  0  0  0  0  0  0  0  0  0  0  0
   -5.1253    5.6702  -39.1655 H   0  0  0  0  0  0  0  0  0  0  0  0
  1  2  1  0  0  0  0
  1  3  2  0  0  0  0
  1  8  1  0  0  0  0
  2  4  1  0  0  0  0
  2  6  2  0  0  0  0
  3  7  1  0  0  0  0
  3  9  1  0  0  0  0
  5  7  1  0  0  0  0
  6  7  1  0  0  0  0
  4 10  1  0  0  0  0
  4 11  1  0  0  0  0
  4 12  1  0  0  0  0
  5 13  1  0  0  0  0
  5 14  1  0  0  0  0
  5 15  1  0  0  0  0
  8 16  1  0  0  0  0
  8 17  1  0  0  0  0
M  END
> <id>
EN300-1600861

> <smiles>
CC1=NN(C)C(Cl)=C1N

> <MDLNUMBER>
MFCD19206032

> <IUPAC Name>
5-chloro-1,3-dimethyl-1H-pyrazol-4-amine

> <CAS>
100674-51-9

> <URL>
https://www.enaminestore.com/catalog/EN300-1600861

> <ROCS_ShapeQuery>
_hit0

> <ROCS_TanimotoCombo>
1.017 

> <ROCS_ShapeTanimoto>
0.419 

> <ROCS_ColorTanimoto>
0.598 

> <ROCS_RefTversky>
1.197 

> <ROCS_RefColorTversky>
0.748 

> <ROCS_RefTverskyCombo>
1.945 

> <ROCS_FitTversky>
0.392 

> <ROCS_FitColorTversky>
0.748 

> <ROCS_FitTverskyCombo>
1.140 

> <ROCS_ColorScore>
-2.993

> <ROCS_Overlap>
146.517

> <ROCS_Rank>
293                 

$$$$
untitled-dbase-6350_0
  -OEChem-06232314393D

  9  9  0     0  0  0  0  0  0999 V2000
   -6.4734    3.7006  -36.8550 C   0  0  0  0  0  0  0  0  0  0  0  0
   -5.9465    4.8687  -37.4813 C   0  0  0  0  0  0  0  0  0  0  0  0
   -6.8643    3.8537  -35.5877 N   0  0  0  0  0  0  0  0  0  0  0  0
   -5.9121    5.9644  -36.7194 N   0  0  0  0  0  0  0  0  0  0  0  0
   -5.5224    4.8100  -38.7720 N   0  0  0  0  0  0  0  0  0  0  0  0
   -6.5470    5.4659  -35.2482 S   0  0  0  0  0  0  0  0  0  0  0  0
   -6.5858    2.7199  -37.2977 H   0  0  0  0  0  0  0  0  0  0  0  0
   -5.5262    3.9311  -39.3005 H   0  0  0  0  0  0  0  0  0  0  0  0
   -5.0953    5.6190  -39.2355 H   0  0  0  0  0  0  0  0  0  0  0  0
  1  2  1  0  0  0  0
  1  3  2  0  0  0  0
  2  4  2  0  0  0  0
  2  5  1  0  0  0  0
  3  6  1  0  0  0  0
  4  6  1  0  0  0  0
  1  7  1  0  0  0  0
  5  8  1  0  0  0  0
  5  9  1  0  0  0  0
M  END
> <id>
EN300-148195

> <smiles>
NC=1C=NSN1

> <MDLNUMBER>
MFCD11109142

> <IUPAC Name>
1,2,5-thiadiazol-3-amine

> <CAS>
6504-55-8

> <URL>
https://www.enaminestore.com/catalog/EN300-148195

> <ROCS_ShapeQuery>
_hit0

> <ROCS_TanimotoCombo>
1.017 

> <ROCS_ShapeTanimoto>
0.518 

> <ROCS_ColorTanimoto>
0.498 

> <ROCS_RefTversky>
1.044 

> <ROCS_RefColorTversky>
0.740 

> <ROCS_RefTverskyCombo>
1.784 

> <ROCS_FitTversky>
0.507 

> <ROCS_FitColorTversky>
0.604 

> <ROCS_FitTverskyCombo>
1.112 

> <ROCS_ColorScore>
-2.997

> <ROCS_Overlap>
120.281

> <ROCS_Rank>
294                 

$$$$
untitled-dbase-1835_0
  -OEChem-06232314393D

  9  9  0     0  0  0  0  0  0999 V2000
   -6.4734    3.7006  -36.8550 C   0  0  0  0  0  0  0  0  0  0  0  0
   -5.9465    4.8687  -37.4813 C   0  0  0  0  0  0  0  0  0  0  0  0
   -6.8643    3.8537  -35.5877 N   0  0  0  0  0  0  0  0  0  0  0  0
   -5.9121    5.9644  -36.7194 N   0  0  0  0  0  0  0  0  0  0  0  0
   -5.5224    4.8100  -38.7720 N   0  0  0  0  0  0  0  0  0  0  0  0
   -6.5470    5.4659  -35.2482 S   0  0  0  0  0  0  0  0  0  0  0  0
   -6.5858    2.7199  -37.2977 H   0  0  0  0  0  0  0  0  0  0  0  0
   -5.5262    3.9311  -39.3005 H   0  0  0  0  0  0  0  0  0  0  0  0
   -5.0953    5.6190  -39.2355 H   0  0  0  0  0  0  0  0  0  0  0  0
  1  2  1  0  0  0  0
  1  3  2  0  0  0  0
  2  4  2  0  0  0  0
  2  5  1  0  0  0  0
  3  6  1  0  0  0  0
  4  6  1  0  0  0  0
  1  7  1  0  0  0  0
  5  8  1  0  0  0  0
  5  9  1  0  0  0  0
M  END
> <id>
EN300-107860

> <smiles>
Cl.NC=1C=NSN1

> <MDLNUMBER>
MFCD22421767

> <IUPAC Name>
1,2,5-thiadiazol-3-amine hydrochloride

> <CAS>
6595-67-1

> <Purity>
95

> <URL>
https://www.enaminestore.com/catalog/EN300-107860

> <Saltdate>
Cl

> <ROCS_ShapeQuery>
_hit0

> <ROCS_TanimotoCombo>
1.017 

> <ROCS_ShapeTanimoto>
0.518 

> <ROCS_ColorTanimoto>
0.498 

> <ROCS_RefTversky>
1.044 

> <ROCS_RefColorTversky>
0.740 

> <ROCS_RefTverskyCombo>
1.784 

> <ROCS_FitTversky>
0.507 

> <ROCS_FitColorTversky>
0.604 

> <ROCS_FitTverskyCombo>
1.112 

> <ROCS_ColorScore>
-2.997

> <ROCS_Overlap>
120.281

> <ROCS_Rank>
295                 

$$$$
untitled-dbase-24422_0
  -OEChem-06232314393D

 18 18  0     1  0  0  0  0  0999 V2000
   -6.8976    4.6116  -35.5739 C   0  0  0  0  0  0  0  0  0  0  0  0
   -6.1835    3.7786  -36.6375 C   0  0  0  0  0  0  0  0  0  0  0  0
   -5.3702    6.0885  -36.6311 C   0  0  0  0  0  0  0  0  0  0  0  0
   -5.8940    5.7128  -35.2495 C   0  0  1  0  0  0  0  0  0  0  0  0
   -5.2202    4.7420  -37.3405 C   0  0  2  0  0  0  0  0  0  0  0  0
   -6.4921    6.8294  -34.5377 N   0  0  0  0  0  0  0  0  0  0  0  0
   -5.5540    4.8597  -38.7138 O   0  0  0  0  0  0  0  0  0  0  0  0
   -7.8211    5.0288  -35.9956 H   0  0  0  0  0  0  0  0  0  0  0  0
   -7.1677    4.0155  -34.6965 H   0  0  0  0  0  0  0  0  0  0  0  0
   -5.6075    2.9860  -36.1447 H   0  0  0  0  0  0  0  0  0  0  0  0
   -6.8948    3.3011  -37.3187 H   0  0  0  0  0  0  0  0  0  0  0  0
   -6.0758    6.7331  -37.1715 H   0  0  0  0  0  0  0  0  0  0  0  0
   -4.4173    6.6259  -36.5783 H   0  0  0  0  0  0  0  0  0  0  0  0
   -5.0781    5.2996  -34.6435 H   0  0  0  0  0  0  0  0  0  0  0  0
   -4.1934    4.3666  -37.2670 H   0  0  0  0  0  0  0  0  0  0  0  0
   -6.8443    6.5000  -33.6676 H   0  0  0  0  0  0  0  0  0  0  0  0
   -5.7931    7.5212  -34.3877 H   0  0  0  0  0  0  0  0  0  0  0  0
   -4.9162    5.4778  -39.1083 H   0  0  0  0  0  0  0  0  0  0  0  0
  1  2  1  0  0  0  0
  1  4  1  0  0  0  0
  2  5  1  0  0  0  0
  3  4  1  0  0  0  0
  3  5  1  0  0  0  0
  4  6  1  1  0  0  0
  5  7  1  1  0  0  0
  1  8  1  0  0  0  0
  1  9  1  0  0  0  0
  2 10  1  0  0  0  0
  2 11  1  0  0  0  0
  3 12  1  0  0  0  0
  3 13  1  0  0  0  0
  4 14  1  0  0  0  0
  5 15  1  0  0  0  0
  6 16  1  0  0  0  0
  6 17  1  0  0  0  0
  7 18  1  0  0  0  0
M  END
> <id>
EN300-207410

> <smiles>
N[C@H]1CC[C@@H](O)C1

> <MDLNUMBER>
MFCD11052498

> <IUPAC Name>
(1R,3S)-3-aminocyclopentan-1-ol

> <CAS>
1110772-05-8

> <URL>
https://www.enaminestore.com/catalog/EN300-207410

> <ROCS_ShapeQuery>
_hit0

> <ROCS_TanimotoCombo>
1.017 

> <ROCS_ShapeTanimoto>
0.534 

> <ROCS_ColorTanimoto>
0.483 

> <ROCS_RefTversky>
1.158 

> <ROCS_RefColorTversky>
0.723 

> <ROCS_RefTverskyCombo>
1.881 

> <ROCS_FitTversky>
0.498 

> <ROCS_FitColorTversky>
0.592 

> <ROCS_FitTverskyCombo>
1.090 

> <ROCS_ColorScore>
-2.930

> <ROCS_Overlap>
135.540

> <ROCS_Rank>
296                 

$$$$
untitled-dbase-5051_0
  -OEChem-06232314393D

 18 18  0     1  0  0  0  0  0999 V2000
   -6.8976    4.6116  -35.5739 C   0  0  0  0  0  0  0  0  0  0  0  0
   -6.1835    3.7786  -36.6375 C   0  0  0  0  0  0  0  0  0  0  0  0
   -5.3702    6.0885  -36.6311 C   0  0  0  0  0  0  0  0  0  0  0  0
   -5.8940    5.7128  -35.2495 C   0  0  1  0  0  0  0  0  0  0  0  0
   -5.2202    4.7420  -37.3405 C   0  0  2  0  0  0  0  0  0  0  0  0
   -6.4921    6.8294  -34.5377 N   0  0  0  0  0  0  0  0  0  0  0  0
   -5.5540    4.8597  -38.7138 O   0  0  0  0  0  0  0  0  0  0  0  0
   -7.8211    5.0288  -35.9956 H   0  0  0  0  0  0  0  0  0  0  0  0
   -7.1677    4.0155  -34.6965 H   0  0  0  0  0  0  0  0  0  0  0  0
   -5.6075    2.9860  -36.1447 H   0  0  0  0  0  0  0  0  0  0  0  0
   -6.8948    3.3011  -37.3187 H   0  0  0  0  0  0  0  0  0  0  0  0
   -6.0758    6.7331  -37.1715 H   0  0  0  0  0  0  0  0  0  0  0  0
   -4.4173    6.6259  -36.5783 H   0  0  0  0  0  0  0  0  0  0  0  0
   -5.0781    5.2996  -34.6435 H   0  0  0  0  0  0  0  0  0  0  0  0
   -4.1934    4.3666  -37.2670 H   0  0  0  0  0  0  0  0  0  0  0  0
   -6.8443    6.5000  -33.6676 H   0  0  0  0  0  0  0  0  0  0  0  0
   -5.7931    7.5212  -34.3877 H   0  0  0  0  0  0  0  0  0  0  0  0
   -4.9162    5.4778  -39.1083 H   0  0  0  0  0  0  0  0  0  0  0  0
  1  2  1  0  0  0  0
  1  4  1  0  0  0  0
  2  5  1  0  0  0  0
  3  4  1  0  0  0  0
  3  5  1  0  0  0  0
  4  6  1  1  0  0  0
  5  7  1  1  0  0  0
  1  8  1  0  0  0  0
  1  9  1  0  0  0  0
  2 10  1  0  0  0  0
  2 11  1  0  0  0  0
  3 12  1  0  0  0  0
  3 13  1  0  0  0  0
  4 14  1  0  0  0  0
  5 15  1  0  0  0  0
  6 16  1  0  0  0  0
  6 17  1  0  0  0  0
  7 18  1  0  0  0  0
M  END
> <id>
EN300-207818

> <smiles>
Cl.N[C@H]1CC[C@@H](O)C1

> <MDLNUMBER>
MFCD11878010

> <IUPAC Name>
(1R,3S)-3-aminocyclopentan-1-ol hydrochloride

> <CAS>
1279032-31-3

> <Purity>
95

> <URL>
https://www.enaminestore.com/catalog/EN300-207818

> <Saltdate>
Cl

> <ROCS_ShapeQuery>
_hit0

> <ROCS_TanimotoCombo>
1.017 

> <ROCS_ShapeTanimoto>
0.534 

> <ROCS_ColorTanimoto>
0.483 

> <ROCS_RefTversky>
1.158 

> <ROCS_RefColorTversky>
0.723 

> <ROCS_RefTverskyCombo>
1.881 

> <ROCS_FitTversky>
0.498 

> <ROCS_FitColorTversky>
0.592 

> <ROCS_FitTverskyCombo>
1.090 

> <ROCS_ColorScore>
-2.930

> <ROCS_Overlap>
135.540

> <ROCS_Rank>
297                 

$$$$
untitled-dbase-414_0
  -OEChem-06232314393D

 17 17  0     0  0  0  0  0  0999 V2000
   -5.9872    5.7919  -36.5305 C   0  0  0  0  0  0  0  0  0  0  0  0
   -6.5450    5.1658  -35.3997 C   0  0  0  0  0  0  0  0  0  0  0  0
   -5.9556    4.8072  -37.4875 C   0  0  0  0  0  0  0  0  0  0  0  0
   -6.8078    5.7655  -34.0808 C   0  0  0  0  0  0  0  0  0  0  0  0
   -6.6530    2.3887  -37.4892 C   0  0  0  0  0  0  0  0  0  0  0  0
   -6.8462    3.8828  -35.6167 N   0  0  0  0  0  0  0  0  0  0  0  0
   -6.4764    3.6946  -36.8950 N   0  0  0  0  0  0  0  0  0  0  0  0
   -5.5306    4.8004  -38.7677 N   0  0  0  0  0  0  0  0  0  0  0  0
   -5.6534    6.8143  -36.6354 H   0  0  0  0  0  0  0  0  0  0  0  0
   -7.8199    6.2030  -34.0338 H   0  0  0  0  0  0  0  0  0  0  0  0
   -6.7269    5.0271  -33.2630 H   0  0  0  0  0  0  0  0  0  0  0  0
   -6.0878    6.5669  -33.8358 H   0  0  0  0  0  0  0  0  0  0  0  0
   -5.7438    1.8097  -37.3075 H   0  0  0  0  0  0  0  0  0  0  0  0
   -7.5172    1.8959  -37.0351 H   0  0  0  0  0  0  0  0  0  0  0  0
   -6.8280    2.5009  -38.5629 H   0  0  0  0  0  0  0  0  0  0  0  0
   -5.5361    3.9450  -39.3439 H   0  0  0  0  0  0  0  0  0  0  0  0
   -5.0918    5.6250  -39.2050 H   0  0  0  0  0  0  0  0  0  0  0  0
  1  2  1  0  0  0  0
  1  3  2  0  0  0  0
  2  4  1  0  0  0  0
  2  6  2  0  0  0  0
  3  7  1  0  0  0  0
  3  8  1  0  0  0  0
  5  7  1  0  0  0  0
  6  7  1  0  0  0  0
  1  9  1  0  0  0  0
  4 10  1  0  0  0  0
  4 11  1  0  0  0  0
  4 12  1  0  0  0  0
  5 13  1  0  0  0  0
  5 14  1  0  0  0  0
  5 15  1  0  0  0  0
  8 16  1  0  0  0  0
  8 17  1  0  0  0  0
M  END
> <id>
EN300-14984

> <smiles>
CC=1C=C(N)N(C)N1

> <MDLNUMBER>
MFCD00051651

> <IUPAC Name>
1,3-dimethyl-1H-pyrazol-5-amine

> <CAS>
3524-32-1

> <Purity>
95

> <URL>
https://www.enaminestore.com/catalog/EN300-14984

> <MP>
72-77

> <ROCS_ShapeQuery>
_hit0

> <ROCS_TanimotoCombo>
1.017 

> <ROCS_ShapeTanimoto>
0.422 

> <ROCS_ColorTanimoto>
0.595 

> <ROCS_RefTversky>
1.132 

> <ROCS_RefColorTversky>
0.746 

> <ROCS_RefTverskyCombo>
1.878 

> <ROCS_FitTversky>
0.402 

> <ROCS_FitColorTversky>
0.746 

> <ROCS_FitTverskyCombo>
1.148 

> <ROCS_ColorScore>
-2.984

> <ROCS_Overlap>
136.493

> <ROCS_Rank>
298                 

$$$$
untitled-dbase-23258_0
  -OEChem-06232314393D

 15 15  0     0  0  0  0  0  0999 V2000
   -6.4275    3.4079  -37.1981 C   0  0  0  0  0  0  0  0  0  0  0  0
   -6.0075    5.7196  -36.6843 C   0  0  0  0  0  0  0  0  0  0  0  0
   -6.9055    3.2634  -35.9057 C   0  0  0  0  0  0  0  0  0  0  0  0
   -5.9717    4.6626  -37.5870 C   0  0  0  0  0  0  0  0  0  0  0  0
   -6.5046    5.4717  -35.4149 C   0  0  0  0  0  0  0  0  0  0  0  0
   -6.9560    4.2665  -35.0008 N   0  0  0  0  0  0  0  0  0  0  0  0
   -5.4748    4.8618  -38.8910 N   0  0  0  0  0  0  0  0  0  0  0  0
   -6.5347    6.5585  -34.5058 N   0  0  0  0  0  0  0  0  0  0  0  0
   -6.4125    2.5613  -37.8764 H   0  0  0  0  0  0  0  0  0  0  0  0
   -5.6568    6.7073  -36.9694 H   0  0  0  0  0  0  0  0  0  0  0  0
   -7.2725    2.3052  -35.5532 H   0  0  0  0  0  0  0  0  0  0  0  0
   -5.1944    5.7799  -39.1721 H   0  0  0  0  0  0  0  0  0  0  0  0
   -5.4986    4.1041  -39.5437 H   0  0  0  0  0  0  0  0  0  0  0  0
   -6.1589    7.4359  -34.7924 H   0  0  0  0  0  0  0  0  0  0  0  0
   -6.8434    6.3959  -33.5722 H   0  0  0  0  0  0  0  0  0  0  0  0
  1  3  1  0  0  0  0
  1  4  2  0  0  0  0
  2  4  1  0  0  0  0
  2  5  2  0  0  0  0
  3  6  2  0  0  0  0
  4  7  1  0  0  0  0
  5  6  1  0  0  0  0
  5  8  1  0  0  0  0
  1  9  1  0  0  0  0
  2 10  1  0  0  0  0
  3 11  1  0  0  0  0
  7 12  1  0  0  0  0
  7 13  1  0  0  0  0
  8 14  1  0  0  0  0
  8 15  1  0  0  0  0
M  END
> <id>
EN300-6474926

> <smiles>
Cl.NC=1C=CN=C(N)C1

> <MDLNUMBER>
MFCD18910898

> <IUPAC Name>
pyridine-2,4-diamine hydrochloride

> <CAS>
2241138-89-4

> <Purity>
95

> <URL>
https://www.enaminestore.com/catalog/EN300-6474926

> <Saltdate>
Cl

> <ROCS_ShapeQuery>
_hit0

> <ROCS_TanimotoCombo>
1.016 

> <ROCS_ShapeTanimoto>
0.494 

> <ROCS_ColorTanimoto>
0.522 

> <ROCS_RefTversky>
1.250 

> <ROCS_RefColorTversky>
0.837 

> <ROCS_RefTverskyCombo>
2.087 

> <ROCS_FitTversky>
0.450 

> <ROCS_FitColorTversky>
0.581 

> <ROCS_FitTverskyCombo>
1.031 

> <ROCS_ColorScore>
-3.432

> <ROCS_Overlap>
150.391

> <ROCS_Rank>
299                 

$$$$
untitled-dbase-38246_0
  -OEChem-06232314393D

 15 15  0     0  0  0  0  0  0999 V2000
   -6.4275    3.4079  -37.1981 C   0  0  0  0  0  0  0  0  0  0  0  0
   -6.0075    5.7196  -36.6843 C   0  0  0  0  0  0  0  0  0  0  0  0
   -6.9055    3.2634  -35.9057 C   0  0  0  0  0  0  0  0  0  0  0  0
   -5.9717    4.6626  -37.5870 C   0  0  0  0  0  0  0  0  0  0  0  0
   -6.5046    5.4717  -35.4149 C   0  0  0  0  0  0  0  0  0  0  0  0
   -6.9560    4.2665  -35.0008 N   0  0  0  0  0  0  0  0  0  0  0  0
   -5.4748    4.8618  -38.8910 N   0  0  0  0  0  0  0  0  0  0  0  0
   -6.5347    6.5585  -34.5058 N   0  0  0  0  0  0  0  0  0  0  0  0
   -6.4125    2.5613  -37.8764 H   0  0  0  0  0  0  0  0  0  0  0  0
   -5.6568    6.7073  -36.9694 H   0  0  0  0  0  0  0  0  0  0  0  0
   -7.2725    2.3052  -35.5532 H   0  0  0  0  0  0  0  0  0  0  0  0
   -5.1944    5.7799  -39.1721 H   0  0  0  0  0  0  0  0  0  0  0  0
   -5.4986    4.1041  -39.5437 H   0  0  0  0  0  0  0  0  0  0  0  0
   -6.1589    7.4359  -34.7924 H   0  0  0  0  0  0  0  0  0  0  0  0
   -6.8434    6.3959  -33.5722 H   0  0  0  0  0  0  0  0  0  0  0  0
  1  3  1  0  0  0  0
  1  4  2  0  0  0  0
  2  4  1  0  0  0  0
  2  5  2  0  0  0  0
  3  6  2  0  0  0  0
  4  7  1  0  0  0  0
  5  6  1  0  0  0  0
  5  8  1  0  0  0  0
  1  9  1  0  0  0  0
  2 10  1  0  0  0  0
  3 11  1  0  0  0  0
  7 12  1  0  0  0  0
  7 13  1  0  0  0  0
  8 14  1  0  0  0  0
  8 15  1  0  0  0  0
M  END
> <id>
EN300-110009

> <smiles>
NC=1C=CN=C(N)C1

> <MDLNUMBER>
MFCD00234953

> <IUPAC Name>
pyridine-2,4-diamine

> <CAS>
461-88-1

> <Purity>
95

> <URL>
https://www.enaminestore.com/catalog/EN300-110009

> <MP>
103-106

> <ROCS_ShapeQuery>
_hit0

> <ROCS_TanimotoCombo>
1.016 

> <ROCS_ShapeTanimoto>
0.494 

> <ROCS_ColorTanimoto>
0.522 

> <ROCS_RefTversky>
1.250 

> <ROCS_RefColorTversky>
0.837 

> <ROCS_RefTverskyCombo>
2.087 

> <ROCS_FitTversky>
0.450 

> <ROCS_FitColorTversky>
0.581 

> <ROCS_FitTverskyCombo>
1.031 

> <ROCS_ColorScore>
-3.432

> <ROCS_Overlap>
150.391

> <ROCS_Rank>
300                 

$$$$
untitled-dbase-21050_0
  -OEChem-06232314393D

 16 16  0     0  0  0  0  0  0999 V2000
   -5.9768    4.7009  -37.5197 C   0  0  0  0  0  0  0  0  0  0  0  0
   -6.5031    3.5801  -36.8499 C   0  0  0  0  0  0  0  0  0  0  0  0
   -6.0233    5.7101  -36.5892 C   0  0  0  0  0  0  0  0  0  0  0  0
   -6.6866    2.2181  -37.3804 C   0  0  0  0  0  0  0  0  0  0  0  0
   -6.8100    5.8030  -34.1963 C   0  0  0  0  0  0  0  0  0  0  0  0
   -6.8578    3.8513  -35.5910 N   0  0  0  0  0  0  0  0  0  0  0  0
   -6.5537    5.1540  -35.4624 N   0  0  0  0  0  0  0  0  0  0  0  0
   -5.5234    4.8041  -38.7751 O   0  0  0  0  0  0  0  0  0  0  0  0
   -5.5701    7.3427  -36.6417 Cl  0  0  0  0  0  0  0  0  0  0  0  0
   -5.7924    1.5962  -37.2042 H   0  0  0  0  0  0  0  0  0  0  0  0
   -7.5467    1.7028  -36.9171 H   0  0  0  0  0  0  0  0  0  0  0  0
   -6.8836    2.2173  -38.4673 H   0  0  0  0  0  0  0  0  0  0  0  0
   -7.8245    6.2090  -34.2246 H   0  0  0  0  0  0  0  0  0  0  0  0
   -6.7124    5.0740  -33.3871 H   0  0  0  0  0  0  0  0  0  0  0  0
   -6.0805    6.6039  -34.0465 H   0  0  0  0  0  0  0  0  0  0  0  0
   -5.2146    5.7115  -38.9715 H   0  0  0  0  0  0  0  0  0  0  0  0
  1  2  1  0  0  0  0
  1  3  2  0  0  0  0
  1  8  1  0  0  0  0
  2  4  1  0  0  0  0
  2  6  2  0  0  0  0
  3  7  1  0  0  0  0
  3  9  1  0  0  0  0
  5  7  1  0  0  0  0
  6  7  1  0  0  0  0
  4 10  1  0  0  0  0
  4 11  1  0  0  0  0
  4 12  1  0  0  0  0
  5 13  1  0  0  0  0
  5 14  1  0  0  0  0
  5 15  1  0  0  0  0
  8 16  1  0  0  0  0
M  END
> <id>
EN300-1979059

> <smiles>
CC1=NN(C)C(Cl)=C1O

> <MDLNUMBER>
MFCD32773071

> <IUPAC Name>
5-chloro-1,3-dimethyl-1H-pyrazol-4-ol

> <CAS>
2229434-65-3

> <URL>
https://www.enaminestore.com/catalog/EN300-1979059

> <ROCS_ShapeQuery>
_hit0

> <ROCS_TanimotoCombo>
1.016 

> <ROCS_ShapeTanimoto>
0.418 

> <ROCS_ColorTanimoto>
0.598 

> <ROCS_RefTversky>
1.196 

> <ROCS_RefColorTversky>
0.748 

> <ROCS_RefTverskyCombo>
1.944 

> <ROCS_FitTversky>
0.391 

> <ROCS_FitColorTversky>
0.748 

> <ROCS_FitTverskyCombo>
1.140 

> <ROCS_ColorScore>
-2.993

> <ROCS_Overlap>
146.413

> <ROCS_Rank>
301                 

$$$$
untitled-dbase-4512_0
  -OEChem-06232314393D

 16 16  0     0  0  0  0  0  0999 V2000
   -5.8717    6.1054  -36.7892 C   0  0  0  0  0  0  0  0  0  0  0  0
   -6.3032    6.1758  -35.4692 C   0  0  0  0  0  0  0  0  0  0  0  0
   -5.9455    4.8983  -37.4753 C   0  0  0  0  0  0  0  0  0  0  0  0
   -6.4544    3.7995  -36.8019 C   0  0  0  0  0  0  0  0  0  0  0  0
   -6.7963    5.0199  -34.8857 C   0  0  0  0  0  0  0  0  0  0  0  0
   -6.5589    2.4751  -37.4857 C   0  0  0  0  0  0  0  0  0  0  0  0
   -6.8833    3.8294  -35.5202 N   0  0  0  0  0  0  0  0  0  0  0  0
   -5.5115    4.8166  -38.8105 N   0  0  0  0  0  0  0  0  0  0  0  0
   -7.3511    5.0133  -33.2621 Cl  0  0  0  0  0  0  0  0  0  0  0  0
   -5.4802    6.9965  -37.2727 H   0  0  0  0  0  0  0  0  0  0  0  0
   -6.2497    7.1130  -34.9254 H   0  0  0  0  0  0  0  0  0  0  0  0
   -5.6391    1.8981  -37.3371 H   0  0  0  0  0  0  0  0  0  0  0  0
   -7.4035    1.8941  -37.0961 H   0  0  0  0  0  0  0  0  0  0  0  0
   -6.7250    2.5981  -38.5629 H   0  0  0  0  0  0  0  0  0  0  0  0
   -5.5257    3.9310  -39.2790 H   0  0  0  0  0  0  0  0  0  0  0  0
   -5.1062    5.6228  -39.2460 H   0  0  0  0  0  0  0  0  0  0  0  0
  1  2  1  0  0  0  0
  1  3  2  0  0  0  0
  2  5  2  0  0  0  0
  3  4  1  0  0  0  0
  3  8  1  0  0  0  0
  4  6  1  0  0  0  0
  4  7  2  0  0  0  0
  5  7  1  0  0  0  0
  5  9  1  0  0  0  0
  1 10  1  0  0  0  0
  2 11  1  0  0  0  0
  6 12  1  0  0  0  0
  6 13  1  0  0  0  0
  6 14  1  0  0  0  0
  8 15  1  0  0  0  0
  8 16  1  0  0  0  0
M  END
> <id>
EN300-181110

> <smiles>
CC=1N=C(Cl)C=CC1N

> <MDLNUMBER>
MFCD03095220

> <IUPAC Name>
6-chloro-2-methylpyridin-3-amine

> <CAS>
164666-68-6

> <Purity>
95

> <URL>
https://www.enaminestore.com/catalog/EN300-181110

> <MP>
93-94

> <ROCS_ShapeQuery>
_hit0

> <ROCS_TanimotoCombo>
1.016 

> <ROCS_ShapeTanimoto>
0.416 

> <ROCS_ColorTanimoto>
0.600 

> <ROCS_RefTversky>
1.179 

> <ROCS_RefColorTversky>
0.750 

> <ROCS_RefTverskyCombo>
1.929 

> <ROCS_FitTversky>
0.391 

> <ROCS_FitColorTversky>
0.750 

> <ROCS_FitTverskyCombo>
1.141 

> <ROCS_ColorScore>
-2.999

> <ROCS_Overlap>
143.992

> <ROCS_Rank>
302                 

$$$$
untitled-dbase-32016_0
  -OEChem-06232314393D

  9  9  0     0  0  0  0  0  0999 V2000
   -6.5493    5.1354  -35.5198 C   0  0  0  0  0  0  0  0  0  0  0  0
   -5.9627    4.7114  -37.5720 C   0  0  0  0  0  0  0  0  0  0  0  0
   -6.0149    5.6742  -36.6779 N   0  0  0  0  0  0  0  0  0  0  0  0
   -6.9021    3.8513  -35.4641 N   0  0  0  0  0  0  0  0  0  0  0  0
   -5.5021    4.8242  -38.8428 N   0  0  0  0  0  0  0  0  0  0  0  0
   -6.5557    3.2166  -36.9733 S   0  0  0  0  0  0  0  0  0  0  0  0
   -6.7712    6.1019  -34.1267 Cl  0  0  0  0  0  0  0  0  0  0  0  0
   -5.4476    4.0148  -39.4732 H   0  0  0  0  0  0  0  0  0  0  0  0
   -5.1011    5.7010  -39.1978 H   0  0  0  0  0  0  0  0  0  0  0  0
  1  3  1  0  0  0  0
  1  4  2  0  0  0  0
  1  7  1  0  0  0  0
  2  3  2  0  0  0  0
  2  5  1  0  0  0  0
  2  6  1  0  0  0  0
  4  6  1  0  0  0  0
  5  8  1  0  0  0  0
  5  9  1  0  0  0  0
M  END
> <id>
EN300-7578712

> <smiles>
NC1=NC(Cl)=NS1

> <MDLNUMBER>
MFCD19205008

> <IUPAC Name>
3-chloro-1,2,4-thiadiazol-5-amine

> <CAS>
27787-59-3

> <Purity>
95

> <URL>
https://www.enaminestore.com/catalog/EN300-7578712

> <ROCS_ShapeQuery>
_hit0

> <ROCS_TanimotoCombo>
1.016 

> <ROCS_ShapeTanimoto>
0.518 

> <ROCS_ColorTanimoto>
0.498 

> <ROCS_RefTversky>
1.133 

> <ROCS_RefColorTversky>
0.740 

> <ROCS_RefTverskyCombo>
1.873 

> <ROCS_FitTversky>
0.488 

> <ROCS_FitColorTversky>
0.604 

> <ROCS_FitTverskyCombo>
1.092 

> <ROCS_ColorScore>
-2.996

> <ROCS_Overlap>
132.649

> <ROCS_Rank>
303                 

$$$$
untitled-dbase-29653_0
  -OEChem-06232314393D

 15 15  0     0  0  0  0  0  0999 V2000
   -5.8302    6.0968  -36.8141 C   0  0  0  0  0  0  0  0  0  0  0  0
   -6.2545    6.1699  -35.4920 C   0  0  0  0  0  0  0  0  0  0  0  0
   -5.9282    4.8939  -37.5044 C   0  0  0  0  0  0  0  0  0  0  0  0
   -6.4536    3.8017  -36.8329 C   0  0  0  0  0  0  0  0  0  0  0  0
   -6.7655    5.0206  -34.9106 C   0  0  0  0  0  0  0  0  0  0  0  0
   -6.5803    2.4863  -37.5284 C   0  0  0  0  0  0  0  0  0  0  0  0
   -6.8763    3.8342  -35.5492 N   0  0  0  0  0  0  0  0  0  0  0  0
   -5.5155    4.8115  -38.7949 O   0  0  0  0  0  0  0  0  0  0  0  0
   -7.3097    5.0160  -33.2833 Cl  0  0  0  0  0  0  0  0  0  0  0  0
   -5.4250    6.9797  -37.3007 H   0  0  0  0  0  0  0  0  0  0  0  0
   -6.1828    7.1034  -34.9444 H   0  0  0  0  0  0  0  0  0  0  0  0
   -5.6693    1.8930  -37.3881 H   0  0  0  0  0  0  0  0  0  0  0  0
   -7.4330    1.9142  -37.1424 H   0  0  0  0  0  0  0  0  0  0  0  0
   -6.7474    2.6212  -38.6043 H   0  0  0  0  0  0  0  0  0  0  0  0
   -5.1766    5.6700  -39.0990 H   0  0  0  0  0  0  0  0  0  0  0  0
  1  2  1  0  0  0  0
  1  3  2  0  0  0  0
  2  5  2  0  0  0  0
  3  4  1  0  0  0  0
  3  8  1  0  0  0  0
  4  6  1  0  0  0  0
  4  7  2  0  0  0  0
  5  7  1  0  0  0  0
  5  9  1  0  0  0  0
  1 10  1  0  0  0  0
  2 11  1  0  0  0  0
  6 12  1  0  0  0  0
  6 13  1  0  0  0  0
  6 14  1  0  0  0  0
  8 15  1  0  0  0  0
M  END
> <id>
EN300-223867

> <smiles>
CC=1N=C(Cl)C=CC1O

> <MDLNUMBER>
MFCD16610482

> <IUPAC Name>
6-chloro-2-methylpyridin-3-ol

> <CAS>
218770-02-6

> <Purity>
95

> <URL>
https://www.enaminestore.com/catalog/EN300-223867

> <MP>
208-209

> <ROCS_ShapeQuery>
_hit0

> <ROCS_TanimotoCombo>
1.016 

> <ROCS_ShapeTanimoto>
0.416 

> <ROCS_ColorTanimoto>
0.600 

> <ROCS_RefTversky>
1.182 

> <ROCS_RefColorTversky>
0.750 

> <ROCS_RefTverskyCombo>
1.932 

> <ROCS_FitTversky>
0.391 

> <ROCS_FitColorTversky>
0.750 

> <ROCS_FitTverskyCombo>
1.141 

> <ROCS_ColorScore>
-2.999

> <ROCS_Overlap>
144.489

> <ROCS_Rank>
304                 

$$$$
untitled-dbase-50844_0
  -OEChem-06232314393D

 13 13  0     0  0  0  0  0  0999 V2000
   -6.0560    5.6764  -36.6227 C   0  0  0  0  0  0  0  0  0  0  0  0
   -6.6019    5.1249  -35.4283 C   0  0  0  0  0  0  0  0  0  0  0  0
   -5.9586    4.7022  -37.5924 C   0  0  0  0  0  0  0  0  0  0  0  0
   -6.8467    5.8825  -34.1830 C   0  0  0  0  0  0  0  0  0  0  0  0
   -6.9128    3.8309  -35.4414 N   0  0  0  0  0  0  0  0  0  0  0  0
   -5.4933    4.8229  -38.8578 N   0  0  0  0  0  0  0  0  0  0  0  0
   -6.4996    7.2073  -34.2551 F   0  0  0  0  0  0  0  0  0  0  0  0
   -8.1580    5.8921  -33.7819 F   0  0  0  0  0  0  0  0  0  0  0  0
   -6.1515    5.3924  -33.1090 F   0  0  0  0  0  0  0  0  0  0  0  0
   -6.5412    3.2275  -36.9447 S   0  0  0  0  0  0  0  0  0  0  0  0
   -5.7575    6.7081  -36.7589 H   0  0  0  0  0  0  0  0  0  0  0  0
   -5.1922    5.7280  -39.2433 H   0  0  0  0  0  0  0  0  0  0  0  0
   -5.5078    4.0361  -39.5205 H   0  0  0  0  0  0  0  0  0  0  0  0
  1  2  1  0  0  0  0
  1  3  2  0  0  0  0
  2  4  1  0  0  0  0
  2  5  2  0  0  0  0
  3  6  1  0  0  0  0
  3 10  1  0  0  0  0
  4  7  1  0  0  0  0
  4  8  1  0  0  0  0
  4  9  1  0  0  0  0
  5 10  1  0  0  0  0
  1 11  1  0  0  0  0
  6 12  1  0  0  0  0
  6 13  1  0  0  0  0
M  END
> <id>
EN300-1700614

> <smiles>
NC1=CC(=NS1)C(F)(F)F

> <MDLNUMBER>
MFCD30481441

> <IUPAC Name>
3-(trifluoromethyl)-1,2-thiazol-5-amine

> <CAS>
1462956-86-0

> <URL>
https://www.enaminestore.com/catalog/EN300-1700614

> <ROCS_ShapeQuery>
_hit0

> <ROCS_TanimotoCombo>
1.016 

> <ROCS_ShapeTanimoto>
0.422 

> <ROCS_ColorTanimoto>
0.594 

> <ROCS_RefTversky>
1.283 

> <ROCS_RefColorTversky>
0.745 

> <ROCS_RefTverskyCombo>
2.028 

> <ROCS_FitTversky>
0.386 

> <ROCS_FitColorTversky>
0.745 

> <ROCS_FitTverskyCombo>
1.131 

> <ROCS_ColorScore>
-2.981

> <ROCS_Overlap>
159.771

> <ROCS_Rank>
305                 

$$$$
untitled-dbase-51543_0
  -OEChem-06232314393D

 13 13  0     0  0  0  0  0  0999 V2000
   -6.0560    5.6764  -36.6227 C   0  0  0  0  0  0  0  0  0  0  0  0
   -6.6019    5.1249  -35.4283 C   0  0  0  0  0  0  0  0  0  0  0  0
   -5.9586    4.7022  -37.5924 C   0  0  0  0  0  0  0  0  0  0  0  0
   -6.8467    5.8825  -34.1830 C   0  0  0  0  0  0  0  0  0  0  0  0
   -6.9128    3.8309  -35.4414 N   0  0  0  0  0  0  0  0  0  0  0  0
   -5.4933    4.8229  -38.8578 N   0  0  0  0  0  0  0  0  0  0  0  0
   -6.4996    7.2073  -34.2551 F   0  0  0  0  0  0  0  0  0  0  0  0
   -8.1580    5.8921  -33.7819 F   0  0  0  0  0  0  0  0  0  0  0  0
   -6.1515    5.3924  -33.1090 F   0  0  0  0  0  0  0  0  0  0  0  0
   -6.5412    3.2275  -36.9447 S   0  0  0  0  0  0  0  0  0  0  0  0
   -5.7575    6.7081  -36.7589 H   0  0  0  0  0  0  0  0  0  0  0  0
   -5.1922    5.7280  -39.2433 H   0  0  0  0  0  0  0  0  0  0  0  0
   -5.5078    4.0361  -39.5205 H   0  0  0  0  0  0  0  0  0  0  0  0
  1  2  1  0  0  0  0
  1  3  2  0  0  0  0
  2  4  1  0  0  0  0
  2  5  2  0  0  0  0
  3  6  1  0  0  0  0
  3 10  1  0  0  0  0
  4  7  1  0  0  0  0
  4  8  1  0  0  0  0
  4  9  1  0  0  0  0
  5 10  1  0  0  0  0
  1 11  1  0  0  0  0
  6 12  1  0  0  0  0
  6 13  1  0  0  0  0
M  END
> <id>
EN300-39922207

> <smiles>
Cl.NC1=CC(=NS1)C(F)(F)F

> <IUPAC Name>
3-(trifluoromethyl)-1,2-thiazol-5-amine hydrochloride

> <Purity>
95

> <URL>
https://www.enaminestore.com/catalog/EN300-39922207

> <Saltdate>
Cl

> <ROCS_ShapeQuery>
_hit0

> <ROCS_TanimotoCombo>
1.016 

> <ROCS_ShapeTanimoto>
0.422 

> <ROCS_ColorTanimoto>
0.594 

> <ROCS_RefTversky>
1.283 

> <ROCS_RefColorTversky>
0.745 

> <ROCS_RefTverskyCombo>
2.028 

> <ROCS_FitTversky>
0.386 

> <ROCS_FitColorTversky>
0.745 

> <ROCS_FitTverskyCombo>
1.131 

> <ROCS_ColorScore>
-2.981

> <ROCS_Overlap>
159.771

> <ROCS_Rank>
306                 

$$$$
untitled-dbase-5275_0
  -OEChem-06232314393D

 12 12  0     0  0  0  0  0  0999 V2000
   -5.9232    5.8834  -36.6894 C   0  0  0  0  0  0  0  0  0  0  0  0
   -6.3917    5.7513  -35.3977 C   0  0  0  0  0  0  0  0  0  0  0  0
   -6.4619    3.5958  -36.9819 C   0  0  0  0  0  0  0  0  0  0  0  0
   -5.9596    4.7687  -37.5087 C   0  0  0  0  0  0  0  0  0  0  0  0
   -6.8780    4.5909  -34.9087 N   0  0  0  0  0  0  0  0  0  0  0  0
   -6.9134    3.4954  -35.7138 N   0  0  0  0  0  0  0  0  0  0  0  0
   -5.5009    4.8296  -38.8348 N   0  0  0  0  0  0  0  0  0  0  0  0
   -5.5424    6.8358  -37.0427 H   0  0  0  0  0  0  0  0  0  0  0  0
   -6.3897    6.5868  -34.7074 H   0  0  0  0  0  0  0  0  0  0  0  0
   -6.5224    2.6835  -37.5654 H   0  0  0  0  0  0  0  0  0  0  0  0
   -5.4939    3.9970  -39.3936 H   0  0  0  0  0  0  0  0  0  0  0  0
   -5.0979    5.6811  -39.1790 H   0  0  0  0  0  0  0  0  0  0  0  0
  1  2  1  0  0  0  0
  1  4  2  0  0  0  0
  2  5  2  0  0  0  0
  3  4  1  0  0  0  0
  3  6  2  0  0  0  0
  4  7  1  0  0  0  0
  5  6  1  0  0  0  0
  1  8  1  0  0  0  0
  2  9  1  0  0  0  0
  3 10  1  0  0  0  0
  7 11  1  0  0  0  0
  7 12  1  0  0  0  0
M  END
> <id>
EN300-72823

> <smiles>
NC=1C=CN=NC1

> <MDLNUMBER>
MFCD00233975

> <IUPAC Name>
pyridazin-4-amine

> <CAS>
20744-39-2

> <Purity>
95

> <URL>
https://www.enaminestore.com/catalog/EN300-72823

> <MP>
126-130

> <ROCS_ShapeQuery>
_hit0

> <ROCS_TanimotoCombo>
1.015 

> <ROCS_ShapeTanimoto>
0.482 

> <ROCS_ColorTanimoto>
0.533 

> <ROCS_RefTversky>
1.133 

> <ROCS_RefColorTversky>
0.797 

> <ROCS_RefTverskyCombo>
1.929 

> <ROCS_FitTversky>
0.456 

> <ROCS_FitColorTversky>
0.617 

> <ROCS_FitTverskyCombo>
1.073 

> <ROCS_ColorScore>
-3.240

> <ROCS_Overlap>
133.863

> <ROCS_Rank>
307                 

$$$$
untitled-dbase-223_0
  -OEChem-06232314393D

 16 16  0     0  0  0  0  0  0999 V2000
   -5.9874    4.7035  -37.5054 C   0  0  0  0  0  0  0  0  0  0  0  0
   -6.4870    3.5668  -36.8466 C   0  0  0  0  0  0  0  0  0  0  0  0
   -6.0744    5.6918  -36.5610 C   0  0  0  0  0  0  0  0  0  0  0  0
   -6.6340    2.1997  -37.3749 C   0  0  0  0  0  0  0  0  0  0  0  0
   -5.7364    7.1216  -36.5439 C   0  0  0  0  0  0  0  0  0  0  0  0
   -6.8557    3.8300  -35.5898 N   0  0  0  0  0  0  0  0  0  0  0  0
   -5.5285    4.8074  -38.7672 N   0  0  0  0  0  0  0  0  0  0  0  0
   -6.5911    5.1829  -35.4134 O   0  0  0  0  0  0  0  0  0  0  0  0
   -5.7258    1.6003  -37.1926 H   0  0  0  0  0  0  0  0  0  0  0  0
   -7.4837    1.6643  -36.9152 H   0  0  0  0  0  0  0  0  0  0  0  0
   -6.8251    2.1917  -38.4629 H   0  0  0  0  0  0  0  0  0  0  0  0
   -6.5916    7.7428  -36.8652 H   0  0  0  0  0  0  0  0  0  0  0  0
   -5.4351    7.4706  -35.5386 H   0  0  0  0  0  0  0  0  0  0  0  0
   -4.8866    7.3608  -37.2103 H   0  0  0  0  0  0  0  0  0  0  0  0
   -5.4562    3.9922  -39.3967 H   0  0  0  0  0  0  0  0  0  0  0  0
   -5.1371    5.6868  -39.1408 H   0  0  0  0  0  0  0  0  0  0  0  0
  1  2  1  0  0  0  0
  1  3  2  0  0  0  0
  1  7  1  0  0  0  0
  2  4  1  0  0  0  0
  2  6  2  0  0  0  0
  3  5  1  0  0  0  0
  3  8  1  0  0  0  0
  6  8  1  0  0  0  0
  4  9  1  0  0  0  0
  4 10  1  0  0  0  0
  4 11  1  0  0  0  0
  5 12  1  0  0  0  0
  5 13  1  0  0  0  0
  5 14  1  0  0  0  0
  7 15  1  0  0  0  0
  7 16  1  0  0  0  0
M  END
> <id>
EN300-51329

> <smiles>
CC1=NOC(C)=C1N

> <MDLNUMBER>
MFCD02681972

> <IUPAC Name>
dimethyl-1,2-oxazol-4-amine

> <CAS>
31329-64-3

> <Purity>
95

> <URL>
https://www.enaminestore.com/catalog/EN300-51329

> <MP>
41-46

> <ROCS_ShapeQuery>
_hit0

> <ROCS_TanimotoCombo>
1.015 

> <ROCS_ShapeTanimoto>
0.417 

> <ROCS_ColorTanimoto>
0.598 

> <ROCS_RefTversky>
1.117 

> <ROCS_RefColorTversky>
0.748 

> <ROCS_RefTverskyCombo>
1.866 

> <ROCS_FitTversky>
0.400 

> <ROCS_FitColorTversky>
0.748 

> <ROCS_FitTverskyCombo>
1.148 

> <ROCS_ColorScore>
-2.993

> <ROCS_Overlap>
134.618

> <ROCS_Rank>
308                 

$$$$
untitled-dbase-6948_0
  -OEChem-06232314393D

 12 12  0     0  0  0  0  0  0999 V2000
   -6.3424    6.2134  -35.4490 C   0  0  0  0  0  0  0  0  0  0  0  0
   -5.9098    6.1195  -36.7601 C   0  0  0  0  0  0  0  0  0  0  0  0
   -6.8278    5.0708  -34.8454 C   0  0  0  0  0  0  0  0  0  0  0  0
   -5.9910    4.8891  -37.3807 C   0  0  0  0  0  0  0  0  0  0  0  0
   -6.8957    3.8797  -35.4770 N   0  0  0  0  0  0  0  0  0  0  0  0
   -6.4702    3.7873  -36.7654 N   0  0  0  0  0  0  0  0  0  0  0  0
   -5.5494    4.7936  -38.7210 N   0  0  0  0  0  0  0  0  0  0  0  0
   -6.3004    7.1543  -34.9126 H   0  0  0  0  0  0  0  0  0  0  0  0
   -5.5213    6.9938  -37.2716 H   0  0  0  0  0  0  0  0  0  0  0  0
   -7.1815    5.0786  -33.8210 H   0  0  0  0  0  0  0  0  0  0  0  0
   -5.2402    5.6193  -39.1885 H   0  0  0  0  0  0  0  0  0  0  0  0
   -5.6443    3.9236  -39.2007 H   0  0  0  0  0  0  0  0  0  0  0  0
  1  2  1  0  0  0  0
  1  3  2  0  0  0  0
  2  4  2  0  0  0  0
  3  5  1  0  0  0  0
  4  6  1  0  0  0  0
  4  7  1  0  0  0  0
  5  6  2  0  0  0  0
  1  8  1  0  0  0  0
  2  9  1  0  0  0  0
  3 10  1  0  0  0  0
  7 11  1  0  0  0  0
  7 12  1  0  0  0  0
M  END
> <id>
EN300-80851

> <smiles>
NC=1C=CC=NN1

> <MDLNUMBER>
MFCD01529869

> <IUPAC Name>
pyridazin-3-amine

> <CAS>
5469-70-5

> <Purity>
95

> <URL>
https://www.enaminestore.com/catalog/EN300-80851

> <MP>
168-172

> <ROCS_ShapeQuery>
_hit0

> <ROCS_TanimotoCombo>
1.015 

> <ROCS_ShapeTanimoto>
0.501 

> <ROCS_ColorTanimoto>
0.514 

> <ROCS_RefTversky>
1.164 

> <ROCS_RefColorTversky>
0.778 

> <ROCS_RefTverskyCombo>
1.942 

> <ROCS_FitTversky>
0.468 

> <ROCS_FitColorTversky>
0.602 

> <ROCS_FitTverskyCombo>
1.070 

> <ROCS_ColorScore>
-3.164

> <ROCS_Overlap>
137.545

> <ROCS_Rank>
309                 

$$$$
untitled-dbase-44898_0
  -OEChem-06232314393D

 14 14  0     1  0  0  0  0  0999 V2000
   -5.5382    5.2026  -37.5630 C   0  0  0  0  0  0  0  0  0  0  0  0
   -6.6278    4.8285  -35.3782 C   0  0  0  0  0  0  0  0  0  0  0  0
   -7.3094    5.7761  -34.4263 C   0  0  0  0  0  0  0  0  0  0  0  0
   -5.9011    6.9763  -35.8611 C   0  0  0  0  0  0  0  0  0  0  0  0
   -5.5305    5.5229  -36.1373 C   0  0  2  0  0  0  0  0  0  0  0  0
   -5.5444    4.9483  -38.6950 N   0  0  0  0  0  0  0  0  0  0  0  0
   -6.4522    6.9579  -34.5034 N   0  0  0  0  0  0  0  0  0  0  0  0
   -6.9360    3.6510  -35.5055 O   0  0  0  0  0  0  0  0  0  0  0  0
   -8.3188    5.9893  -34.7888 H   0  0  0  0  0  0  0  0  0  0  0  0
   -7.3259    5.3692  -33.4134 H   0  0  0  0  0  0  0  0  0  0  0  0
   -5.0271    7.6331  -35.9215 H   0  0  0  0  0  0  0  0  0  0  0  0
   -6.6545    7.3523  -36.5660 H   0  0  0  0  0  0  0  0  0  0  0  0
   -4.5759    5.2658  -35.6657 H   0  0  0  0  0  0  0  0  0  0  0  0
   -6.9849    7.8053  -34.3153 H   0  0  0  0  0  0  0  0  0  0  0  0
  1  5  1  0  0  0  0
  1  6  3  0  0  0  0
  2  3  1  0  0  0  0
  2  5  1  0  0  0  0
  2  8  2  0  0  0  0
  3  7  1  0  0  0  0
  4  5  1  0  0  0  0
  4  7  1  0  0  0  0
  3  9  1  0  0  0  0
  3 10  1  0  0  0  0
  4 11  1  0  0  0  0
  4 12  1  0  0  0  0
  5 13  1  0  0  0  0
  7 14  1  0  0  0  0
M  END
> <id>
EN300-4268288

> <smiles>
O=C1CNCC1C#N

> <MDLNUMBER>
MFCD19219013

> <IUPAC Name>
4-oxopyrrolidine-3-carbonitrile

> <CAS>
874496-80-7

> <URL>
https://www.enaminestore.com/catalog/EN300-4268288

> <ROCS_ShapeQuery>
_hit0

> <ROCS_TanimotoCombo>
1.015 

> <ROCS_ShapeTanimoto>
0.537 

> <ROCS_ColorTanimoto>
0.478 

> <ROCS_RefTversky>
1.299 

> <ROCS_RefColorTversky>
0.719 

> <ROCS_RefTverskyCombo>
2.017 

> <ROCS_FitTversky>
0.478 

> <ROCS_FitColorTversky>
0.588 

> <ROCS_FitTverskyCombo>
1.066 

> <ROCS_ColorScore>
-2.910

> <ROCS_Overlap>
155.676

> <ROCS_Rank>
310                 

$$$$
untitled-dbase-45436_3
  -OEChem-06232314393D

 23 23  0     1  0  0  0  0  0999 V2000
   -7.0741    4.9100  -34.4188 C   0  0  0  0  0  0  0  0  0  0  0  0
   -7.0696    4.0732  -35.4662 C   0  0  0  0  0  0  0  0  0  0  0  0
   -6.0865    6.0169  -34.2178 C   0  0  0  0  0  0  0  0  0  0  0  0
   -6.0676    4.0885  -36.5808 C   0  0  0  0  0  0  0  0  0  0  0  0
   -6.5442    7.3303  -34.8493 C   0  0  0  0  0  0  0  0  0  0  0  0
   -7.0019    7.2500  -36.3121 C   0  0  0  0  0  0  0  0  0  0  0  0
   -6.0083    6.5912  -37.2733 C   0  0  0  0  0  0  0  0  0  0  0  0
   -6.3345    5.1395  -37.6652 C   0  0  1  0  0  0  0  0  0  0  0  0
   -5.4981    4.8238  -38.7858 O   0  0  0  0  0  0  0  0  0  0  0  0
   -7.8281    4.7785  -33.6559 H   0  0  0  0  0  0  0  0  0  0  0  0
   -7.8340    3.2947  -35.5048 H   0  0  0  0  0  0  0  0  0  0  0  0
   -5.8541    6.1560  -33.1632 H   0  0  0  0  0  0  0  0  0  0  0  0
   -5.1533    5.7107  -34.6949 H   0  0  0  0  0  0  0  0  0  0  0  0
   -5.0737    4.2656  -36.1331 H   0  0  0  0  0  0  0  0  0  0  0  0
   -5.9932    3.0916  -37.0463 H   0  0  0  0  0  0  0  0  0  0  0  0
   -7.4008    7.6929  -34.2615 H   0  0  0  0  0  0  0  0  0  0  0  0
   -5.7631    8.0977  -34.7433 H   0  0  0  0  0  0  0  0  0  0  0  0
   -7.9922    6.7815  -36.3821 H   0  0  0  0  0  0  0  0  0  0  0  0
   -7.1399    8.2866  -36.6517 H   0  0  0  0  0  0  0  0  0  0  0  0
   -5.9985    7.1748  -38.2055 H   0  0  0  0  0  0  0  0  0  0  0  0
   -4.9793    6.6713  -36.8995 H   0  0  0  0  0  0  0  0  0  0  0  0
   -7.3546    5.0644  -37.9908 H   0  0  0  0  0  0  0  0  0  0  0  0
   -5.7530    3.9348  -39.0731 H   0  0  0  0  0  0  0  0  0  0  0  0
  1  2  2  0  0  0  0
  1  3  1  0  0  0  0
  2  4  1  0  0  0  0
  3  5  1  0  0  0  0
  4  8  1  0  0  0  0
  5  6  1  0  0  0  0
  6  7  1  0  0  0  0
  7  8  1  0  0  0  0
  8  9  1  0  0  0  0
  1 10  1  0  0  0  0
  2 11  1  0  0  0  0
  3 12  1  0  0  0  0
  3 13  1  0  0  0  0
  4 14  1  0  0  0  0
  4 15  1  0  0  0  0
  5 16  1  0  0  0  0
  5 17  1  0  0  0  0
  6 18  1  0  0  0  0
  6 19  1  0  0  0  0
  7 20  1  0  0  0  0
  7 21  1  0  0  0  0
  8 22  1  0  0  0  0
  9 23  1  0  0  0  0
M  END
> <id>
EN300-28221438

> <smiles>
OC1CCCC/C=C\C1

> <MDLNUMBER>
MFCD34168094

> <IUPAC Name>
(3Z)-cyclooct-3-en-1-ol

> <CAS>
128483-46-5

> <Purity>
95

> <URL>
https://www.enaminestore.com/catalog/EN300-28221438

> <ROCS_ShapeQuery>
_hit0

> <ROCS_TanimotoCombo>
1.015 

> <ROCS_ShapeTanimoto>
0.515 

> <ROCS_ColorTanimoto>
0.499 

> <ROCS_RefTversky>
1.309 

> <ROCS_RefColorTversky>
0.512 

> <ROCS_RefTverskyCombo>
1.821 

> <ROCS_FitTversky>
0.459 

> <ROCS_FitColorTversky>
0.952 

> <ROCS_FitTverskyCombo>
1.411 

> <ROCS_ColorScore>
-1.998

> <ROCS_Overlap>
158.161

> <ROCS_Rank>
311                 

$$$$
untitled-dbase-46190_0
  -OEChem-06232314393D

 25 25  0     0  0  0  0  0  0999 V2000
   -5.9639    6.1176  -36.7946 C   0  0  0  0  0  0  0  0  0  0  0  0
   -6.4188    6.1750  -35.4820 C   0  0  0  0  0  0  0  0  0  0  0  0
   -5.9703    4.9046  -37.4743 C   0  0  0  0  0  0  0  0  0  0  0  0
   -6.8664    5.0006  -34.8987 C   0  0  0  0  0  0  0  0  0  0  0  0
   -6.4378    3.7870  -36.8018 C   0  0  0  0  0  0  0  0  0  0  0  0
   -5.4705    7.3580  -37.4707 C   0  0  0  0  0  0  0  0  0  0  0  0
   -6.4259    7.4615  -34.7260 C   0  0  0  0  0  0  0  0  0  0  0  0
   -7.3692    5.0003  -33.4920 C   0  0  0  0  0  0  0  0  0  0  0  0
   -6.4695    2.4543  -37.4772 C   0  0  0  0  0  0  0  0  0  0  0  0
   -6.8877    3.8038  -35.5271 N   0  0  0  0  0  0  0  0  0  0  0  0
   -5.5135    4.8154  -38.8037 N   0  0  0  0  0  0  0  0  0  0  0  0
   -4.3947    7.4764  -37.3028 H   0  0  0  0  0  0  0  0  0  0  0  0
   -5.6559    7.3182  -38.5501 H   0  0  0  0  0  0  0  0  0  0  0  0
   -5.9863    8.2463  -37.0883 H   0  0  0  0  0  0  0  0  0  0  0  0
   -7.3792    7.9837  -34.8711 H   0  0  0  0  0  0  0  0  0  0  0  0
   -6.2813    7.2921  -33.6514 H   0  0  0  0  0  0  0  0  0  0  0  0
   -5.6132    8.1212  -35.0562 H   0  0  0  0  0  0  0  0  0  0  0  0
   -8.4478    5.1939  -33.4745 H   0  0  0  0  0  0  0  0  0  0  0  0
   -7.1785    4.0370  -33.0035 H   0  0  0  0  0  0  0  0  0  0  0  0
   -6.8659    5.7682  -32.8916 H   0  0  0  0  0  0  0  0  0  0  0  0
   -5.5262    1.9222  -37.3099 H   0  0  0  0  0  0  0  0  0  0  0  0
   -7.2922    1.8374  -37.0962 H   0  0  0  0  0  0  0  0  0  0  0  0
   -6.6242    2.5622  -38.5576 H   0  0  0  0  0  0  0  0  0  0  0  0
   -5.4852    3.9215  -39.2529 H   0  0  0  0  0  0  0  0  0  0  0  0
   -5.1361    5.6295  -39.2473 H   0  0  0  0  0  0  0  0  0  0  0  0
  1  2  2  0  0  0  0
  1  3  1  0  0  0  0
  1  6  1  0  0  0  0
  2  4  1  0  0  0  0
  2  7  1  0  0  0  0
  3  5  2  0  0  0  0
  3 11  1  0  0  0  0
  4  8  1  0  0  0  0
  4 10  2  0  0  0  0
  5  9  1  0  0  0  0
  5 10  1  0  0  0  0
  6 12  1  0  0  0  0
  6 13  1  0  0  0  0
  6 14  1  0  0  0  0
  7 15  1  0  0  0  0
  7 16  1  0  0  0  0
  7 17  1  0  0  0  0
  8 18  1  0  0  0  0
  8 19  1  0  0  0  0
  8 20  1  0  0  0  0
  9 21  1  0  0  0  0
  9 22  1  0  0  0  0
  9 23  1  0  0  0  0
 11 24  1  0  0  0  0
 11 25  1  0  0  0  0
M  END
> <id>
EN300-6512875

> <smiles>
CC=1N=C(C)C(N)=C(C)C1C

> <MDLNUMBER>
MFCD34474833

> <IUPAC Name>
tetramethylpyridin-3-amine

> <CAS>
2385783-62-8

> <Purity>
95

> <URL>
https://www.enaminestore.com/catalog/EN300-6512875

> <ROCS_ShapeQuery>
_hit0

> <ROCS_TanimotoCombo>
1.015 

> <ROCS_ShapeTanimoto>
0.415 

> <ROCS_ColorTanimoto>
0.600 

> <ROCS_RefTversky>
1.350 

> <ROCS_RefColorTversky>
0.750 

> <ROCS_RefTverskyCombo>
2.100 

> <ROCS_FitTversky>
0.374 

> <ROCS_FitColorTversky>
0.750 

> <ROCS_FitTverskyCombo>
1.124 

> <ROCS_ColorScore>
-3.000

> <ROCS_Overlap>
171.244

> <ROCS_Rank>
312                 

$$$$
untitled-dbase-22199_0
  -OEChem-06232314393D

 11 11  0     0  0  0  0  0  0999 V2000
   -6.4224    3.7640  -36.8436 C   0  0  0  0  0  0  0  0  0  0  0  0
   -6.8334    5.0105  -34.9710 C   0  0  0  0  0  0  0  0  0  0  0  0
   -5.9642    4.8895  -37.4923 C   0  0  0  0  0  0  0  0  0  0  0  0
   -6.3745    6.1359  -35.6193 C   0  0  0  0  0  0  0  0  0  0  0  0
   -6.8653    3.8043  -35.5713 N   0  0  0  0  0  0  0  0  0  0  0  0
   -5.9320    6.0957  -36.8917 N   0  0  0  0  0  0  0  0  0  0  0  0
   -5.5195    4.8086  -38.7815 O   0  0  0  0  0  0  0  0  0  0  0  0
   -6.3660    7.3126  -34.9778 F   0  0  0  0  0  0  0  0  0  0  0  0
   -6.4495    2.7927  -37.3223 H   0  0  0  0  0  0  0  0  0  0  0  0
   -7.1897    5.0436  -33.9487 H   0  0  0  0  0  0  0  0  0  0  0  0
   -5.2341    5.6818  -39.0889 H   0  0  0  0  0  0  0  0  0  0  0  0
  1  3  2  0  0  0  0
  1  5  1  0  0  0  0
  2  4  1  0  0  0  0
  2  5  2  0  0  0  0
  3  6  1  0  0  0  0
  3  7  1  0  0  0  0
  4  6  2  0  0  0  0
  4  8  1  0  0  0  0
  1  9  1  0  0  0  0
  2 10  1  0  0  0  0
  7 11  1  0  0  0  0
M  END
> <id>
EN300-3193095

> <smiles>
OC=1C=NC=C(F)N1

> <MDLNUMBER>
MFCD18416799

> <IUPAC Name>
6-fluoropyrazin-2-ol

> <CAS>
1206523-78-5

> <Purity>
95

> <URL>
https://www.enaminestore.com/catalog/EN300-3193095

> <MP>
217-218

> <ROCS_ShapeQuery>
_hit0

> <ROCS_TanimotoCombo>
1.015 

> <ROCS_ShapeTanimoto>
0.515 

> <ROCS_ColorTanimoto>
0.500 

> <ROCS_RefTversky>
1.305 

> <ROCS_RefColorTversky>
0.741 

> <ROCS_RefTverskyCombo>
2.046 

> <ROCS_FitTversky>
0.460 

> <ROCS_FitColorTversky>
0.605 

> <ROCS_FitTverskyCombo>
1.065 

> <ROCS_ColorScore>
-3.002

> <ROCS_Overlap>
157.630

> <ROCS_Rank>
313                 

$$$$
untitled-dbase-7448_0
  -OEChem-06232314393D

 19 19  0     0  0  0  0  0  0999 V2000
   -5.8376    6.0991  -36.7832 C   0  0  0  0  0  0  0  0  0  0  0  0
   -6.2604    6.1702  -35.4605 C   0  0  0  0  0  0  0  0  0  0  0  0
   -5.9390    4.8979  -37.4761 C   0  0  0  0  0  0  0  0  0  0  0  0
   -6.7731    5.0208  -34.8809 C   0  0  0  0  0  0  0  0  0  0  0  0
   -6.4659    3.8055  -36.8062 C   0  0  0  0  0  0  0  0  0  0  0  0
   -7.2364    5.0608  -33.4630 C   0  0  0  0  0  0  0  0  0  0  0  0
   -6.6001    2.4874  -37.4974 C   0  0  0  0  0  0  0  0  0  0  0  0
   -6.8871    3.8361  -35.5220 N   0  0  0  0  0  0  0  0  0  0  0  0
   -5.5142    4.8157  -38.8142 N   0  0  0  0  0  0  0  0  0  0  0  0
   -5.4312    6.9853  -37.2636 H   0  0  0  0  0  0  0  0  0  0  0  0
   -6.1867    7.1013  -34.9089 H   0  0  0  0  0  0  0  0  0  0  0  0
   -8.2978    5.3325  -33.4164 H   0  0  0  0  0  0  0  0  0  0  0  0
   -7.1040    4.0874  -32.9738 H   0  0  0  0  0  0  0  0  0  0  0  0
   -6.6634    5.7915  -32.8779 H   0  0  0  0  0  0  0  0  0  0  0  0
   -5.6911    1.8917  -37.3572 H   0  0  0  0  0  0  0  0  0  0  0  0
   -7.4539    1.9209  -37.1065 H   0  0  0  0  0  0  0  0  0  0  0  0
   -6.7697    2.6203  -38.5728 H   0  0  0  0  0  0  0  0  0  0  0  0
   -5.5485    3.9335  -39.2879 H   0  0  0  0  0  0  0  0  0  0  0  0
   -5.0953    5.6164  -39.2472 H   0  0  0  0  0  0  0  0  0  0  0  0
  1  2  1  0  0  0  0
  1  3  2  0  0  0  0
  2  4  2  0  0  0  0
  3  5  1  0  0  0  0
  3  9  1  0  0  0  0
  4  6  1  0  0  0  0
  4  8  1  0  0  0  0
  5  7  1  0  0  0  0
  5  8  2  0  0  0  0
  1 10  1  0  0  0  0
  2 11  1  0  0  0  0
  6 12  1  0  0  0  0
  6 13  1  0  0  0  0
  6 14  1  0  0  0  0
  7 15  1  0  0  0  0
  7 16  1  0  0  0  0
  7 17  1  0  0  0  0
  9 18  1  0  0  0  0
  9 19  1  0  0  0  0
M  END
> <id>
EN300-95937

> <smiles>
CC=1C=CC(N)=C(C)N1

> <MDLNUMBER>
MFCD01646409

> <IUPAC Name>
2,6-dimethylpyridin-3-amine

> <CAS>
3430-33-9

> <Purity>
95

> <URL>
https://www.enaminestore.com/catalog/EN300-95937

> <MP>
121-123

> <ROCS_ShapeQuery>
_hit0

> <ROCS_TanimotoCombo>
1.014 

> <ROCS_ShapeTanimoto>
0.415 

> <ROCS_ColorTanimoto>
0.599 

> <ROCS_RefTversky>
1.189 

> <ROCS_RefColorTversky>
0.750 

> <ROCS_RefTverskyCombo>
1.938 

> <ROCS_FitTversky>
0.389 

> <ROCS_FitColorTversky>
0.750 

> <ROCS_FitTverskyCombo>
1.139 

> <ROCS_ColorScore>
-2.998

> <ROCS_Overlap>
145.524

> <ROCS_Rank>
314                 

$$$$
untitled-dbase-20538_0
  -OEChem-06232314393D

 13 13  0     0  0  0  0  0  0999 V2000
   -6.0126    5.6896  -36.5565 C   0  0  0  0  0  0  0  0  0  0  0  0
   -5.9755    4.7096  -37.5127 C   0  0  0  0  0  0  0  0  0  0  0  0
   -6.5107    3.5856  -36.8602 C   0  0  0  0  0  0  0  0  0  0  0  0
   -6.7174    2.2312  -37.4013 C   0  0  0  0  0  0  0  0  0  0  0  0
   -6.8536    3.8483  -35.5960 N   0  0  0  0  0  0  0  0  0  0  0  0
   -5.5271    4.8155  -38.7773 N   0  0  0  0  0  0  0  0  0  0  0  0
   -6.5347    5.1878  -35.4081 O   0  0  0  0  0  0  0  0  0  0  0  0
   -5.7255    6.7306  -36.5266 H   0  0  0  0  0  0  0  0  0  0  0  0
   -5.8309    1.5950  -37.2371 H   0  0  0  0  0  0  0  0  0  0  0  0
   -7.5815    1.7240  -36.9366 H   0  0  0  0  0  0  0  0  0  0  0  0
   -6.9220    2.2428  -38.4868 H   0  0  0  0  0  0  0  0  0  0  0  0
   -5.4924    4.0079  -39.4204 H   0  0  0  0  0  0  0  0  0  0  0  0
   -5.1064    5.6851  -39.1429 H   0  0  0  0  0  0  0  0  0  0  0  0
  1  2  2  0  0  0  0
  1  7  1  0  0  0  0
  2  3  1  0  0  0  0
  2  6  1  0  0  0  0
  3  4  1  0  0  0  0
  3  5  2  0  0  0  0
  5  7  1  0  0  0  0
  1  8  1  0  0  0  0
  4  9  1  0  0  0  0
  4 10  1  0  0  0  0
  4 11  1  0  0  0  0
  6 12  1  0  0  0  0
  6 13  1  0  0  0  0
M  END
> <id>
EN300-263119

> <smiles>
CC1=NOC=C1N

> <MDLNUMBER>
MFCD11878420

> <IUPAC Name>
3-methyl-1,2-oxazol-4-amine

> <CAS>
354795-62-3

> <URL>
https://www.enaminestore.com/catalog/EN300-263119

> <ROCS_ShapeQuery>
_hit0

> <ROCS_TanimotoCombo>
1.014 

> <ROCS_ShapeTanimoto>
0.416 

> <ROCS_ColorTanimoto>
0.598 

> <ROCS_RefTversky>
1.029 

> <ROCS_RefColorTversky>
0.748 

> <ROCS_RefTverskyCombo>
1.777 

> <ROCS_FitTversky>
0.412 

> <ROCS_FitColorTversky>
0.748 

> <ROCS_FitTverskyCombo>
1.160 

> <ROCS_ColorScore>
-2.993

> <ROCS_Overlap>
121.711

> <ROCS_Rank>
315                 

$$$$
untitled-dbase-28823_0
  -OEChem-06232314393D

 13 13  0     0  0  0  0  0  0999 V2000
   -6.0126    5.6896  -36.5565 C   0  0  0  0  0  0  0  0  0  0  0  0
   -5.9755    4.7096  -37.5127 C   0  0  0  0  0  0  0  0  0  0  0  0
   -6.5107    3.5856  -36.8602 C   0  0  0  0  0  0  0  0  0  0  0  0
   -6.7174    2.2312  -37.4013 C   0  0  0  0  0  0  0  0  0  0  0  0
   -6.8536    3.8483  -35.5960 N   0  0  0  0  0  0  0  0  0  0  0  0
   -5.5271    4.8155  -38.7773 N   0  0  0  0  0  0  0  0  0  0  0  0
   -6.5347    5.1878  -35.4081 O   0  0  0  0  0  0  0  0  0  0  0  0
   -5.7255    6.7306  -36.5266 H   0  0  0  0  0  0  0  0  0  0  0  0
   -5.8309    1.5950  -37.2371 H   0  0  0  0  0  0  0  0  0  0  0  0
   -7.5815    1.7240  -36.9366 H   0  0  0  0  0  0  0  0  0  0  0  0
   -6.9220    2.2428  -38.4868 H   0  0  0  0  0  0  0  0  0  0  0  0
   -5.4924    4.0079  -39.4204 H   0  0  0  0  0  0  0  0  0  0  0  0
   -5.1064    5.6851  -39.1429 H   0  0  0  0  0  0  0  0  0  0  0  0
  1  2  2  0  0  0  0
  1  7  1  0  0  0  0
  2  3  1  0  0  0  0
  2  6  1  0  0  0  0
  3  4  1  0  0  0  0
  3  5  2  0  0  0  0
  5  7  1  0  0  0  0
  1  8  1  0  0  0  0
  4  9  1  0  0  0  0
  4 10  1  0  0  0  0
  4 11  1  0  0  0  0
  6 12  1  0  0  0  0
  6 13  1  0  0  0  0
M  END
> <id>
EN300-263118

> <smiles>
Cl.CC1=NOC=C1N

> <MDLNUMBER>
MFCD27922647

> <IUPAC Name>
3-methyl-1,2-oxazol-4-amine hydrochloride

> <CAS>
108512-04-5

> <Purity>
91

> <URL>
https://www.enaminestore.com/catalog/EN300-263118

> <Saltdate>
Cl

> <MP>
183-185

> <ROCS_ShapeQuery>
_hit0

> <ROCS_TanimotoCombo>
1.014 

> <ROCS_ShapeTanimoto>
0.416 

> <ROCS_ColorTanimoto>
0.598 

> <ROCS_RefTversky>
1.029 

> <ROCS_RefColorTversky>
0.748 

> <ROCS_RefTverskyCombo>
1.777 

> <ROCS_FitTversky>
0.412 

> <ROCS_FitColorTversky>
0.748 

> <ROCS_FitTverskyCombo>
1.160 

> <ROCS_ColorScore>
-2.993

> <ROCS_Overlap>
121.711

> <ROCS_Rank>
316                 

$$$$
untitled-dbase-47970_0
  -OEChem-06232314393D

 11 11  0     0  0  0  0  0  0999 V2000
   -5.9100    5.8608  -36.7136 C   0  0  0  0  0  0  0  0  0  0  0  0
   -6.3795    5.7161  -35.4236 C   0  0  0  0  0  0  0  0  0  0  0  0
   -6.4575    3.5788  -37.0319 C   0  0  0  0  0  0  0  0  0  0  0  0
   -5.9505    4.7556  -37.5453 C   0  0  0  0  0  0  0  0  0  0  0  0
   -6.8704    4.5522  -34.9477 N   0  0  0  0  0  0  0  0  0  0  0  0
   -6.9098    3.4659  -35.7651 N   0  0  0  0  0  0  0  0  0  0  0  0
   -5.5068    4.8275  -38.8246 O   0  0  0  0  0  0  0  0  0  0  0  0
   -5.5236    6.8132  -37.0593 H   0  0  0  0  0  0  0  0  0  0  0  0
   -6.3755    6.5440  -34.7238 H   0  0  0  0  0  0  0  0  0  0  0  0
   -6.5169    2.6755  -37.6285 H   0  0  0  0  0  0  0  0  0  0  0  0
   -5.1850    5.7229  -39.0246 H   0  0  0  0  0  0  0  0  0  0  0  0
  1  2  1  0  0  0  0
  1  4  2  0  0  0  0
  2  5  2  0  0  0  0
  3  4  1  0  0  0  0
  3  6  2  0  0  0  0
  4  7  1  0  0  0  0
  5  6  1  0  0  0  0
  1  8  1  0  0  0  0
  2  9  1  0  0  0  0
  3 10  1  0  0  0  0
  7 11  1  0  0  0  0
M  END
> <id>
EN300-244673

> <smiles>
Cl.OC=1C=CN=NC1

> <MDLNUMBER>
MFCD29041158

> <IUPAC Name>
pyridazin-4-ol hydrochloride

> <CAS>
116008-72-1

> <Purity>
95

> <URL>
https://www.enaminestore.com/catalog/EN300-244673

> <Saltdate>
Cl

> <ROCS_ShapeQuery>
_hit0

> <ROCS_TanimotoCombo>
1.014 

> <ROCS_ShapeTanimoto>
0.478 

> <ROCS_ColorTanimoto>
0.535 

> <ROCS_RefTversky>
1.131 

> <ROCS_RefColorTversky>
0.799 

> <ROCS_RefTverskyCombo>
1.930 

> <ROCS_FitTversky>
0.453 

> <ROCS_FitColorTversky>
0.619 

> <ROCS_FitTverskyCombo>
1.072 

> <ROCS_ColorScore>
-3.248

> <ROCS_Overlap>
133.751

> <ROCS_Rank>
317                 

$$$$
untitled-dbase-50682_0
  -OEChem-06232314393D

 11 11  0     0  0  0  0  0  0999 V2000
   -5.9100    5.8608  -36.7136 C   0  0  0  0  0  0  0  0  0  0  0  0
   -6.3795    5.7161  -35.4236 C   0  0  0  0  0  0  0  0  0  0  0  0
   -6.4575    3.5788  -37.0319 C   0  0  0  0  0  0  0  0  0  0  0  0
   -5.9505    4.7556  -37.5453 C   0  0  0  0  0  0  0  0  0  0  0  0
   -6.8704    4.5522  -34.9477 N   0  0  0  0  0  0  0  0  0  0  0  0
   -6.9098    3.4659  -35.7651 N   0  0  0  0  0  0  0  0  0  0  0  0
   -5.5068    4.8275  -38.8246 O   0  0  0  0  0  0  0  0  0  0  0  0
   -5.5236    6.8132  -37.0593 H   0  0  0  0  0  0  0  0  0  0  0  0
   -6.3755    6.5440  -34.7238 H   0  0  0  0  0  0  0  0  0  0  0  0
   -6.5169    2.6755  -37.6285 H   0  0  0  0  0  0  0  0  0  0  0  0
   -5.1850    5.7229  -39.0246 H   0  0  0  0  0  0  0  0  0  0  0  0
  1  2  1  0  0  0  0
  1  4  2  0  0  0  0
  2  5  2  0  0  0  0
  3  4  1  0  0  0  0
  3  6  2  0  0  0  0
  4  7  1  0  0  0  0
  5  6  1  0  0  0  0
  1  8  1  0  0  0  0
  2  9  1  0  0  0  0
  3 10  1  0  0  0  0
  7 11  1  0  0  0  0
M  END
> <id>
EN300-234050

> <smiles>
OC=1C=CN=NC1

> <MDLNUMBER>
MFCD00233967

> <IUPAC Name>
pyridazin-4-ol

> <CAS>
20733-10-2

> <Purity>
95

> <URL>
https://www.enaminestore.com/catalog/EN300-234050

> <ROCS_ShapeQuery>
_hit0

> <ROCS_TanimotoCombo>
1.014 

> <ROCS_ShapeTanimoto>
0.478 

> <ROCS_ColorTanimoto>
0.535 

> <ROCS_RefTversky>
1.131 

> <ROCS_RefColorTversky>
0.799 

> <ROCS_RefTverskyCombo>
1.930 

> <ROCS_FitTversky>
0.453 

> <ROCS_FitColorTversky>
0.619 

> <ROCS_FitTverskyCombo>
1.072 

> <ROCS_ColorScore>
-3.248

> <ROCS_Overlap>
133.751

> <ROCS_Rank>
318                 

$$$$
untitled-dbase-6379_0
  -OEChem-06232314393D

 11 11  0     0  0  0  0  0  0999 V2000
   -5.9100    5.8608  -36.7136 C   0  0  0  0  0  0  0  0  0  0  0  0
   -6.3795    5.7161  -35.4236 C   0  0  0  0  0  0  0  0  0  0  0  0
   -6.4575    3.5788  -37.0319 C   0  0  0  0  0  0  0  0  0  0  0  0
   -5.9505    4.7556  -37.5453 C   0  0  0  0  0  0  0  0  0  0  0  0
   -6.8704    4.5522  -34.9477 N   0  0  0  0  0  0  0  0  0  0  0  0
   -6.9098    3.4659  -35.7651 N   0  0  0  0  0  0  0  0  0  0  0  0
   -5.5068    4.8275  -38.8246 O   0  0  0  0  0  0  0  0  0  0  0  0
   -5.5236    6.8132  -37.0593 H   0  0  0  0  0  0  0  0  0  0  0  0
   -6.3755    6.5440  -34.7238 H   0  0  0  0  0  0  0  0  0  0  0  0
   -6.5169    2.6755  -37.6285 H   0  0  0  0  0  0  0  0  0  0  0  0
   -5.1850    5.7229  -39.0246 H   0  0  0  0  0  0  0  0  0  0  0  0
  1  2  1  0  0  0  0
  1  4  2  0  0  0  0
  2  5  2  0  0  0  0
  3  4  1  0  0  0  0
  3  6  2  0  0  0  0
  4  7  1  0  0  0  0
  5  6  1  0  0  0  0
  1  8  1  0  0  0  0
  2  9  1  0  0  0  0
  3 10  1  0  0  0  0
  7 11  1  0  0  0  0
M  END
> <id>
EN300-245859

> <smiles>
Br.OC=1C=CN=NC1

> <MDLNUMBER>
MFCD28041269

> <IUPAC Name>
pyridazin-4-ol hydrobromide

> <CAS>
1923238-87-2

> <URL>
https://www.enaminestore.com/catalog/EN300-245859

> <Saltdate>
Br

> <ROCS_ShapeQuery>
_hit0

> <ROCS_TanimotoCombo>
1.014 

> <ROCS_ShapeTanimoto>
0.478 

> <ROCS_ColorTanimoto>
0.535 

> <ROCS_RefTversky>
1.131 

> <ROCS_RefColorTversky>
0.799 

> <ROCS_RefTverskyCombo>
1.930 

> <ROCS_FitTversky>
0.453 

> <ROCS_FitColorTversky>
0.619 

> <ROCS_FitTverskyCombo>
1.072 

> <ROCS_ColorScore>
-3.248

> <ROCS_Overlap>
133.751

> <ROCS_Rank>
319                 

$$$$
untitled-dbase-41731_0
  -OEChem-06232314393D

 18 18  0     0  0  0  0  0  0999 V2000
   -5.8253    6.0995  -36.8197 C   0  0  0  0  0  0  0  0  0  0  0  0
   -6.2503    6.1760  -35.4980 C   0  0  0  0  0  0  0  0  0  0  0  0
   -5.9248    4.8952  -37.5076 C   0  0  0  0  0  0  0  0  0  0  0  0
   -6.7632    5.0288  -34.9143 C   0  0  0  0  0  0  0  0  0  0  0  0
   -6.4522    3.8053  -36.8338 C   0  0  0  0  0  0  0  0  0  0  0  0
   -7.2292    5.0748  -33.4974 C   0  0  0  0  0  0  0  0  0  0  0  0
   -6.5799    2.4886  -37.5272 C   0  0  0  0  0  0  0  0  0  0  0  0
   -6.8755    3.8412  -35.5504 N   0  0  0  0  0  0  0  0  0  0  0  0
   -5.5130    4.8100  -38.7983 O   0  0  0  0  0  0  0  0  0  0  0  0
   -5.4179    6.9807  -37.3069 H   0  0  0  0  0  0  0  0  0  0  0  0
   -6.1782    7.1095  -34.9503 H   0  0  0  0  0  0  0  0  0  0  0  0
   -8.2908    5.3459  -33.4540 H   0  0  0  0  0  0  0  0  0  0  0  0
   -7.0969    4.1036  -33.0037 H   0  0  0  0  0  0  0  0  0  0  0  0
   -6.6577    5.8085  -32.9146 H   0  0  0  0  0  0  0  0  0  0  0  0
   -5.6697    1.8947  -37.3849 H   0  0  0  0  0  0  0  0  0  0  0  0
   -7.4335    1.9184  -37.1407 H   0  0  0  0  0  0  0  0  0  0  0  0
   -6.7459    2.6220  -38.6034 H   0  0  0  0  0  0  0  0  0  0  0  0
   -5.1737    5.6677  -39.1041 H   0  0  0  0  0  0  0  0  0  0  0  0
  1  2  1  0  0  0  0
  1  3  2  0  0  0  0
  2  4  2  0  0  0  0
  3  5  1  0  0  0  0
  3  9  1  0  0  0  0
  4  6  1  0  0  0  0
  4  8  1  0  0  0  0
  5  7  1  0  0  0  0
  5  8  2  0  0  0  0
  1 10  1  0  0  0  0
  2 11  1  0  0  0  0
  6 12  1  0  0  0  0
  6 13  1  0  0  0  0
  6 14  1  0  0  0  0
  7 15  1  0  0  0  0
  7 16  1  0  0  0  0
  7 17  1  0  0  0  0
  9 18  1  0  0  0  0
M  END
> <id>
EN300-117357

> <smiles>
CC=1C=CC(O)=C(C)N1

> <MDLNUMBER>
MFCD00228692

> <IUPAC Name>
2,6-dimethylpyridin-3-ol

> <CAS>
1122-43-6

> <Purity>
95

> <URL>
https://www.enaminestore.com/catalog/EN300-117357

> <MP>
210-212

> <ROCS_ShapeQuery>
_hit0

> <ROCS_TanimotoCombo>
1.014 

> <ROCS_ShapeTanimoto>
0.414 

> <ROCS_ColorTanimoto>
0.600 

> <ROCS_RefTversky>
1.191 

> <ROCS_RefColorTversky>
0.750 

> <ROCS_RefTverskyCombo>
1.941 

> <ROCS_FitTversky>
0.388 

> <ROCS_FitColorTversky>
0.750 

> <ROCS_FitTverskyCombo>
1.138 

> <ROCS_ColorScore>
-2.998

> <ROCS_Overlap>
145.930

> <ROCS_Rank>
320                 

$$$$
untitled-dbase-247_7
  -OEChem-06232314393D

 13 12  0     0  0  0  0  0  0999 V2000
   -6.3564    5.2736  -36.4115 C   0  0  0  0  0  0  0  0  0  0  0  0
   -6.6369    7.7769  -36.7105 C   0  0  0  0  0  0  0  0  0  0  0  0
   -5.8142    5.1529  -37.6722 N   0  0  0  0  0  0  0  0  0  0  0  0
   -6.4619    6.7831  -34.5259 N   0  0  0  0  0  0  0  0  0  0  0  0
   -6.4526    6.5718  -35.9088 N   0  0  0  0  0  0  0  0  0  0  0  0
   -6.8368    3.8749  -35.6102 S   0  0  0  0  0  0  0  0  0  0  0  0
   -7.7119    7.9741  -36.8352 H   0  0  0  0  0  0  0  0  0  0  0  0
   -6.1641    8.6306  -36.2030 H   0  0  0  0  0  0  0  0  0  0  0  0
   -6.1734    7.6347  -37.6979 H   0  0  0  0  0  0  0  0  0  0  0  0
   -5.7111    4.2433  -38.1101 H   0  0  0  0  0  0  0  0  0  0  0  0
   -5.5032    5.9538  -38.2099 H   0  0  0  0  0  0  0  0  0  0  0  0
   -5.8809    6.0620  -34.1014 H   0  0  0  0  0  0  0  0  0  0  0  0
   -6.0082    7.6783  -34.3510 H   0  0  0  0  0  0  0  0  0  0  0  0
  1  3  1  0  0  0  0
  1  5  1  0  0  0  0
  1  6  2  0  0  0  0
  2  5  1  0  0  0  0
  4  5  1  0  0  0  0
  2  7  1  0  0  0  0
  2  8  1  0  0  0  0
  2  9  1  0  0  0  0
  3 10  1  0  0  0  0
  3 11  1  0  0  0  0
  4 12  1  0  0  0  0
  4 13  1  0  0  0  0
M  END
> <id>
EN300-84363

> <smiles>
CN(N)C(=S)N

> <MDLNUMBER>
MFCD00010147

> <IUPAC Name>
1-amino-1-methylthiourea

> <CAS>
6938-68-7

> <Purity>
95

> <URL>
https://www.enaminestore.com/catalog/EN300-84363

> <MP>
173-175

> <ROCS_ShapeQuery>
_hit0

> <ROCS_TanimotoCombo>
1.014 

> <ROCS_ShapeTanimoto>
0.567 

> <ROCS_ColorTanimoto>
0.446 

> <ROCS_RefTversky>
1.048 

> <ROCS_RefColorTversky>
0.547 

> <ROCS_RefTverskyCombo>
1.596 

> <ROCS_FitTversky>
0.553 

> <ROCS_FitColorTversky>
0.708 

> <ROCS_FitTverskyCombo>
1.261 

> <ROCS_ColorScore>
-2.161

> <ROCS_Overlap>
119.677

> <ROCS_Rank>
321                 

$$$$
untitled-dbase-23534_0
  -OEChem-06232314393D

 14 14  0     0  0  0  0  0  0999 V2000
   -5.9726    5.7768  -36.5109 C   0  0  0  0  0  0  0  0  0  0  0  0
   -6.5318    5.1431  -35.3851 C   0  0  0  0  0  0  0  0  0  0  0  0
   -5.9533    4.8027  -37.4790 C   0  0  0  0  0  0  0  0  0  0  0  0
   -6.6751    2.3920  -37.5069 C   0  0  0  0  0  0  0  0  0  0  0  0
   -6.8453    3.8654  -35.6152 N   0  0  0  0  0  0  0  0  0  0  0  0
   -6.4820    3.6882  -36.8969 N   0  0  0  0  0  0  0  0  0  0  0  0
   -5.5327    4.8067  -38.7605 N   0  0  0  0  0  0  0  0  0  0  0  0
   -5.6317    6.7981  -36.6036 H   0  0  0  0  0  0  0  0  0  0  0  0
   -6.7237    5.5593  -34.4067 H   0  0  0  0  0  0  0  0  0  0  0  0
   -5.7706    1.8016  -37.3381 H   0  0  0  0  0  0  0  0  0  0  0  0
   -7.5415    1.9019  -37.0541 H   0  0  0  0  0  0  0  0  0  0  0  0
   -6.8551    2.5198  -38.5780 H   0  0  0  0  0  0  0  0  0  0  0  0
   -5.5479    3.9580  -39.3465 H   0  0  0  0  0  0  0  0  0  0  0  0
   -5.0877    5.6322  -39.1899 H   0  0  0  0  0  0  0  0  0  0  0  0
  1  2  1  0  0  0  0
  1  3  2  0  0  0  0
  2  5  2  0  0  0  0
  3  6  1  0  0  0  0
  3  7  1  0  0  0  0
  4  6  1  0  0  0  0
  5  6  1  0  0  0  0
  1  8  1  0  0  0  0
  2  9  1  0  0  0  0
  4 10  1  0  0  0  0
  4 11  1  0  0  0  0
  4 12  1  0  0  0  0
  7 13  1  0  0  0  0
  7 14  1  0  0  0  0
M  END
> <id>
EN300-7465542

> <smiles>
Cl.CN1N=CC=C1N

> <MDLNUMBER>
MFCD11983034

> <IUPAC Name>
1-methyl-1H-pyrazol-5-amine hydrochloride

> <CAS>
32016-34-5

> <URL>
https://www.enaminestore.com/catalog/EN300-7465542

> <Saltdate>
Cl

> <ROCS_ShapeQuery>
_hit0

> <ROCS_TanimotoCombo>
1.013 

> <ROCS_ShapeTanimoto>
0.418 

> <ROCS_ColorTanimoto>
0.595 

> <ROCS_RefTversky>
1.039 

> <ROCS_RefColorTversky>
0.746 

> <ROCS_RefTverskyCombo>
1.785 

> <ROCS_FitTversky>
0.412 

> <ROCS_FitColorTversky>
0.746 

> <ROCS_FitTverskyCombo>
1.158 

> <ROCS_ColorScore>
-2.985

> <ROCS_Overlap>
123.048

> <ROCS_Rank>
322                 

$$$$
untitled-dbase-231_0
  -OEChem-06232314393D

 14 14  0     0  0  0  0  0  0999 V2000
   -5.9726    5.7768  -36.5109 C   0  0  0  0  0  0  0  0  0  0  0  0
   -6.5318    5.1431  -35.3851 C   0  0  0  0  0  0  0  0  0  0  0  0
   -5.9533    4.8027  -37.4790 C   0  0  0  0  0  0  0  0  0  0  0  0
   -6.6751    2.3920  -37.5069 C   0  0  0  0  0  0  0  0  0  0  0  0
   -6.8453    3.8654  -35.6152 N   0  0  0  0  0  0  0  0  0  0  0  0
   -6.4820    3.6882  -36.8969 N   0  0  0  0  0  0  0  0  0  0  0  0
   -5.5327    4.8067  -38.7605 N   0  0  0  0  0  0  0  0  0  0  0  0
   -5.6317    6.7981  -36.6036 H   0  0  0  0  0  0  0  0  0  0  0  0
   -6.7237    5.5593  -34.4067 H   0  0  0  0  0  0  0  0  0  0  0  0
   -5.7706    1.8016  -37.3381 H   0  0  0  0  0  0  0  0  0  0  0  0
   -7.5415    1.9019  -37.0541 H   0  0  0  0  0  0  0  0  0  0  0  0
   -6.8551    2.5198  -38.5780 H   0  0  0  0  0  0  0  0  0  0  0  0
   -5.5479    3.9580  -39.3465 H   0  0  0  0  0  0  0  0  0  0  0  0
   -5.0877    5.6322  -39.1899 H   0  0  0  0  0  0  0  0  0  0  0  0
  1  2  1  0  0  0  0
  1  3  2  0  0  0  0
  2  5  2  0  0  0  0
  3  6  1  0  0  0  0
  3  7  1  0  0  0  0
  4  6  1  0  0  0  0
  5  6  1  0  0  0  0
  1  8  1  0  0  0  0
  2  9  1  0  0  0  0
  4 10  1  0  0  0  0
  4 11  1  0  0  0  0
  4 12  1  0  0  0  0
  7 13  1  0  0  0  0
  7 14  1  0  0  0  0
M  END
> <id>
EN300-55088

> <smiles>
CN1N=CC=C1N

> <MDLNUMBER>
MFCD00068156

> <IUPAC Name>
1-methyl-1H-pyrazol-5-amine

> <CAS>
1192-21-8

> <Purity>
95

> <URL>
https://www.enaminestore.com/catalog/EN300-55088

> <MP>
71-73

> <ROCS_ShapeQuery>
_hit0

> <ROCS_TanimotoCombo>
1.013 

> <ROCS_ShapeTanimoto>
0.418 

> <ROCS_ColorTanimoto>
0.595 

> <ROCS_RefTversky>
1.039 

> <ROCS_RefColorTversky>
0.746 

> <ROCS_RefTverskyCombo>
1.785 

> <ROCS_FitTversky>
0.412 

> <ROCS_FitColorTversky>
0.746 

> <ROCS_FitTverskyCombo>
1.158 

> <ROCS_ColorScore>
-2.985

> <ROCS_Overlap>
123.048

> <ROCS_Rank>
323                 

$$$$
untitled-dbase-25021_0
  -OEChem-06232314393D

 13 13  0     0  0  0  0  0  0999 V2000
   -5.8598    6.1075  -36.7774 C   0  0  0  0  0  0  0  0  0  0  0  0
   -6.2916    6.1713  -35.4572 C   0  0  0  0  0  0  0  0  0  0  0  0
   -5.9420    4.9062  -37.4727 C   0  0  0  0  0  0  0  0  0  0  0  0
   -6.4595    3.8062  -36.8078 C   0  0  0  0  0  0  0  0  0  0  0  0
   -6.7936    5.0147  -34.8827 C   0  0  0  0  0  0  0  0  0  0  0  0
   -6.8889    3.8296  -35.5262 N   0  0  0  0  0  0  0  0  0  0  0  0
   -5.5125    4.8161  -38.8070 N   0  0  0  0  0  0  0  0  0  0  0  0
   -6.5489    2.6346  -37.4585 F   0  0  0  0  0  0  0  0  0  0  0  0
   -7.3493    5.0000  -33.2594 Cl  0  0  0  0  0  0  0  0  0  0  0  0
   -5.4614    6.9989  -37.2546 H   0  0  0  0  0  0  0  0  0  0  0  0
   -6.2315    7.1039  -34.9064 H   0  0  0  0  0  0  0  0  0  0  0  0
   -5.1863    5.6395  -39.2772 H   0  0  0  0  0  0  0  0  0  0  0  0
   -5.6244    3.9524  -39.3040 H   0  0  0  0  0  0  0  0  0  0  0  0
  1  2  1  0  0  0  0
  1  3  2  0  0  0  0
  2  5  2  0  0  0  0
  3  4  1  0  0  0  0
  3  7  1  0  0  0  0
  4  6  2  0  0  0  0
  4  8  1  0  0  0  0
  5  6  1  0  0  0  0
  5  9  1  0  0  0  0
  1 10  1  0  0  0  0
  2 11  1  0  0  0  0
  7 12  1  0  0  0  0
  7 13  1  0  0  0  0
M  END
> <id>
EN300-1295453

> <smiles>
NC=1C=CC(Cl)=NC1F

> <MDLNUMBER>
MFCD16606116

> <IUPAC Name>
6-chloro-2-fluoropyridin-3-amine

> <CAS>
1227600-05-6

> <URL>
https://www.enaminestore.com/catalog/EN300-1295453

> <ROCS_ShapeQuery>
_hit0

> <ROCS_TanimotoCombo>
1.013 

> <ROCS_ShapeTanimoto>
0.413 

> <ROCS_ColorTanimoto>
0.600 

> <ROCS_RefTversky>
1.183 

> <ROCS_RefColorTversky>
0.750 

> <ROCS_RefTverskyCombo>
1.933 

> <ROCS_FitTversky>
0.388 

> <ROCS_FitColorTversky>
0.750 

> <ROCS_FitTverskyCombo>
1.138 

> <ROCS_ColorScore>
-2.999

> <ROCS_Overlap>
144.826

> <ROCS_Rank>
324                 

$$$$
untitled-dbase-10426_0
  -OEChem-06232314393D

 12 12  0     0  0  0  0  0  0999 V2000
   -5.8352    6.1083  -36.8125 C   0  0  0  0  0  0  0  0  0  0  0  0
   -6.2623    6.1779  -35.4911 C   0  0  0  0  0  0  0  0  0  0  0  0
   -5.9258    4.9055  -37.5041 C   0  0  0  0  0  0  0  0  0  0  0  0
   -6.4468    3.8100  -36.8346 C   0  0  0  0  0  0  0  0  0  0  0  0
   -6.7684    5.0255  -34.9117 C   0  0  0  0  0  0  0  0  0  0  0  0
   -6.8720    3.8391  -35.5516 N   0  0  0  0  0  0  0  0  0  0  0  0
   -5.5168    4.8113  -38.7935 O   0  0  0  0  0  0  0  0  0  0  0  0
   -6.5438    2.6396  -37.4854 F   0  0  0  0  0  0  0  0  0  0  0  0
   -7.3217    5.0182  -33.2874 Cl  0  0  0  0  0  0  0  0  0  0  0  0
   -5.4334    6.9932  -37.2974 H   0  0  0  0  0  0  0  0  0  0  0  0
   -6.1965    7.1117  -34.9427 H   0  0  0  0  0  0  0  0  0  0  0  0
   -5.6472    3.9077  -39.1280 H   0  0  0  0  0  0  0  0  0  0  0  0
  1  2  1  0  0  0  0
  1  3  2  0  0  0  0
  2  5  2  0  0  0  0
  3  4  1  0  0  0  0
  3  7  1  0  0  0  0
  4  6  2  0  0  0  0
  4  8  1  0  0  0  0
  5  6  1  0  0  0  0
  5  9  1  0  0  0  0
  1 10  1  0  0  0  0
  2 11  1  0  0  0  0
  7 12  1  0  0  0  0
M  END
> <id>
EN300-364436

> <smiles>
OC=1C=CC(Cl)=NC1F

> <MDLNUMBER>
MFCD07437887

> <IUPAC Name>
6-chloro-2-fluoropyridin-3-ol

> <CAS>
883107-68-4

> <Purity>
95

> <URL>
https://www.enaminestore.com/catalog/EN300-364436

> <MP>
124-125

> <ROCS_ShapeQuery>
_hit0

> <ROCS_TanimotoCombo>
1.012 

> <ROCS_ShapeTanimoto>
0.413 

> <ROCS_ColorTanimoto>
0.599 

> <ROCS_RefTversky>
1.187 

> <ROCS_RefColorTversky>
0.750 

> <ROCS_RefTverskyCombo>
1.936 

> <ROCS_FitTversky>
0.388 

> <ROCS_FitColorTversky>
0.750 

> <ROCS_FitTverskyCombo>
1.137 

> <ROCS_ColorScore>
-2.998

> <ROCS_Overlap>
145.346

> <ROCS_Rank>
325                 

$$$$
untitled-dbase-27298_0
  -OEChem-06232314393D

 12 12  0     0  0  0  0  0  0999 V2000
   -6.1319    5.2217  -36.4398 C   0  0  0  0  0  0  0  0  0  0  0  0
   -6.0151    4.4713  -37.5927 C   0  0  0  0  0  0  0  0  0  0  0  0
   -5.7179    6.6286  -36.2631 C   0  0  0  0  0  0  0  0  0  0  0  0
   -6.6941    4.5666  -35.3555 N   0  0  0  0  0  0  0  0  0  0  0  0
   -7.0140    3.3178  -35.6553 N   0  0  0  0  0  0  0  0  0  0  0  0
   -5.5140    4.8213  -38.7989 N   0  0  0  0  0  0  0  0  0  0  0  0
   -6.6449    2.9148  -37.2388 S   0  0  0  0  0  0  0  0  0  0  0  0
   -6.5403    7.3180  -36.5133 H   0  0  0  0  0  0  0  0  0  0  0  0
   -5.4060    6.8399  -35.2264 H   0  0  0  0  0  0  0  0  0  0  0  0
   -4.8559    6.8882  -36.9005 H   0  0  0  0  0  0  0  0  0  0  0  0
   -5.1845    5.7764  -38.9969 H   0  0  0  0  0  0  0  0  0  0  0  0
   -5.5254    4.1775  -39.6023 H   0  0  0  0  0  0  0  0  0  0  0  0
  1  2  2  0  0  0  0
  1  3  1  0  0  0  0
  1  4  1  0  0  0  0
  2  6  1  0  0  0  0
  2  7  1  0  0  0  0
  4  5  2  0  0  0  0
  5  7  1  0  0  0  0
  3  8  1  0  0  0  0
  3  9  1  0  0  0  0
  3 10  1  0  0  0  0
  6 11  1  0  0  0  0
  6 12  1  0  0  0  0
M  END
> <id>
EN300-1249190

> <smiles>
CC=1N=NSC1N

> <MDLNUMBER>
MFCD19204975

> <IUPAC Name>
4-methyl-1,2,3-thiadiazol-5-amine

> <CAS>
6440-01-3

> <Purity>
95

> <URL>
https://www.enaminestore.com/catalog/EN300-1249190

> <MP>
102-103

> <ROCS_ShapeQuery>
_hit0

> <ROCS_TanimotoCombo>
1.012 

> <ROCS_ShapeTanimoto>
0.470 

> <ROCS_ColorTanimoto>
0.542 

> <ROCS_RefTversky>
1.070 

> <ROCS_RefColorTversky>
0.808 

> <ROCS_RefTverskyCombo>
1.878 

> <ROCS_FitTversky>
0.456 

> <ROCS_FitColorTversky>
0.623 

> <ROCS_FitTverskyCombo>
1.078 

> <ROCS_ColorScore>
-3.287

> <ROCS_Overlap>
125.476

> <ROCS_Rank>
326                 

$$$$
untitled-dbase-409_0
  -OEChem-06232314393D

  8  8  0     0  0  0  0  0  0999 V2000
   -6.4906    3.6317  -36.8357 C   0  0  0  0  0  0  0  0  0  0  0  0
   -5.9615    4.7672  -37.5177 C   0  0  0  0  0  0  0  0  0  0  0  0
   -6.8640    3.8421  -35.5714 N   0  0  0  0  0  0  0  0  0  0  0  0
   -5.9079    5.8939  -36.8037 N   0  0  0  0  0  0  0  0  0  0  0  0
   -5.5208    4.8098  -38.7846 O   0  0  0  0  0  0  0  0  0  0  0  0
   -6.5285    5.4643  -35.3049 S   0  0  0  0  0  0  0  0  0  0  0  0
   -6.6147    2.6367  -37.2401 H   0  0  0  0  0  0  0  0  0  0  0  0
   -5.2059    5.7042  -39.0214 H   0  0  0  0  0  0  0  0  0  0  0  0
  1  2  1  0  0  0  0
  1  3  2  0  0  0  0
  2  4  2  0  0  0  0
  2  5  1  0  0  0  0
  3  6  1  0  0  0  0
  4  6  1  0  0  0  0
  1  7  1  0  0  0  0
  5  8  1  0  0  0  0
M  END
> <id>
EN300-07201

> <smiles>
OC=1C=NSN1

> <MDLNUMBER>
MFCD00499502

> <IUPAC Name>
1,2,5-thiadiazol-3-ol

> <CAS>
5728-07-4

> <Purity>
95

> <URL>
https://www.enaminestore.com/catalog/EN300-07201

> <MP>
128-130

> <ROCS_ShapeQuery>
_hit0

> <ROCS_TanimotoCombo>
1.012 

> <ROCS_ShapeTanimoto>
0.512 

> <ROCS_ColorTanimoto>
0.500 

> <ROCS_RefTversky>
1.038 

> <ROCS_RefColorTversky>
0.741 

> <ROCS_RefTverskyCombo>
1.779 

> <ROCS_FitTversky>
0.503 

> <ROCS_FitColorTversky>
0.605 

> <ROCS_FitTverskyCombo>
1.108 

> <ROCS_ColorScore>
-3.002

> <ROCS_Overlap>
119.591

> <ROCS_Rank>
327                 

$$$$
untitled-dbase-48227_0
  -OEChem-06232314393D

 14 14  0     1  0  0  0  0  0999 V2000
   -5.4444    6.0582  -36.9434 C   0  0  0  0  0  0  0  0  0  0  0  0
   -6.2440    5.7856  -35.9155 C   0  0  0  0  0  0  0  0  0  0  0  0
   -6.4048    4.3265  -35.8907 C   0  0  0  0  0  0  0  0  0  0  0  0
   -5.0276    4.8275  -37.6432 C   0  0  1  0  0  0  0  0  0  0  0  0
   -6.8876    6.6993  -34.9475 C   0  0  0  0  0  0  0  0  0  0  0  0
   -7.0749    3.7006  -35.0874 O   0  0  0  0  0  0  0  0  0  0  0  0
   -5.6811    3.7843  -36.9141 O   0  0  0  0  0  0  0  0  0  0  0  0
   -5.4532    4.8797  -38.9943 O   0  0  0  0  0  0  0  0  0  0  0  0
   -5.1314    7.0524  -37.2296 H   0  0  0  0  0  0  0  0  0  0  0  0
   -3.9426    4.6871  -37.5969 H   0  0  0  0  0  0  0  0  0  0  0  0
   -7.8716    7.0132  -35.3110 H   0  0  0  0  0  0  0  0  0  0  0  0
   -6.2725    7.5925  -34.7938 H   0  0  0  0  0  0  0  0  0  0  0  0
   -7.0162    6.2045  -33.9789 H   0  0  0  0  0  0  0  0  0  0  0  0
   -5.1600    4.0548  -39.4164 H   0  0  0  0  0  0  0  0  0  0  0  0
  1  2  2  0  0  0  0
  1  4  1  0  0  0  0
  2  3  1  0  0  0  0
  2  5  1  0  0  0  0
  3  6  2  0  0  0  0
  3  7  1  0  0  0  0
  4  7  1  0  0  0  0
  4  8  1  0  0  0  0
  1  9  1  0  0  0  0
  4 10  1  0  0  0  0
  5 11  1  0  0  0  0
  5 12  1  0  0  0  0
  5 13  1  0  0  0  0
  8 14  1  0  0  0  0
M  END
> <id>
EN300-320927

> <smiles>
CC1=CC(O)OC1=O

> <MDLNUMBER>
MFCD15145822

> <IUPAC Name>
5-hydroxy-3-methyl-2,5-dihydrofuran-2-one

> <CAS>
931-23-7

> <Purity>
95

> <URL>
https://www.enaminestore.com/catalog/EN300-320927

> <MP>
68-71

> <ROCS_ShapeQuery>
_hit0

> <ROCS_TanimotoCombo>
1.012 

> <ROCS_ShapeTanimoto>
0.506 

> <ROCS_ColorTanimoto>
0.506 

> <ROCS_RefTversky>
1.273 

> <ROCS_RefColorTversky>
0.672 

> <ROCS_RefTverskyCombo>
1.945 

> <ROCS_FitTversky>
0.456 

> <ROCS_FitColorTversky>
0.672 

> <ROCS_FitTverskyCombo>
1.128 

> <ROCS_ColorScore>
-2.689

> <ROCS_Overlap>
153.296

> <ROCS_Rank>
328                 

$$$$
untitled-dbase-23806_0
  -OEChem-06232314393D

 16 16  0     0  0  0  0  0  0999 V2000
   -5.8490    6.1032  -36.7874 C   0  0  0  0  0  0  0  0  0  0  0  0
   -6.2764    6.1748  -35.4663 C   0  0  0  0  0  0  0  0  0  0  0  0
   -5.9384    4.8991  -37.4769 C   0  0  0  0  0  0  0  0  0  0  0  0
   -6.4587    3.8044  -36.8055 C   0  0  0  0  0  0  0  0  0  0  0  0
   -6.7818    5.0231  -34.8849 C   0  0  0  0  0  0  0  0  0  0  0  0
   -6.5825    2.4839  -37.4935 C   0  0  0  0  0  0  0  0  0  0  0  0
   -6.8842    3.8355  -35.5227 N   0  0  0  0  0  0  0  0  0  0  0  0
   -5.5109    4.8168  -38.8139 N   0  0  0  0  0  0  0  0  0  0  0  0
   -7.1976    5.0781  -33.6103 F   0  0  0  0  0  0  0  0  0  0  0  0
   -5.4489    6.9916  -37.2686 H   0  0  0  0  0  0  0  0  0  0  0  0
   -6.2163    7.1030  -34.9097 H   0  0  0  0  0  0  0  0  0  0  0  0
   -5.6695    1.8947  -37.3505 H   0  0  0  0  0  0  0  0  0  0  0  0
   -7.4330    1.9122  -37.1027 H   0  0  0  0  0  0  0  0  0  0  0  0
   -6.7512    2.6127  -38.5697 H   0  0  0  0  0  0  0  0  0  0  0  0
   -5.5365    3.9329  -39.2853 H   0  0  0  0  0  0  0  0  0  0  0  0
   -5.0986    5.6200  -39.2488 H   0  0  0  0  0  0  0  0  0  0  0  0
  1  2  1  0  0  0  0
  1  3  2  0  0  0  0
  2  5  2  0  0  0  0
  3  4  1  0  0  0  0
  3  8  1  0  0  0  0
  4  6  1  0  0  0  0
  4  7  2  0  0  0  0
  5  7  1  0  0  0  0
  5  9  1  0  0  0  0
  1 10  1  0  0  0  0
  2 11  1  0  0  0  0
  6 12  1  0  0  0  0
  6 13  1  0  0  0  0
  6 14  1  0  0  0  0
  8 15  1  0  0  0  0
  8 16  1  0  0  0  0
M  END
> <id>
EN300-108191

> <smiles>
CC=1N=C(F)C=CC1N

> <MDLNUMBER>
MFCD03094949

> <IUPAC Name>
6-fluoro-2-methylpyridin-3-amine

> <CAS>
28489-47-6

> <Purity>
95

> <URL>
https://www.enaminestore.com/catalog/EN300-108191

> <MP>
73-75

> <ROCS_ShapeQuery>
_hit0

> <ROCS_TanimotoCombo>
1.012 

> <ROCS_ShapeTanimoto>
0.412 

> <ROCS_ColorTanimoto>
0.599 

> <ROCS_RefTversky>
1.193 

> <ROCS_RefColorTversky>
0.750 

> <ROCS_RefTverskyCombo>
1.943 

> <ROCS_FitTversky>
0.386 

> <ROCS_FitColorTversky>
0.750 

> <ROCS_FitTverskyCombo>
1.136 

> <ROCS_ColorScore>
-2.998

> <ROCS_Overlap>
146.417

> <ROCS_Rank>
329                 

$$$$
untitled-dbase-41850_0
  -OEChem-06232314393D

 13 13  0     0  0  0  0  0  0999 V2000
   -6.0884    5.7652  -36.5421 C   0  0  0  0  0  0  0  0  0  0  0  0
   -6.6191    5.1864  -35.4129 C   0  0  0  0  0  0  0  0  0  0  0  0
   -5.9847    4.7306  -37.5024 C   0  0  0  0  0  0  0  0  0  0  0  0
   -6.4593    3.5933  -36.8914 C   0  0  0  0  0  0  0  0  0  0  0  0
   -6.6203    2.2009  -37.3356 C   0  0  0  0  0  0  0  0  0  0  0  0
   -6.8480    3.8626  -35.6174 O   0  0  0  0  0  0  0  0  0  0  0  0
   -5.5257    4.8049  -38.7586 O   0  0  0  0  0  0  0  0  0  0  0  0
   -5.8112    6.8033  -36.6570 H   0  0  0  0  0  0  0  0  0  0  0  0
   -6.8809    5.5601  -34.4335 H   0  0  0  0  0  0  0  0  0  0  0  0
   -5.7163    1.6031  -37.1234 H   0  0  0  0  0  0  0  0  0  0  0  0
   -7.4720    1.6986  -36.8412 H   0  0  0  0  0  0  0  0  0  0  0  0
   -6.8178    2.1271  -38.4210 H   0  0  0  0  0  0  0  0  0  0  0  0
   -5.2411    5.7135  -38.9825 H   0  0  0  0  0  0  0  0  0  0  0  0
  1  2  2  0  0  0  0
  1  3  1  0  0  0  0
  2  6  1  0  0  0  0
  3  4  2  0  0  0  0
  3  7  1  0  0  0  0
  4  5  1  0  0  0  0
  4  6  1  0  0  0  0
  1  8  1  0  0  0  0
  2  9  1  0  0  0  0
  5 10  1  0  0  0  0
  5 11  1  0  0  0  0
  5 12  1  0  0  0  0
  7 13  1  0  0  0  0
M  END
> <id>
EN300-1771022

> <smiles>
CC=1OC=CC1O

> <MDLNUMBER>
MFCD28659609

> <IUPAC Name>
2-methylfuran-3-ol

> <CAS>
528825-07-2

> <URL>
https://www.enaminestore.com/catalog/EN300-1771022

> <ROCS_ShapeQuery>
_hit0

> <ROCS_TanimotoCombo>
1.011 

> <ROCS_ShapeTanimoto>
0.416 

> <ROCS_ColorTanimoto>
0.595 

> <ROCS_RefTversky>
1.027 

> <ROCS_RefColorTversky>
0.746 

> <ROCS_RefTverskyCombo>
1.773 

> <ROCS_FitTversky>
0.412 

> <ROCS_FitColorTversky>
0.746 

> <ROCS_FitTverskyCombo>
1.158 

> <ROCS_ColorScore>
-2.985

> <ROCS_Overlap>
121.463

> <ROCS_Rank>
330                 

$$$$
untitled-dbase-15678_0
  -OEChem-06232314393D

 17 17  0     0  0  0  0  0  0999 V2000
   -6.0867    5.8029  -36.5525 C   0  0  0  0  0  0  0  0  0  0  0  0
   -6.6258    5.1669  -35.4182 C   0  0  0  0  0  0  0  0  0  0  0  0
   -5.9794    4.8032  -37.4882 C   0  0  0  0  0  0  0  0  0  0  0  0
   -6.9482    5.7758  -34.1168 C   0  0  0  0  0  0  0  0  0  0  0  0
   -6.5364    2.3492  -37.4537 C   0  0  0  0  0  0  0  0  0  0  0  0
   -6.8459    3.8640  -35.6135 N   0  0  0  0  0  0  0  0  0  0  0  0
   -6.4431    3.6733  -36.8813 N   0  0  0  0  0  0  0  0  0  0  0  0
   -5.5345    4.7980  -38.7615 N   0  0  0  0  0  0  0  0  0  0  0  0
   -5.7546    7.0824  -36.6894 F   0  0  0  0  0  0  0  0  0  0  0  0
   -7.9856    6.1517  -34.0962 H   0  0  0  0  0  0  0  0  0  0  0  0
   -6.8375    5.0604  -33.2824 H   0  0  0  0  0  0  0  0  0  0  0  0
   -6.2826    6.6244  -33.8769 H   0  0  0  0  0  0  0  0  0  0  0  0
   -5.5978    1.8270  -37.2505 H   0  0  0  0  0  0  0  0  0  0  0  0
   -7.3767    1.8153  -37.0011 H   0  0  0  0  0  0  0  0  0  0  0  0
   -6.7035    2.4323  -38.5312 H   0  0  0  0  0  0  0  0  0  0  0  0
   -5.4781    3.9329  -39.3203 H   0  0  0  0  0  0  0  0  0  0  0  0
   -5.1406    5.6396  -39.2091 H   0  0  0  0  0  0  0  0  0  0  0  0
  1  2  1  0  0  0  0
  1  3  2  0  0  0  0
  1  9  1  0  0  0  0
  2  4  1  0  0  0  0
  2  6  2  0  0  0  0
  3  7  1  0  0  0  0
  3  8  1  0  0  0  0
  5  7  1  0  0  0  0
  6  7  1  0  0  0  0
  4 10  1  0  0  0  0
  4 11  1  0  0  0  0
  4 12  1  0  0  0  0
  5 13  1  0  0  0  0
  5 14  1  0  0  0  0
  5 15  1  0  0  0  0
  8 16  1  0  0  0  0
  8 17  1  0  0  0  0
M  END
> <id>
EN300-1149785

> <smiles>
CC1=NN(C)C(N)=C1F

> <MDLNUMBER>
MFCD28361185

> <IUPAC Name>
4-fluoro-1,3-dimethyl-1H-pyrazol-5-amine

> <CAS>
96886-29-2

> <URL>
https://www.enaminestore.com/catalog/EN300-1149785

> <ROCS_ShapeQuery>
_hit0

> <ROCS_TanimotoCombo>
1.011 

> <ROCS_ShapeTanimoto>
0.416 

> <ROCS_ColorTanimoto>
0.595 

> <ROCS_RefTversky>
1.213 

> <ROCS_RefColorTversky>
0.746 

> <ROCS_RefTverskyCombo>
1.959 

> <ROCS_FitTversky>
0.388 

> <ROCS_FitColorTversky>
0.746 

> <ROCS_FitTverskyCombo>
1.134 

> <ROCS_ColorScore>
-2.985

> <ROCS_Overlap>
149.219

> <ROCS_Rank>
331                 

$$$$
untitled-dbase-3792_0
  -OEChem-06232314393D

 16 16  0     0  0  0  0  0  0999 V2000
   -6.8707    3.3977  -35.6272 C   0  0  0  0  0  0  0  0  0  0  0  0
   -6.8938    4.5206  -34.8000 C   0  0  0  0  0  0  0  0  0  0  0  0
   -6.4166    3.5087  -36.9414 C   0  0  0  0  0  0  0  0  0  0  0  0
   -6.0086    5.8656  -36.6013 C   0  0  0  0  0  0  0  0  0  0  0  0
   -6.4627    5.7545  -35.2871 C   0  0  0  0  0  0  0  0  0  0  0  0
   -5.9855    4.7427  -37.4285 C   0  0  0  0  0  0  0  0  0  0  0  0
   -6.4866    6.8898  -34.4507 N   0  0  0  0  0  0  0  0  0  0  0  0
   -5.5248    4.8544  -38.7568 N   0  0  0  0  0  0  0  0  0  0  0  0
   -7.2063    2.4367  -35.2482 H   0  0  0  0  0  0  0  0  0  0  0  0
   -7.2499    4.4222  -33.7776 H   0  0  0  0  0  0  0  0  0  0  0  0
   -6.4019    2.6271  -37.5773 H   0  0  0  0  0  0  0  0  0  0  0  0
   -5.6728    6.8278  -36.9817 H   0  0  0  0  0  0  0  0  0  0  0  0
   -6.1310    7.7582  -34.7965 H   0  0  0  0  0  0  0  0  0  0  0  0
   -6.7700    6.7873  -33.4972 H   0  0  0  0  0  0  0  0  0  0  0  0
   -5.2631    5.7532  -39.1084 H   0  0  0  0  0  0  0  0  0  0  0  0
   -5.5564    4.0522  -39.3530 H   0  0  0  0  0  0  0  0  0  0  0  0
  1  2  1  0  0  0  0
  1  3  2  0  0  0  0
  2  5  2  0  0  0  0
  3  6  1  0  0  0  0
  4  5  1  0  0  0  0
  4  6  2  0  0  0  0
  5  7  1  0  0  0  0
  6  8  1  0  0  0  0
  1  9  1  0  0  0  0
  2 10  1  0  0  0  0
  3 11  1  0  0  0  0
  4 12  1  0  0  0  0
  7 13  1  0  0  0  0
  7 14  1  0  0  0  0
  8 15  1  0  0  0  0
  8 16  1  0  0  0  0
M  END
> <id>
EN300-33904

> <smiles>
NC=1C=CC=C(N)C1

> <MDLNUMBER>
MFCD00007799

> <IUPAC Name>
benzene-1,3-diamine

> <CAS>
108-45-2

> <Purity>
95

> <URL>
https://www.enaminestore.com/catalog/EN300-33904

> <MP>
61-66

> <ROCS_ShapeQuery>
_hit0

> <ROCS_TanimotoCombo>
1.011 

> <ROCS_ShapeTanimoto>
0.517 

> <ROCS_ColorTanimoto>
0.495 

> <ROCS_RefTversky>
1.276 

> <ROCS_RefColorTversky>
0.735 

> <ROCS_RefTverskyCombo>
2.011 

> <ROCS_FitTversky>
0.465 

> <ROCS_FitColorTversky>
0.602 

> <ROCS_FitTverskyCombo>
1.066 

> <ROCS_ColorScore>
-2.978

> <ROCS_Overlap>
153.268

> <ROCS_Rank>
332                 

$$$$
untitled-dbase-3212_0
  -OEChem-06232314393D

 16 16  0     0  0  0  0  0  0999 V2000
   -6.8707    3.3977  -35.6272 C   0  0  0  0  0  0  0  0  0  0  0  0
   -6.8938    4.5206  -34.8000 C   0  0  0  0  0  0  0  0  0  0  0  0
   -6.4166    3.5087  -36.9414 C   0  0  0  0  0  0  0  0  0  0  0  0
   -6.0086    5.8656  -36.6013 C   0  0  0  0  0  0  0  0  0  0  0  0
   -6.4627    5.7545  -35.2871 C   0  0  0  0  0  0  0  0  0  0  0  0
   -5.9855    4.7427  -37.4285 C   0  0  0  0  0  0  0  0  0  0  0  0
   -6.4866    6.8898  -34.4507 N   0  0  0  0  0  0  0  0  0  0  0  0
   -5.5248    4.8544  -38.7568 N   0  0  0  0  0  0  0  0  0  0  0  0
   -7.2063    2.4367  -35.2482 H   0  0  0  0  0  0  0  0  0  0  0  0
   -7.2499    4.4222  -33.7776 H   0  0  0  0  0  0  0  0  0  0  0  0
   -6.4019    2.6271  -37.5773 H   0  0  0  0  0  0  0  0  0  0  0  0
   -5.6728    6.8278  -36.9817 H   0  0  0  0  0  0  0  0  0  0  0  0
   -6.1310    7.7582  -34.7965 H   0  0  0  0  0  0  0  0  0  0  0  0
   -6.7700    6.7873  -33.4972 H   0  0  0  0  0  0  0  0  0  0  0  0
   -5.2631    5.7532  -39.1084 H   0  0  0  0  0  0  0  0  0  0  0  0
   -5.5564    4.0522  -39.3530 H   0  0  0  0  0  0  0  0  0  0  0  0
  1  2  1  0  0  0  0
  1  3  2  0  0  0  0
  2  5  2  0  0  0  0
  3  6  1  0  0  0  0
  4  5  1  0  0  0  0
  4  6  2  0  0  0  0
  5  7  1  0  0  0  0
  6  8  1  0  0  0  0
  1  9  1  0  0  0  0
  2 10  1  0  0  0  0
  3 11  1  0  0  0  0
  4 12  1  0  0  0  0
  7 13  1  0  0  0  0
  7 14  1  0  0  0  0
  8 15  1  0  0  0  0
  8 16  1  0  0  0  0
M  END
> <id>
EN300-115806

> <smiles>
Cl.Cl.NC=1C=CC=C(N)C1

> <MDLNUMBER>
MFCD00012975

> <IUPAC Name>
benzene-1,3-diamine dihydrochloride

> <CAS>
541-69-5

> <Purity>
95

> <URL>
https://www.enaminestore.com/catalog/EN300-115806

> <Saltdate>
Cl

> <ROCS_ShapeQuery>
_hit0

> <ROCS_TanimotoCombo>
1.011 

> <ROCS_ShapeTanimoto>
0.517 

> <ROCS_ColorTanimoto>
0.495 

> <ROCS_RefTversky>
1.276 

> <ROCS_RefColorTversky>
0.735 

> <ROCS_RefTverskyCombo>
2.011 

> <ROCS_FitTversky>
0.465 

> <ROCS_FitColorTversky>
0.602 

> <ROCS_FitTverskyCombo>
1.066 

> <ROCS_ColorScore>
-2.978

> <ROCS_Overlap>
153.268

> <ROCS_Rank>
333                 

$$$$
untitled-dbase-16269_0
  -OEChem-06232314393D

 16 16  0     0  0  0  0  0  0999 V2000
   -5.8394    6.1069  -36.7768 C   0  0  0  0  0  0  0  0  0  0  0  0
   -6.2646    6.1710  -35.4545 C   0  0  0  0  0  0  0  0  0  0  0  0
   -5.9322    4.9073  -37.4737 C   0  0  0  0  0  0  0  0  0  0  0  0
   -6.7709    5.0166  -34.8794 C   0  0  0  0  0  0  0  0  0  0  0  0
   -6.4532    3.8094  -36.8081 C   0  0  0  0  0  0  0  0  0  0  0  0
   -7.2344    5.0485  -33.4612 C   0  0  0  0  0  0  0  0  0  0  0  0
   -6.8766    3.8332  -35.5244 N   0  0  0  0  0  0  0  0  0  0  0  0
   -5.5078    4.8173  -38.8097 N   0  0  0  0  0  0  0  0  0  0  0  0
   -6.5543    2.6399  -37.4610 F   0  0  0  0  0  0  0  0  0  0  0  0
   -5.4386    6.9972  -37.2540 H   0  0  0  0  0  0  0  0  0  0  0  0
   -6.1978    7.1003  -34.8993 H   0  0  0  0  0  0  0  0  0  0  0  0
   -8.2972    5.3142  -33.4136 H   0  0  0  0  0  0  0  0  0  0  0  0
   -7.0966    4.0739  -32.9760 H   0  0  0  0  0  0  0  0  0  0  0  0
   -6.6653    5.7801  -32.8735 H   0  0  0  0  0  0  0  0  0  0  0  0
   -5.1778    5.6395  -39.2793 H   0  0  0  0  0  0  0  0  0  0  0  0
   -5.6271    3.9554  -39.3082 H   0  0  0  0  0  0  0  0  0  0  0  0
  1  2  1  0  0  0  0
  1  3  2  0  0  0  0
  2  4  2  0  0  0  0
  3  5  1  0  0  0  0
  3  8  1  0  0  0  0
  4  6  1  0  0  0  0
  4  7  1  0  0  0  0
  5  7  2  0  0  0  0
  5  9  1  0  0  0  0
  1 10  1  0  0  0  0
  2 11  1  0  0  0  0
  6 12  1  0  0  0  0
  6 13  1  0  0  0  0
  6 14  1  0  0  0  0
  8 15  1  0  0  0  0
  8 16  1  0  0  0  0
M  END
> <id>
EN300-218890

> <smiles>
CC=1C=CC(N)=C(F)N1

> <MDLNUMBER>
MFCD03095221

> <IUPAC Name>
2-fluoro-6-methylpyridin-3-amine

> <CAS>
374633-34-8

> <Purity>
95

> <URL>
https://www.enaminestore.com/catalog/EN300-218890

> <ROCS_ShapeQuery>
_hit0

> <ROCS_TanimotoCombo>
1.011 

> <ROCS_ShapeTanimoto>
0.411 

> <ROCS_ColorTanimoto>
0.600 

> <ROCS_RefTversky>
1.192 

> <ROCS_RefColorTversky>
0.750 

> <ROCS_RefTverskyCombo>
1.942 

> <ROCS_FitTversky>
0.386 

> <ROCS_FitColorTversky>
0.750 

> <ROCS_FitTverskyCombo>
1.135 

> <ROCS_ColorScore>
-2.999

> <ROCS_Overlap>
146.305

> <ROCS_Rank>
334                 

$$$$
untitled-dbase-42543_3
  -OEChem-06232314393D

 15 15  0     1  0  0  0  0  0999 V2000
   -6.5388    4.6677  -36.0113 C   0  0  0  0  0  0  0  0  0  0  0  0
   -6.3823    7.0603  -36.3835 C   0  0  0  0  0  0  0  0  0  0  0  0
   -6.0592    5.8032  -36.7071 C   0  0  0  0  0  0  0  0  0  0  0  0
   -5.6952    8.0529  -37.2620 C   0  0  0  0  0  0  0  0  0  0  0  0
   -5.1667    7.1863  -38.4038 C   0  0  0  0  0  0  0  0  0  0  0  0
   -5.0956    5.7602  -37.8513 C   0  0  2  0  0  0  0  0  0  0  0  0
   -6.9320    3.7373  -35.4408 N   0  0  0  0  0  0  0  0  0  0  0  0
   -5.5042    4.8248  -38.8343 O   0  0  0  0  0  0  0  0  0  0  0  0
   -7.0747    7.3433  -35.6015 H   0  0  0  0  0  0  0  0  0  0  0  0
   -6.4098    8.8015  -37.6194 H   0  0  0  0  0  0  0  0  0  0  0  0
   -4.8784    8.5608  -36.7412 H   0  0  0  0  0  0  0  0  0  0  0  0
   -5.7970    7.2730  -39.2962 H   0  0  0  0  0  0  0  0  0  0  0  0
   -4.1569    7.5266  -38.6719 H   0  0  0  0  0  0  0  0  0  0  0  0
   -4.0692    5.5171  -37.5291 H   0  0  0  0  0  0  0  0  0  0  0  0
   -6.3780    5.1100  -39.1486 H   0  0  0  0  0  0  0  0  0  0  0  0
  1  3  1  0  0  0  0
  1  7  3  0  0  0  0
  2  3  2  0  0  0  0
  2  4  1  0  0  0  0
  3  6  1  0  0  0  0
  4  5  1  0  0  0  0
  5  6  1  0  0  0  0
  6  8  1  0  0  0  0
  2  9  1  0  0  0  0
  4 10  1  0  0  0  0
  4 11  1  0  0  0  0
  5 12  1  0  0  0  0
  5 13  1  0  0  0  0
  6 14  1  0  0  0  0
  8 15  1  0  0  0  0
M  END
> <id>
EN300-7602508

> <smiles>
OC1CCC=C1C#N

> <MDLNUMBER>
MFCD33020032

> <IUPAC Name>
5-hydroxycyclopent-1-ene-1-carbonitrile

> <CAS>
106924-48-5

> <Purity>
95

> <URL>
https://www.enaminestore.com/catalog/EN300-7602508

> <ROCS_ShapeQuery>
_hit0

> <ROCS_TanimotoCombo>
1.011 

> <ROCS_ShapeTanimoto>
0.417 

> <ROCS_ColorTanimoto>
0.594 

> <ROCS_RefTversky>
1.089 

> <ROCS_RefColorTversky>
0.745 

> <ROCS_RefTverskyCombo>
1.835 

> <ROCS_FitTversky>
0.403 

> <ROCS_FitColorTversky>
0.745 

> <ROCS_FitTverskyCombo>
1.148 

> <ROCS_ColorScore>
-2.981

> <ROCS_Overlap>
130.490

> <ROCS_Rank>
335                 

$$$$
untitled-dbase-26891_0
  -OEChem-06232314393D

 13 13  0     0  0  0  0  0  0999 V2000
   -5.9766    5.7703  -36.5302 C   0  0  0  0  0  0  0  0  0  0  0  0
   -6.5329    5.1376  -35.4024 C   0  0  0  0  0  0  0  0  0  0  0  0
   -5.9510    4.7927  -37.4947 C   0  0  0  0  0  0  0  0  0  0  0  0
   -6.6558    2.3821  -37.5215 C   0  0  0  0  0  0  0  0  0  0  0  0
   -6.8388    3.8571  -35.6281 N   0  0  0  0  0  0  0  0  0  0  0  0
   -6.4735    3.6774  -36.9088 N   0  0  0  0  0  0  0  0  0  0  0  0
   -5.5373    4.7993  -38.7532 O   0  0  0  0  0  0  0  0  0  0  0  0
   -5.6416    6.7926  -36.6287 H   0  0  0  0  0  0  0  0  0  0  0  0
   -6.7287    5.5570  -34.4261 H   0  0  0  0  0  0  0  0  0  0  0  0
   -5.7473    1.7981  -37.3523 H   0  0  0  0  0  0  0  0  0  0  0  0
   -7.5194    1.8847  -37.0713 H   0  0  0  0  0  0  0  0  0  0  0  0
   -6.8350    2.5110  -38.5926 H   0  0  0  0  0  0  0  0  0  0  0  0
   -5.1877    5.6774  -39.0259 H   0  0  0  0  0  0  0  0  0  0  0  0
  1  2  1  0  0  0  0
  1  3  2  0  0  0  0
  2  5  2  0  0  0  0
  3  6  1  0  0  0  0
  3  7  1  0  0  0  0
  4  6  1  0  0  0  0
  5  6  1  0  0  0  0
  1  8  1  0  0  0  0
  2  9  1  0  0  0  0
  4 10  1  0  0  0  0
  4 11  1  0  0  0  0
  4 12  1  0  0  0  0
  7 13  1  0  0  0  0
M  END
> <id>
EN300-6739264

> <smiles>
Cl.CN1N=CC=C1O

> <MDLNUMBER>
MFCD26743527

> <IUPAC Name>
1-methyl-1H-pyrazol-5-ol hydrochloride

> <CAS>
33641-16-6

> <Purity>
95

> <URL>
https://www.enaminestore.com/catalog/EN300-6739264

> <Saltdate>
Cl

> <ROCS_ShapeQuery>
_hit0

> <ROCS_TanimotoCombo>
1.010 

> <ROCS_ShapeTanimoto>
0.416 

> <ROCS_ColorTanimoto>
0.594 

> <ROCS_RefTversky>
1.037 

> <ROCS_RefColorTversky>
0.745 

> <ROCS_RefTverskyCombo>
1.782 

> <ROCS_FitTversky>
0.410 

> <ROCS_FitColorTversky>
0.745 

> <ROCS_FitTverskyCombo>
1.155 

> <ROCS_ColorScore>
-2.981

> <ROCS_Overlap>
122.921

> <ROCS_Rank>
336                 

$$$$
untitled-dbase-45763_0
  -OEChem-06232314393D

 17 17  0     0  0  0  0  0  0999 V2000
   -6.5232    5.1369  -35.3725 C   0  0  0  0  0  0  0  0  0  0  0  0
   -5.9817    5.7109  -36.4991 C   0  0  0  0  0  0  0  0  0  0  0  0
   -5.9744    4.7005  -37.4903 C   0  0  0  0  0  0  0  0  0  0  0  0
   -6.5118    3.5811  -36.8986 C   0  0  0  0  0  0  0  0  0  0  0  0
   -5.5084    7.1018  -36.6312 C   0  0  0  0  0  0  0  0  0  0  0  0
   -6.7809    2.2153  -37.3738 C   0  0  0  0  0  0  0  0  0  0  0  0
   -5.5320    4.8042  -38.7604 N   0  0  0  0  0  0  0  0  0  0  0  0
   -6.8489    3.8388  -35.6076 O   0  0  0  0  0  0  0  0  0  0  0  0
   -6.7341    5.4966  -34.3757 H   0  0  0  0  0  0  0  0  0  0  0  0
   -4.4421    7.1867  -36.3637 H   0  0  0  0  0  0  0  0  0  0  0  0
   -5.6265    7.4841  -37.6598 H   0  0  0  0  0  0  0  0  0  0  0  0
   -6.0720    7.7949  -35.9828 H   0  0  0  0  0  0  0  0  0  0  0  0
   -5.9158    1.5513  -37.2007 H   0  0  0  0  0  0  0  0  0  0  0  0
   -7.6531    1.7605  -36.8697 H   0  0  0  0  0  0  0  0  0  0  0  0
   -7.0097    2.1855  -38.4549 H   0  0  0  0  0  0  0  0  0  0  0  0
   -5.5205    3.9997  -39.4055 H   0  0  0  0  0  0  0  0  0  0  0  0
   -5.0961    5.6665  -39.1213 H   0  0  0  0  0  0  0  0  0  0  0  0
  1  2  2  0  0  0  0
  1  8  1  0  0  0  0
  2  3  1  0  0  0  0
  2  5  1  0  0  0  0
  3  4  2  0  0  0  0
  3  7  1  0  0  0  0
  4  6  1  0  0  0  0
  4  8  1  0  0  0  0
  1  9  1  0  0  0  0
  5 10  1  0  0  0  0
  5 11  1  0  0  0  0
  5 12  1  0  0  0  0
  6 13  1  0  0  0  0
  6 14  1  0  0  0  0
  6 15  1  0  0  0  0
  7 16  1  0  0  0  0
  7 17  1  0  0  0  0
M  END
> <id>
EN300-7232891

> <smiles>
CC1=COC(C)=C1N

> <MDLNUMBER>
MFCD32744514

> <IUPAC Name>
2,4-dimethylfuran-3-amine

> <CAS>
1466286-06-5

> <URL>
https://www.enaminestore.com/catalog/EN300-7232891

> <ROCS_ShapeQuery>
_hit0

> <ROCS_TanimotoCombo>
1.010 

> <ROCS_ShapeTanimoto>
0.414 

> <ROCS_ColorTanimoto>
0.596 

> <ROCS_RefTversky>
1.107 

> <ROCS_RefColorTversky>
0.747 

> <ROCS_RefTverskyCombo>
1.854 

> <ROCS_FitTversky>
0.398 

> <ROCS_FitColorTversky>
0.747 

> <ROCS_FitTverskyCombo>
1.145 

> <ROCS_ColorScore>
-2.989

> <ROCS_Overlap>
133.247

> <ROCS_Rank>
337                 

$$$$
untitled-dbase-1189_0
  -OEChem-06232314393D

  9  9  0     0  0  0  0  0  0999 V2000
   -6.4170    3.3470  -37.0298 C   0  0  0  0  0  0  0  0  0  0  0  0
   -6.0098    4.5536  -37.5629 C   0  0  0  0  0  0  0  0  0  0  0  0
   -6.8836    3.3976  -35.7257 N   0  0  0  0  0  0  0  0  0  0  0  0
   -6.8423    4.6291  -35.2428 N   0  0  0  0  0  0  0  0  0  0  0  0
   -5.5136    4.8186  -38.7916 N   0  0  0  0  0  0  0  0  0  0  0  0
   -6.2445    5.7397  -36.3453 S   0  0  0  0  0  0  0  0  0  0  0  0
   -6.3979    2.3952  -37.5438 H   0  0  0  0  0  0  0  0  0  0  0  0
   -5.3398    4.0753  -39.4832 H   0  0  0  0  0  0  0  0  0  0  0  0
   -5.1976    5.7609  -39.0620 H   0  0  0  0  0  0  0  0  0  0  0  0
  1  2  2  0  0  0  0
  1  3  1  0  0  0  0
  2  5  1  0  0  0  0
  2  6  1  0  0  0  0
  3  4  2  0  0  0  0
  4  6  1  0  0  0  0
  1  7  1  0  0  0  0
  5  8  1  0  0  0  0
  5  9  1  0  0  0  0
M  END
> <id>
EN300-80762

> <smiles>
NC1=CN=NS1

> <MDLNUMBER>
MFCD00082810

> <IUPAC Name>
1,2,3-thiadiazol-5-amine

> <CAS>
4100-41-8

> <Purity>
95

> <URL>
https://www.enaminestore.com/catalog/EN300-80762

> <MP>
142-144

> <ROCS_ShapeQuery>
_hit0

> <ROCS_TanimotoCombo>
1.010 

> <ROCS_ShapeTanimoto>
0.469 

> <ROCS_ColorTanimoto>
0.541 

> <ROCS_RefTversky>
0.970 

> <ROCS_RefColorTversky>
0.807 

> <ROCS_RefTverskyCombo>
1.776 

> <ROCS_FitTversky>
0.476 

> <ROCS_FitColorTversky>
0.622 

> <ROCS_FitTverskyCombo>
1.097 

> <ROCS_ColorScore>
-3.281

> <ROCS_Overlap>
111.598

> <ROCS_Rank>
338                 

$$$$
untitled-dbase-25878_0
  -OEChem-06232314393D

 14 14  0     0  0  0  0  0  0999 V2000
   -6.5806    5.1264  -35.3953 C   0  0  0  0  0  0  0  0  0  0  0  0
   -6.0266    5.7700  -36.5181 C   0  0  0  0  0  0  0  0  0  0  0  0
   -5.9674    4.7916  -37.4802 C   0  0  0  0  0  0  0  0  0  0  0  0
   -6.6207    2.3615  -37.5034 C   0  0  0  0  0  0  0  0  0  0  0  0
   -6.8540    3.8387  -35.6218 N   0  0  0  0  0  0  0  0  0  0  0  0
   -6.4703    3.6654  -36.8980 N   0  0  0  0  0  0  0  0  0  0  0  0
   -5.5327    4.8020  -38.7570 N   0  0  0  0  0  0  0  0  0  0  0  0
   -5.6463    7.0384  -36.6227 F   0  0  0  0  0  0  0  0  0  0  0  0
   -6.7961    5.5424  -34.4217 H   0  0  0  0  0  0  0  0  0  0  0  0
   -5.7018    1.7976  -37.3226 H   0  0  0  0  0  0  0  0  0  0  0  0
   -7.4776    1.8493  -37.0568 H   0  0  0  0  0  0  0  0  0  0  0  0
   -6.7935    2.4791  -38.5768 H   0  0  0  0  0  0  0  0  0  0  0  0
   -5.5158    3.9503  -39.3386 H   0  0  0  0  0  0  0  0  0  0  0  0
   -5.1081    5.6384  -39.1858 H   0  0  0  0  0  0  0  0  0  0  0  0
  1  2  1  0  0  0  0
  1  5  2  0  0  0  0
  2  3  2  0  0  0  0
  2  8  1  0  0  0  0
  3  6  1  0  0  0  0
  3  7  1  0  0  0  0
  4  6  1  0  0  0  0
  5  6  1  0  0  0  0
  1  9  1  0  0  0  0
  4 10  1  0  0  0  0
  4 11  1  0  0  0  0
  4 12  1  0  0  0  0
  7 13  1  0  0  0  0
  7 14  1  0  0  0  0
M  END
> <id>
EN300-6503688

> <smiles>
Cl.CN1N=CC(F)=C1N

> <MDLNUMBER>
MFCD31736993

> <IUPAC Name>
4-fluoro-1-methyl-1H-pyrazol-5-amine hydrochloride

> <CAS>
2260931-45-9

> <Purity>
95

> <URL>
https://www.enaminestore.com/catalog/EN300-6503688

> <Saltdate>
Cl

> <ROCS_ShapeQuery>
_hit0

> <ROCS_TanimotoCombo>
1.010 

> <ROCS_ShapeTanimoto>
0.414 

> <ROCS_ColorTanimoto>
0.596 

> <ROCS_RefTversky>
1.126 

> <ROCS_RefColorTversky>
0.747 

> <ROCS_RefTverskyCombo>
1.872 

> <ROCS_FitTversky>
0.396 

> <ROCS_FitColorTversky>
0.747 

> <ROCS_FitTverskyCombo>
1.142 

> <ROCS_ColorScore>
-2.986

> <ROCS_Overlap>
136.050

> <ROCS_Rank>
339                 

$$$$
untitled-dbase-40844_0
  -OEChem-06232314393D

 14 14  0     0  0  0  0  0  0999 V2000
   -6.5806    5.1264  -35.3953 C   0  0  0  0  0  0  0  0  0  0  0  0
   -6.0266    5.7700  -36.5181 C   0  0  0  0  0  0  0  0  0  0  0  0
   -5.9674    4.7916  -37.4802 C   0  0  0  0  0  0  0  0  0  0  0  0
   -6.6207    2.3615  -37.5034 C   0  0  0  0  0  0  0  0  0  0  0  0
   -6.8540    3.8387  -35.6218 N   0  0  0  0  0  0  0  0  0  0  0  0
   -6.4703    3.6654  -36.8980 N   0  0  0  0  0  0  0  0  0  0  0  0
   -5.5327    4.8020  -38.7570 N   0  0  0  0  0  0  0  0  0  0  0  0
   -5.6463    7.0384  -36.6227 F   0  0  0  0  0  0  0  0  0  0  0  0
   -6.7961    5.5424  -34.4217 H   0  0  0  0  0  0  0  0  0  0  0  0
   -5.7018    1.7976  -37.3226 H   0  0  0  0  0  0  0  0  0  0  0  0
   -7.4776    1.8493  -37.0568 H   0  0  0  0  0  0  0  0  0  0  0  0
   -6.7935    2.4791  -38.5768 H   0  0  0  0  0  0  0  0  0  0  0  0
   -5.5158    3.9503  -39.3386 H   0  0  0  0  0  0  0  0  0  0  0  0
   -5.1081    5.6384  -39.1858 H   0  0  0  0  0  0  0  0  0  0  0  0
  1  2  1  0  0  0  0
  1  5  2  0  0  0  0
  2  3  2  0  0  0  0
  2  8  1  0  0  0  0
  3  6  1  0  0  0  0
  3  7  1  0  0  0  0
  4  6  1  0  0  0  0
  5  6  1  0  0  0  0
  1  9  1  0  0  0  0
  4 10  1  0  0  0  0
  4 11  1  0  0  0  0
  4 12  1  0  0  0  0
  7 13  1  0  0  0  0
  7 14  1  0  0  0  0
M  END
> <id>
EN300-256297

> <smiles>
CN1N=CC(F)=C1N

> <MDLNUMBER>
MFCD31603936

> <IUPAC Name>
4-fluoro-1-methyl-1H-pyrazol-5-amine

> <CAS>
1935209-79-2

> <Purity>
95

> <URL>
https://www.enaminestore.com/catalog/EN300-256297

> <ROCS_ShapeQuery>
_hit0

> <ROCS_TanimotoCombo>
1.010 

> <ROCS_ShapeTanimoto>
0.414 

> <ROCS_ColorTanimoto>
0.596 

> <ROCS_RefTversky>
1.126 

> <ROCS_RefColorTversky>
0.747 

> <ROCS_RefTverskyCombo>
1.872 

> <ROCS_FitTversky>
0.396 

> <ROCS_FitColorTversky>
0.747 

> <ROCS_FitTverskyCombo>
1.142 

> <ROCS_ColorScore>
-2.986

> <ROCS_Overlap>
136.050

> <ROCS_Rank>
340                 

$$$$
untitled-dbase-6071_0
  -OEChem-06232314393D

 17 17  0     0  0  0  0  0  0999 V2000
   -6.0358    5.7980  -36.5330 C   0  0  0  0  0  0  0  0  0  0  0  0
   -6.5868    5.1624  -35.4042 C   0  0  0  0  0  0  0  0  0  0  0  0
   -5.9682    4.8099  -37.4846 C   0  0  0  0  0  0  0  0  0  0  0  0
   -6.8846    5.7492  -34.0848 C   0  0  0  0  0  0  0  0  0  0  0  0
   -6.6049    2.3748  -37.4820 C   0  0  0  0  0  0  0  0  0  0  0  0
   -6.8505    3.8705  -35.6173 N   0  0  0  0  0  0  0  0  0  0  0  0
   -6.4637    3.6863  -36.8911 N   0  0  0  0  0  0  0  0  0  0  0  0
   -5.5332    4.8015  -38.7626 N   0  0  0  0  0  0  0  0  0  0  0  0
   -5.5695    7.4209  -36.6584 Cl  0  0  0  0  0  0  0  0  0  0  0  0
   -7.9100    6.1539  -34.0504 H   0  0  0  0  0  0  0  0  0  0  0  0
   -6.7902    5.0099  -33.2704 H   0  0  0  0  0  0  0  0  0  0  0  0
   -6.1927    6.5710  -33.8299 H   0  0  0  0  0  0  0  0  0  0  0  0
   -5.6823    1.8192  -37.2943 H   0  0  0  0  0  0  0  0  0  0  0  0
   -7.4586    1.8619  -37.0303 H   0  0  0  0  0  0  0  0  0  0  0  0
   -6.7777    2.4793  -38.5568 H   0  0  0  0  0  0  0  0  0  0  0  0
   -5.5123    3.9406  -39.3289 H   0  0  0  0  0  0  0  0  0  0  0  0
   -5.1134    5.6330  -39.2040 H   0  0  0  0  0  0  0  0  0  0  0  0
  1  2  1  0  0  0  0
  1  3  2  0  0  0  0
  1  9  1  0  0  0  0
  2  4  1  0  0  0  0
  2  6  2  0  0  0  0
  3  7  1  0  0  0  0
  3  8  1  0  0  0  0
  5  7  1  0  0  0  0
  6  7  1  0  0  0  0
  4 10  1  0  0  0  0
  4 11  1  0  0  0  0
  4 12  1  0  0  0  0
  5 13  1  0  0  0  0
  5 14  1  0  0  0  0
  5 15  1  0  0  0  0
  8 16  1  0  0  0  0
  8 17  1  0  0  0  0
M  END
> <id>
EN300-230239

> <smiles>
CC1=NN(C)C(N)=C1Cl

> <MDLNUMBER>
MFCD06805201

> <IUPAC Name>
4-chloro-1,3-dimethyl-1H-pyrazol-5-amine

> <CAS>
1006481-77-1

> <URL>
https://www.enaminestore.com/catalog/EN300-230239

> <ROCS_ShapeQuery>
_hit0

> <ROCS_TanimotoCombo>
1.010 

> <ROCS_ShapeTanimoto>
0.414 

> <ROCS_ColorTanimoto>
0.595 

> <ROCS_RefTversky>
1.188 

> <ROCS_RefColorTversky>
0.746 

> <ROCS_RefTverskyCombo>
1.934 

> <ROCS_FitTversky>
0.389 

> <ROCS_FitColorTversky>
0.746 

> <ROCS_FitTverskyCombo>
1.135 

> <ROCS_ColorScore>
-2.985

> <ROCS_Overlap>
145.450

> <ROCS_Rank>
341                 

$$$$
untitled-dbase-7007_0
  -OEChem-06232314393D

 17 17  0     0  0  0  0  0  0999 V2000
   -6.0358    5.7980  -36.5330 C   0  0  0  0  0  0  0  0  0  0  0  0
   -6.5868    5.1624  -35.4042 C   0  0  0  0  0  0  0  0  0  0  0  0
   -5.9682    4.8099  -37.4846 C   0  0  0  0  0  0  0  0  0  0  0  0
   -6.8846    5.7492  -34.0848 C   0  0  0  0  0  0  0  0  0  0  0  0
   -6.6049    2.3748  -37.4820 C   0  0  0  0  0  0  0  0  0  0  0  0
   -6.8505    3.8705  -35.6173 N   0  0  0  0  0  0  0  0  0  0  0  0
   -6.4637    3.6863  -36.8911 N   0  0  0  0  0  0  0  0  0  0  0  0
   -5.5332    4.8015  -38.7626 N   0  0  0  0  0  0  0  0  0  0  0  0
   -5.5695    7.4209  -36.6584 Cl  0  0  0  0  0  0  0  0  0  0  0  0
   -7.9100    6.1539  -34.0504 H   0  0  0  0  0  0  0  0  0  0  0  0
   -6.7902    5.0099  -33.2704 H   0  0  0  0  0  0  0  0  0  0  0  0
   -6.1927    6.5710  -33.8299 H   0  0  0  0  0  0  0  0  0  0  0  0
   -5.6823    1.8192  -37.2943 H   0  0  0  0  0  0  0  0  0  0  0  0
   -7.4586    1.8619  -37.0303 H   0  0  0  0  0  0  0  0  0  0  0  0
   -6.7777    2.4793  -38.5568 H   0  0  0  0  0  0  0  0  0  0  0  0
   -5.5123    3.9406  -39.3289 H   0  0  0  0  0  0  0  0  0  0  0  0
   -5.1134    5.6330  -39.2040 H   0  0  0  0  0  0  0  0  0  0  0  0
  1  2  1  0  0  0  0
  1  3  2  0  0  0  0
  1  9  1  0  0  0  0
  2  4  1  0  0  0  0
  2  6  2  0  0  0  0
  3  7  1  0  0  0  0
  3  8  1  0  0  0  0
  5  7  1  0  0  0  0
  6  7  1  0  0  0  0
  4 10  1  0  0  0  0
  4 11  1  0  0  0  0
  4 12  1  0  0  0  0
  5 13  1  0  0  0  0
  5 14  1  0  0  0  0
  5 15  1  0  0  0  0
  8 16  1  0  0  0  0
  8 17  1  0  0  0  0
M  END
> <id>
EN300-249206

> <smiles>
Cl.CC1=NN(C)C(N)=C1Cl

> <MDLNUMBER>
MFCD28989831

> <IUPAC Name>
4-chloro-1,3-dimethyl-1H-pyrazol-5-amine hydrochloride

> <CAS>
1909336-62-4

> <Purity>
95

> <URL>
https://www.enaminestore.com/catalog/EN300-249206

> <Saltdate>
Cl

> <ROCS_ShapeQuery>
_hit0

> <ROCS_TanimotoCombo>
1.010 

> <ROCS_ShapeTanimoto>
0.414 

> <ROCS_ColorTanimoto>
0.595 

> <ROCS_RefTversky>
1.188 

> <ROCS_RefColorTversky>
0.746 

> <ROCS_RefTverskyCombo>
1.934 

> <ROCS_FitTversky>
0.389 

> <ROCS_FitColorTversky>
0.746 

> <ROCS_FitTverskyCombo>
1.135 

> <ROCS_ColorScore>
-2.985

> <ROCS_Overlap>
145.450

> <ROCS_Rank>
342                 

$$$$
untitled-dbase-28416_0
  -OEChem-06232314393D

 18 18  0     0  0  0  0  0  0999 V2000
   -6.6072    4.7029  -36.0393 C   0  0  0  0  0  0  0  0  0  0  0  0
   -6.2401    5.8979  -36.7376 C   0  0  0  0  0  0  0  0  0  0  0  0
   -6.3486    7.2145  -36.2039 C   0  0  0  0  0  0  0  0  0  0  0  0
   -5.9226    8.1720  -37.0979 C   0  0  0  0  0  0  0  0  0  0  0  0
   -5.7354    5.8992  -38.0195 C   0  0  0  0  0  0  0  0  0  0  0  0
   -6.8595    7.5282  -34.8449 C   0  0  0  0  0  0  0  0  0  0  0  0
   -5.8740    9.6422  -36.9331 C   0  0  0  0  0  0  0  0  0  0  0  0
   -6.9047    3.7344  -35.4734 N   0  0  0  0  0  0  0  0  0  0  0  0
   -5.5050    4.8229  -38.8161 N   0  0  0  0  0  0  0  0  0  0  0  0
   -5.3946    7.4831  -38.5741 S   0  0  0  0  0  0  0  0  0  0  0  0
   -6.0386    7.5365  -34.1142 H   0  0  0  0  0  0  0  0  0  0  0  0
   -7.3547    8.5099  -34.8155 H   0  0  0  0  0  0  0  0  0  0  0  0
   -7.6062    6.7915  -34.5135 H   0  0  0  0  0  0  0  0  0  0  0  0
   -4.9068    9.9589  -36.5135 H   0  0  0  0  0  0  0  0  0  0  0  0
   -6.0154   10.1668  -37.8916 H   0  0  0  0  0  0  0  0  0  0  0  0
   -6.6693   10.0057  -36.2626 H   0  0  0  0  0  0  0  0  0  0  0  0
   -5.6581    3.8638  -38.4849 H   0  0  0  0  0  0  0  0  0  0  0  0
   -5.0804    4.9207  -39.7452 H   0  0  0  0  0  0  0  0  0  0  0  0
  1  2  1  0  0  0  0
  1  8  3  0  0  0  0
  2  3  1  0  0  0  0
  2  5  2  0  0  0  0
  3  4  2  0  0  0  0
  3  6  1  0  0  0  0
  4  7  1  0  0  0  0
  4 10  1  0  0  0  0
  5  9  1  0  0  0  0
  5 10  1  0  0  0  0
  6 11  1  0  0  0  0
  6 12  1  0  0  0  0
  6 13  1  0  0  0  0
  7 14  1  0  0  0  0
  7 15  1  0  0  0  0
  7 16  1  0  0  0  0
  9 17  1  0  0  0  0
  9 18  1  0  0  0  0
M  END
> <id>
EN300-02935

> <smiles>
CC=1SC(N)=C(C#N)C1C

> <MDLNUMBER>
MFCD00720189

> <IUPAC Name>
2-amino-4,5-dimethylthiophene-3-carbonitrile

> <CAS>
4651-94-9

> <Purity>
95

> <URL>
https://www.enaminestore.com/catalog/EN300-02935

> <MP>
139-142

> <ROCS_ShapeQuery>
_hit0

> <ROCS_TanimotoCombo>
1.010 

> <ROCS_ShapeTanimoto>
0.413 

> <ROCS_ColorTanimoto>
0.597 

> <ROCS_RefTversky>
1.228 

> <ROCS_RefColorTversky>
0.747 

> <ROCS_RefTverskyCombo>
1.976 

> <ROCS_FitTversky>
0.384 

> <ROCS_FitColorTversky>
0.747 

> <ROCS_FitTverskyCombo>
1.131 

> <ROCS_ColorScore>
-2.989

> <ROCS_Overlap>
151.812

> <ROCS_Rank>
343                 

$$$$
untitled-dbase-5956_0
  -OEChem-06232314393D

 17 17  0     0  0  0  0  0  0999 V2000
   -6.5749    5.1292  -35.3900 C   0  0  0  0  0  0  0  0  0  0  0  0
   -6.0211    5.7730  -36.5128 C   0  0  0  0  0  0  0  0  0  0  0  0
   -5.9662    4.7960  -37.4765 C   0  0  0  0  0  0  0  0  0  0  0  0
   -5.5977    7.1795  -36.6212 C   0  0  0  0  0  0  0  0  0  0  0  0
   -6.6231    2.3666  -37.5009 C   0  0  0  0  0  0  0  0  0  0  0  0
   -6.8523    3.8427  -35.6181 N   0  0  0  0  0  0  0  0  0  0  0  0
   -6.4712    3.6702  -36.8952 N   0  0  0  0  0  0  0  0  0  0  0  0
   -5.5356    4.8017  -38.7555 N   0  0  0  0  0  0  0  0  0  0  0  0
   -6.7867    5.5412  -34.4135 H   0  0  0  0  0  0  0  0  0  0  0  0
   -4.5393    7.3025  -36.3342 H   0  0  0  0  0  0  0  0  0  0  0  0
   -5.7113    7.5713  -37.6477 H   0  0  0  0  0  0  0  0  0  0  0  0
   -6.1969    7.8463  -35.9756 H   0  0  0  0  0  0  0  0  0  0  0  0
   -5.7051    1.8014  -37.3194 H   0  0  0  0  0  0  0  0  0  0  0  0
   -7.4810    1.8557  -37.0551 H   0  0  0  0  0  0  0  0  0  0  0  0
   -6.7947    2.4847  -38.5744 H   0  0  0  0  0  0  0  0  0  0  0  0
   -5.5238    3.9486  -39.3343 H   0  0  0  0  0  0  0  0  0  0  0  0
   -5.1098    5.6356  -39.1872 H   0  0  0  0  0  0  0  0  0  0  0  0
  1  2  1  0  0  0  0
  1  6  2  0  0  0  0
  2  3  2  0  0  0  0
  2  4  1  0  0  0  0
  3  7  1  0  0  0  0
  3  8  1  0  0  0  0
  5  7  1  0  0  0  0
  6  7  1  0  0  0  0
  1  9  1  0  0  0  0
  4 10  1  0  0  0  0
  4 11  1  0  0  0  0
  4 12  1  0  0  0  0
  5 13  1  0  0  0  0
  5 14  1  0  0  0  0
  5 15  1  0  0  0  0
  8 16  1  0  0  0  0
  8 17  1  0  0  0  0
M  END
> <id>
EN300-194211

> <smiles>
CC=1C=NN(C)C1N

> <MDLNUMBER>
MFCD08059942

> <IUPAC Name>
1,4-dimethyl-1H-pyrazol-5-amine

> <CAS>
3524-49-0

> <Purity>
95

> <URL>
https://www.enaminestore.com/catalog/EN300-194211

> <MP>
134-136

> <ROCS_ShapeQuery>
_hit0

> <ROCS_TanimotoCombo>
1.010 

> <ROCS_ShapeTanimoto>
0.414 

> <ROCS_ColorTanimoto>
0.596 

> <ROCS_RefTversky>
1.116 

> <ROCS_RefColorTversky>
0.747 

> <ROCS_RefTverskyCombo>
1.862 

> <ROCS_FitTversky>
0.397 

> <ROCS_FitColorTversky>
0.747 

> <ROCS_FitTverskyCombo>
1.143 

> <ROCS_ColorScore>
-2.986

> <ROCS_Overlap>
134.577

> <ROCS_Rank>
344                 

$$$$
untitled-dbase-8294_0
  -OEChem-06232314393D

 17 17  0     0  0  0  0  0  0999 V2000
   -6.5749    5.1292  -35.3900 C   0  0  0  0  0  0  0  0  0  0  0  0
   -6.0211    5.7730  -36.5128 C   0  0  0  0  0  0  0  0  0  0  0  0
   -5.9662    4.7960  -37.4765 C   0  0  0  0  0  0  0  0  0  0  0  0
   -5.5977    7.1795  -36.6212 C   0  0  0  0  0  0  0  0  0  0  0  0
   -6.6231    2.3666  -37.5009 C   0  0  0  0  0  0  0  0  0  0  0  0
   -6.8523    3.8427  -35.6181 N   0  0  0  0  0  0  0  0  0  0  0  0
   -6.4712    3.6702  -36.8952 N   0  0  0  0  0  0  0  0  0  0  0  0
   -5.5356    4.8017  -38.7555 N   0  0  0  0  0  0  0  0  0  0  0  0
   -6.7867    5.5412  -34.4135 H   0  0  0  0  0  0  0  0  0  0  0  0
   -4.5393    7.3025  -36.3342 H   0  0  0  0  0  0  0  0  0  0  0  0
   -5.7113    7.5713  -37.6477 H   0  0  0  0  0  0  0  0  0  0  0  0
   -6.1969    7.8463  -35.9756 H   0  0  0  0  0  0  0  0  0  0  0  0
   -5.7051    1.8014  -37.3194 H   0  0  0  0  0  0  0  0  0  0  0  0
   -7.4810    1.8557  -37.0551 H   0  0  0  0  0  0  0  0  0  0  0  0
   -6.7947    2.4847  -38.5744 H   0  0  0  0  0  0  0  0  0  0  0  0
   -5.5238    3.9486  -39.3343 H   0  0  0  0  0  0  0  0  0  0  0  0
   -5.1098    5.6356  -39.1872 H   0  0  0  0  0  0  0  0  0  0  0  0
  1  2  1  0  0  0  0
  1  6  2  0  0  0  0
  2  3  2  0  0  0  0
  2  4  1  0  0  0  0
  3  7  1  0  0  0  0
  3  8  1  0  0  0  0
  5  7  1  0  0  0  0
  6  7  1  0  0  0  0
  1  9  1  0  0  0  0
  4 10  1  0  0  0  0
  4 11  1  0  0  0  0
  4 12  1  0  0  0  0
  5 13  1  0  0  0  0
  5 14  1  0  0  0  0
  5 15  1  0  0  0  0
  8 16  1  0  0  0  0
  8 17  1  0  0  0  0
M  END
> <id>
EN300-270111

> <smiles>
Cl.CC=1C=NN(C)C1N

> <MDLNUMBER>
MFCD28900390

> <IUPAC Name>
1,4-dimethyl-1H-pyrazol-5-amine hydrochloride

> <CAS>
76606-33-2

> <Purity>
95

> <URL>
https://www.enaminestore.com/catalog/EN300-270111

> <Saltdate>
Cl

> <ROCS_ShapeQuery>
_hit0

> <ROCS_TanimotoCombo>
1.010 

> <ROCS_ShapeTanimoto>
0.414 

> <ROCS_ColorTanimoto>
0.596 

> <ROCS_RefTversky>
1.116 

> <ROCS_RefColorTversky>
0.747 

> <ROCS_RefTverskyCombo>
1.862 

> <ROCS_FitTversky>
0.397 

> <ROCS_FitColorTversky>
0.747 

> <ROCS_FitTverskyCombo>
1.143 

> <ROCS_ColorScore>
-2.986

> <ROCS_Overlap>
134.577

> <ROCS_Rank>
345                 

$$$$
untitled-dbase-51614_0
  -OEChem-06232314393D

 19 19  0     1  0  0  0  0  0999 V2000
   -6.8410    3.3728  -35.8043 C   0  0  0  0  0  0  0  0  0  0  0  0
   -6.7480    3.5773  -37.1258 C   0  0  0  0  0  0  0  0  0  0  0  0
   -6.7434    4.4771  -34.7919 C   0  0  0  0  0  0  0  0  0  0  0  0
   -6.0585    5.9760  -36.7015 C   0  0  0  0  0  0  0  0  0  0  0  0
   -6.5118    4.9319  -37.7297 C   0  0  1  0  0  0  0  0  0  0  0  0
   -6.8841    5.8748  -35.4161 C   0  0  2  0  0  0  0  0  0  0  0  0
   -6.4599    6.8923  -34.4572 N   0  0  0  0  0  0  0  0  0  0  0  0
   -5.5091    4.8433  -38.7385 O   0  0  0  0  0  0  0  0  0  0  0  0
   -6.9965    2.3640  -35.4328 H   0  0  0  0  0  0  0  0  0  0  0  0
   -6.8542    2.7306  -37.7988 H   0  0  0  0  0  0  0  0  0  0  0  0
   -7.5251    4.3393  -34.0347 H   0  0  0  0  0  0  0  0  0  0  0  0
   -5.7792    4.3758  -34.2767 H   0  0  0  0  0  0  0  0  0  0  0  0
   -4.9894    5.8434  -36.4825 H   0  0  0  0  0  0  0  0  0  0  0  0
   -6.1464    6.9763  -37.1453 H   0  0  0  0  0  0  0  0  0  0  0  0
   -7.4392    5.2645  -38.2116 H   0  0  0  0  0  0  0  0  0  0  0  0
   -7.9398    6.0523  -35.6598 H   0  0  0  0  0  0  0  0  0  0  0  0
   -6.5786    7.7831  -34.8778 H   0  0  0  0  0  0  0  0  0  0  0  0
   -7.0259    6.8083  -33.6465 H   0  0  0  0  0  0  0  0  0  0  0  0
   -5.3948    5.7383  -39.0946 H   0  0  0  0  0  0  0  0  0  0  0  0
  1  2  2  0  0  0  0
  1  3  1  0  0  0  0
  2  5  1  0  0  0  0
  3  6  1  0  0  0  0
  4  5  1  0  0  0  0
  4  6  1  0  0  0  0
  5  8  1  6  0  0  0
  6  7  1  6  0  0  0
  1  9  1  0  0  0  0
  2 10  1  0  0  0  0
  3 11  1  0  0  0  0
  3 12  1  0  0  0  0
  4 13  1  0  0  0  0
  4 14  1  0  0  0  0
  5 15  1  0  0  0  0
  6 16  1  0  0  0  0
  7 17  1  0  0  0  0
  7 18  1  0  0  0  0
  8 19  1  0  0  0  0
M  END
> <id>
EN300-39848119

> <smiles>
N[C@@H]1CC=C[C@H](O)C1

> <IUPAC Name>
(1R,5R)-5-aminocyclohex-2-en-1-ol

> <URL>
https://www.enaminestore.com/catalog/EN300-39848119

> <ROCS_ShapeQuery>
_hit0

> <ROCS_TanimotoCombo>
1.009 

> <ROCS_ShapeTanimoto>
0.516 

> <ROCS_ColorTanimoto>
0.493 

> <ROCS_RefTversky>
1.234 

> <ROCS_RefColorTversky>
0.734 

> <ROCS_RefTverskyCombo>
1.968 

> <ROCS_FitTversky>
0.470 

> <ROCS_FitColorTversky>
0.601 

> <ROCS_FitTverskyCombo>
1.071 

> <ROCS_ColorScore>
-2.973

> <ROCS_Overlap>
147.150

> <ROCS_Rank>
346                 

$$$$
untitled-dbase-7354_0
  -OEChem-06232314393D

 16 16  0     0  0  0  0  0  0999 V2000
   -6.0832    5.8046  -36.5705 C   0  0  0  0  0  0  0  0  0  0  0  0
   -6.6282    5.1718  -35.4373 C   0  0  0  0  0  0  0  0  0  0  0  0
   -5.9734    4.8027  -37.5037 C   0  0  0  0  0  0  0  0  0  0  0  0
   -6.9546    5.7833  -34.1381 C   0  0  0  0  0  0  0  0  0  0  0  0
   -6.5297    2.3532  -37.4729 C   0  0  0  0  0  0  0  0  0  0  0  0
   -6.8495    3.8689  -35.6307 N   0  0  0  0  0  0  0  0  0  0  0  0
   -6.4415    3.6748  -36.8963 N   0  0  0  0  0  0  0  0  0  0  0  0
   -5.5287    4.7972  -38.7512 O   0  0  0  0  0  0  0  0  0  0  0  0
   -5.7490    7.0826  -36.7111 F   0  0  0  0  0  0  0  0  0  0  0  0
   -7.9913    6.1613  -34.1222 H   0  0  0  0  0  0  0  0  0  0  0  0
   -6.8488    5.0689  -33.3022 H   0  0  0  0  0  0  0  0  0  0  0  0
   -6.2883    6.6308  -33.8966 H   0  0  0  0  0  0  0  0  0  0  0  0
   -5.5919    1.8313  -37.2651 H   0  0  0  0  0  0  0  0  0  0  0  0
   -7.3724    1.8171  -37.0276 H   0  0  0  0  0  0  0  0  0  0  0  0
   -6.6896    2.4393  -38.5513 H   0  0  0  0  0  0  0  0  0  0  0  0
   -5.2256    5.6865  -39.0430 H   0  0  0  0  0  0  0  0  0  0  0  0
  1  2  1  0  0  0  0
  1  3  2  0  0  0  0
  1  9  1  0  0  0  0
  2  4  1  0  0  0  0
  2  6  2  0  0  0  0
  3  7  1  0  0  0  0
  3  8  1  0  0  0  0
  5  7  1  0  0  0  0
  6  7  1  0  0  0  0
  4 10  1  0  0  0  0
  4 11  1  0  0  0  0
  4 12  1  0  0  0  0
  5 13  1  0  0  0  0
  5 14  1  0  0  0  0
  5 15  1  0  0  0  0
  8 16  1  0  0  0  0
M  END
> <id>
EN300-247163

> <smiles>
CC1=NN(C)C(O)=C1F

> <MDLNUMBER>
MFCD12026315

> <IUPAC Name>
4-fluoro-1,3-dimethyl-1H-pyrazol-5-ol

> <CAS>
80171-20-6

> <Purity>
95

> <URL>
https://www.enaminestore.com/catalog/EN300-247163

> <MP>
101-103

> <ROCS_ShapeQuery>
_hit0

> <ROCS_TanimotoCombo>
1.009 

> <ROCS_ShapeTanimoto>
0.415 

> <ROCS_ColorTanimoto>
0.594 

> <ROCS_RefTversky>
1.214 

> <ROCS_RefColorTversky>
0.745 

> <ROCS_RefTverskyCombo>
1.959 

> <ROCS_FitTversky>
0.387 

> <ROCS_FitColorTversky>
0.745 

> <ROCS_FitTverskyCombo>
1.132 

> <ROCS_ColorScore>
-2.981

> <ROCS_Overlap>
149.349

> <ROCS_Rank>
347                 

$$$$
untitled-dbase-49139_0
  -OEChem-06232314393D

 14 14  0     0  0  0  0  0  0999 V2000
   -6.6496    5.1499  -35.4099 C   0  0  0  0  0  0  0  0  0  0  0  0
   -6.1128    5.7982  -36.5384 C   0  0  0  0  0  0  0  0  0  0  0  0
   -5.9864    4.8041  -37.4777 C   0  0  0  0  0  0  0  0  0  0  0  0
   -6.5126    2.3429  -37.4568 C   0  0  0  0  0  0  0  0  0  0  0  0
   -6.8505    3.8450  -35.6119 N   0  0  0  0  0  0  0  0  0  0  0  0
   -6.4379    3.6653  -36.8783 N   0  0  0  0  0  0  0  0  0  0  0  0
   -5.5345    4.8027  -38.7494 N   0  0  0  0  0  0  0  0  0  0  0  0
   -5.7262    7.4405  -36.6613 Cl  0  0  0  0  0  0  0  0  0  0  0  0
   -6.9040    5.5693  -34.4466 H   0  0  0  0  0  0  0  0  0  0  0  0
   -5.5682    1.8315  -37.2525 H   0  0  0  0  0  0  0  0  0  0  0  0
   -7.3477    1.7964  -37.0096 H   0  0  0  0  0  0  0  0  0  0  0  0
   -6.6768    2.4286  -38.5345 H   0  0  0  0  0  0  0  0  0  0  0  0
   -5.4656    3.9378  -39.3062 H   0  0  0  0  0  0  0  0  0  0  0  0
   -5.1478    5.6483  -39.1949 H   0  0  0  0  0  0  0  0  0  0  0  0
  1  2  1  0  0  0  0
  1  5  2  0  0  0  0
  2  3  2  0  0  0  0
  2  8  1  0  0  0  0
  3  6  1  0  0  0  0
  3  7  1  0  0  0  0
  4  6  1  0  0  0  0
  5  6  1  0  0  0  0
  1  9  1  0  0  0  0
  4 10  1  0  0  0  0
  4 11  1  0  0  0  0
  4 12  1  0  0  0  0
  7 13  1  0  0  0  0
  7 14  1  0  0  0  0
M  END
> <id>
EN300-1243662

> <smiles>
CN1N=CC(Cl)=C1N

> <MDLNUMBER>
MFCD19214209

> <IUPAC Name>
4-chloro-1-methyl-1H-pyrazol-5-amine

> <CAS>
105675-84-1

> <Purity>
95

> <URL>
https://www.enaminestore.com/catalog/EN300-1243662

> <ROCS_ShapeQuery>
_hit0

> <ROCS_TanimotoCombo>
1.009 

> <ROCS_ShapeTanimoto>
0.414 

> <ROCS_ColorTanimoto>
0.595 

> <ROCS_RefTversky>
1.103 

> <ROCS_RefColorTversky>
0.746 

> <ROCS_RefTverskyCombo>
1.849 

> <ROCS_FitTversky>
0.398 

> <ROCS_FitColorTversky>
0.746 

> <ROCS_FitTverskyCombo>
1.145 

> <ROCS_ColorScore>
-2.986

> <ROCS_Overlap>
132.645

> <ROCS_Rank>
348                 

$$$$
untitled-dbase-44267_0
  -OEChem-06232314393D

 14 14  0     0  0  0  0  0  0999 V2000
   -6.6496    5.1499  -35.4099 C   0  0  0  0  0  0  0  0  0  0  0  0
   -6.1128    5.7982  -36.5384 C   0  0  0  0  0  0  0  0  0  0  0  0
   -5.9864    4.8041  -37.4777 C   0  0  0  0  0  0  0  0  0  0  0  0
   -6.5126    2.3429  -37.4568 C   0  0  0  0  0  0  0  0  0  0  0  0
   -6.8505    3.8450  -35.6119 N   0  0  0  0  0  0  0  0  0  0  0  0
   -6.4379    3.6653  -36.8783 N   0  0  0  0  0  0  0  0  0  0  0  0
   -5.5345    4.8027  -38.7494 N   0  0  0  0  0  0  0  0  0  0  0  0
   -5.7262    7.4405  -36.6613 Cl  0  0  0  0  0  0  0  0  0  0  0  0
   -6.9040    5.5693  -34.4466 H   0  0  0  0  0  0  0  0  0  0  0  0
   -5.5682    1.8315  -37.2525 H   0  0  0  0  0  0  0  0  0  0  0  0
   -7.3477    1.7964  -37.0096 H   0  0  0  0  0  0  0  0  0  0  0  0
   -6.6768    2.4286  -38.5345 H   0  0  0  0  0  0  0  0  0  0  0  0
   -5.4656    3.9378  -39.3062 H   0  0  0  0  0  0  0  0  0  0  0  0
   -5.1478    5.6483  -39.1949 H   0  0  0  0  0  0  0  0  0  0  0  0
  1  2  1  0  0  0  0
  1  5  2  0  0  0  0
  2  3  2  0  0  0  0
  2  8  1  0  0  0  0
  3  6  1  0  0  0  0
  3  7  1  0  0  0  0
  4  6  1  0  0  0  0
  5  6  1  0  0  0  0
  1  9  1  0  0  0  0
  4 10  1  0  0  0  0
  4 11  1  0  0  0  0
  4 12  1  0  0  0  0
  7 13  1  0  0  0  0
  7 14  1  0  0  0  0
M  END
> <id>
EN300-27754817

> <smiles>
Cl.CN1N=CC(Cl)=C1N

> <MDLNUMBER>
MFCD33550622

> <IUPAC Name>
4-chloro-1-methyl-1H-pyrazol-5-amine hydrochloride

> <CAS>
2624130-21-6

> <Purity>
95

> <URL>
https://www.enaminestore.com/catalog/EN300-27754817

> <Saltdate>
Cl

> <ROCS_ShapeQuery>
_hit0

> <ROCS_TanimotoCombo>
1.009 

> <ROCS_ShapeTanimoto>
0.414 

> <ROCS_ColorTanimoto>
0.595 

> <ROCS_RefTversky>
1.103 

> <ROCS_RefColorTversky>
0.746 

> <ROCS_RefTverskyCombo>
1.849 

> <ROCS_FitTversky>
0.398 

> <ROCS_FitColorTversky>
0.746 

> <ROCS_FitTverskyCombo>
1.145 

> <ROCS_ColorScore>
-2.986

> <ROCS_Overlap>
132.645

> <ROCS_Rank>
349                 

$$$$
untitled-dbase-48094_0
  -OEChem-06232314393D

 13 13  0     0  0  0  0  0  0999 V2000
   -5.8358    6.1010  -36.7744 C   0  0  0  0  0  0  0  0  0  0  0  0
   -6.2603    6.1622  -35.4518 C   0  0  0  0  0  0  0  0  0  0  0  0
   -5.9323    4.9039  -37.4750 C   0  0  0  0  0  0  0  0  0  0  0  0
   -6.7699    5.0075  -34.8801 C   0  0  0  0  0  0  0  0  0  0  0  0
   -6.4563    3.8054  -36.8127 C   0  0  0  0  0  0  0  0  0  0  0  0
   -6.8792    3.8265  -35.5288 N   0  0  0  0  0  0  0  0  0  0  0  0
   -5.5100    4.8162  -38.8120 N   0  0  0  0  0  0  0  0  0  0  0  0
   -7.1835    5.0535  -33.6044 F   0  0  0  0  0  0  0  0  0  0  0  0
   -6.5583    2.6375  -37.4683 F   0  0  0  0  0  0  0  0  0  0  0  0
   -5.4315    6.9912  -37.2491 H   0  0  0  0  0  0  0  0  0  0  0  0
   -6.1942    7.0847  -34.8864 H   0  0  0  0  0  0  0  0  0  0  0  0
   -5.1785    5.6388  -39.2797 H   0  0  0  0  0  0  0  0  0  0  0  0
   -5.6322    3.9560  -39.3125 H   0  0  0  0  0  0  0  0  0  0  0  0
  1  2  1  0  0  0  0
  1  3  2  0  0  0  0
  2  4  2  0  0  0  0
  3  5  1  0  0  0  0
  3  7  1  0  0  0  0
  4  6  1  0  0  0  0
  4  8  1  0  0  0  0
  5  6  2  0  0  0  0
  5  9  1  0  0  0  0
  1 10  1  0  0  0  0
  2 11  1  0  0  0  0
  7 12  1  0  0  0  0
  7 13  1  0  0  0  0
M  END
> <id>
EN300-98251

> <smiles>
NC=1C=CC(F)=NC1F

> <MDLNUMBER>
MFCD13185331

> <IUPAC Name>
2,6-difluoropyridin-3-amine

> <CAS>
108118-69-0

> <Purity>
95

> <URL>
https://www.enaminestore.com/catalog/EN300-98251

> <MP>
58-60

> <ROCS_ShapeQuery>
_hit0

> <ROCS_TanimotoCombo>
1.008 

> <ROCS_ShapeTanimoto>
0.409 

> <ROCS_ColorTanimoto>
0.600 

> <ROCS_RefTversky>
1.196 

> <ROCS_RefColorTversky>
0.750 

> <ROCS_RefTverskyCombo>
1.946 

> <ROCS_FitTversky>
0.383 

> <ROCS_FitColorTversky>
0.750 

> <ROCS_FitTverskyCombo>
1.133 

> <ROCS_ColorScore>
-2.999

> <ROCS_Overlap>
147.102

> <ROCS_Rank>
350                 

$$$$
untitled-dbase-31847_0
  -OEChem-06232314393D

 20 20  0     1  0  0  0  0  0999 V2000
   -7.4365    3.6365  -37.9086 C   0  0  0  0  0  0  0  0  0  0  0  0
   -6.6995    5.8507  -36.9529 C   0  0  0  0  0  0  0  0  0  0  0  0
   -6.8172    2.9848  -36.6766 C   0  0  0  0  0  0  0  0  0  0  0  0
   -6.7981    4.9905  -38.2130 C   0  0  1  0  0  0  0  0  0  0  0  0
   -6.1142    5.0646  -35.7741 C   0  0  1  0  0  0  0  0  0  0  0  0
   -6.1672    5.8850  -34.4919 C   0  0  0  0  0  0  0  0  0  0  0  0
   -6.8670    3.8673  -35.5567 O   0  0  0  0  0  0  0  0  0  0  0  0
   -5.5043    4.8057  -38.7829 O   0  0  0  0  0  0  0  0  0  0  0  0
   -7.3390    2.9602  -38.7650 H   0  0  0  0  0  0  0  0  0  0  0  0
   -8.5053    3.7946  -37.7192 H   0  0  0  0  0  0  0  0  0  0  0  0
   -6.0877    6.7404  -37.1421 H   0  0  0  0  0  0  0  0  0  0  0  0
   -7.7116    6.1866  -36.6933 H   0  0  0  0  0  0  0  0  0  0  0  0
   -7.3771    2.0813  -36.4144 H   0  0  0  0  0  0  0  0  0  0  0  0
   -5.7786    2.6857  -36.8600 H   0  0  0  0  0  0  0  0  0  0  0  0
   -7.4105    5.5202  -38.9744 H   0  0  0  0  0  0  0  0  0  0  0  0
   -5.0705    4.7957  -35.9734 H   0  0  0  0  0  0  0  0  0  0  0  0
   -7.1972    6.1661  -34.2704 H   0  0  0  0  0  0  0  0  0  0  0  0
   -5.5703    6.7906  -34.6028 H   0  0  0  0  0  0  0  0  0  0  0  0
   -5.7733    5.3022  -33.6588 H   0  0  0  0  0  0  0  0  0  0  0  0
   -5.6335    4.2975  -39.5980 H   0  0  0  0  0  0  0  0  0  0  0  0
  1  3  1  0  0  0  0
  1  4  1  0  0  0  0
  2  4  1  0  0  0  0
  2  5  1  0  0  0  0
  3  7  1  0  0  0  0
  4  8  1  1  0  0  0
  5  6  1  6  0  0  0
  5  7  1  0  0  0  0
  1  9  1  0  0  0  0
  1 10  1  0  0  0  0
  2 11  1  0  0  0  0
  2 12  1  0  0  0  0
  3 13  1  0  0  0  0
  3 14  1  0  0  0  0
  4 15  1  0  0  0  0
  5 16  1  0  0  0  0
  6 17  1  0  0  0  0
  6 18  1  0  0  0  0
  6 19  1  0  0  0  0
  8 20  1  0  0  0  0
M  END
> <id>
EN300-26975886

> <smiles>
C[C@@H]1C[C@@H](O)CCO1 |&1:1,3,r|

> <IUPAC Name>
rac-(2R,4S)-2-methyloxan-4-ol

> <CAS>
55230-32-5

> <Purity>
95

> <URL>
https://www.enaminestore.com/catalog/EN300-26975886

> <ROCS_ShapeQuery>
_hit0

> <ROCS_TanimotoCombo>
1.008 

> <ROCS_ShapeTanimoto>
0.410 

> <ROCS_ColorTanimoto>
0.598 

> <ROCS_RefTversky>
1.057 

> <ROCS_RefColorTversky>
0.749 

> <ROCS_RefTverskyCombo>
1.806 

> <ROCS_FitTversky>
0.401 

> <ROCS_FitColorTversky>
0.749 

> <ROCS_FitTverskyCombo>
1.150 

> <ROCS_ColorScore>
-2.994

> <ROCS_Overlap>
126.110

> <ROCS_Rank>
351                 

$$$$
untitled-dbase-4584_0
  -OEChem-06232314393D

 11 10  0     0  0  0  0  0  0999 V2000
   -5.9916    5.3790  -36.5747 C   0  0  0  0  0  0  0  0  0  0  0  0
   -6.3742    6.2399  -35.8302 C   0  0  0  0  0  0  0  0  0  0  0  0
   -5.5250    4.3290  -37.4795 C   0  0  0  0  0  0  0  0  0  0  0  0
   -6.8365    7.2807  -34.9303 C   0  0  0  0  0  0  0  0  0  0  0  0
   -5.5200    4.8142  -38.8146 O   0  0  0  0  0  0  0  0  0  0  0  0
   -7.3231    8.3347  -35.6224 F   0  0  0  0  0  0  0  0  0  0  0  0
   -7.8191    6.8197  -34.1249 F   0  0  0  0  0  0  0  0  0  0  0  0
   -5.8277    7.7240  -34.1477 F   0  0  0  0  0  0  0  0  0  0  0  0
   -6.1822    3.4554  -37.4304 H   0  0  0  0  0  0  0  0  0  0  0  0
   -4.5087    4.0175  -37.2198 H   0  0  0  0  0  0  0  0  0  0  0  0
   -6.4338    5.0670  -39.0249 H   0  0  0  0  0  0  0  0  0  0  0  0
  1  2  3  0  0  0  0
  1  3  1  0  0  0  0
  2  4  1  0  0  0  0
  3  5  1  0  0  0  0
  4  6  1  0  0  0  0
  4  7  1  0  0  0  0
  4  8  1  0  0  0  0
  3  9  1  0  0  0  0
  3 10  1  0  0  0  0
  5 11  1  0  0  0  0
M  END
> <id>
EN300-188881

> <smiles>
OCC#CC(F)(F)F

> <MDLNUMBER>
MFCD11847391

> <IUPAC Name>
4,4,4-trifluorobut-2-yn-1-ol

> <CAS>
113439-92-2

> <Purity>
95

> <URL>
https://www.enaminestore.com/catalog/EN300-188881

> <ROCS_ShapeQuery>
_hit0

> <ROCS_TanimotoCombo>
1.008 

> <ROCS_ShapeTanimoto>
0.508 

> <ROCS_ColorTanimoto>
0.500 

> <ROCS_RefTversky>
1.228 

> <ROCS_RefColorTversky>
0.513 

> <ROCS_RefTverskyCombo>
1.740 

> <ROCS_FitTversky>
0.464 

> <ROCS_FitColorTversky>
0.952 

> <ROCS_FitTverskyCombo>
1.417 

> <ROCS_ColorScore>
-2.000

> <ROCS_Overlap>
146.522

> <ROCS_Rank>
352                 

$$$$
untitled-dbase-25051_3
  -OEChem-06232314393D

 23 23  0     1  0  0  0  0  0999 V2000
   -6.5492    4.6763  -35.3035 C   0  0  0  0  0  0  0  0  0  0  0  0
   -6.4956    4.5811  -36.6399 C   0  0  0  0  0  0  0  0  0  0  0  0
   -5.8388    5.7196  -34.4989 C   0  0  0  0  0  0  0  0  0  0  0  0
   -6.6890    6.9714  -34.2883 C   0  0  0  0  0  0  0  0  0  0  0  0
   -7.3205    7.5766  -35.5501 C   0  0  0  0  0  0  0  0  0  0  0  0
   -6.3447    7.8526  -36.6982 C   0  0  0  0  0  0  0  0  0  0  0  0
   -6.3667    6.8234  -37.8382 C   0  0  0  0  0  0  0  0  0  0  0  0
   -5.6934    5.4789  -37.5396 C   0  0  2  0  0  0  0  0  0  0  0  0
   -5.5131    4.8054  -38.7912 O   0  0  0  0  0  0  0  0  0  0  0  0
   -7.1574    3.9652  -34.7606 H   0  0  0  0  0  0  0  0  0  0  0  0
   -7.1160    3.8194  -37.1211 H   0  0  0  0  0  0  0  0  0  0  0  0
   -5.6199    5.2836  -33.5230 H   0  0  0  0  0  0  0  0  0  0  0  0
   -4.8772    5.9755  -34.9388 H   0  0  0  0  0  0  0  0  0  0  0  0
   -7.4669    6.7823  -33.5351 H   0  0  0  0  0  0  0  0  0  0  0  0
   -6.0331    7.7404  -33.8549 H   0  0  0  0  0  0  0  0  0  0  0  0
   -8.0478    6.8385  -35.9165 H   0  0  0  0  0  0  0  0  0  0  0  0
   -7.9050    8.4705  -35.3003 H   0  0  0  0  0  0  0  0  0  0  0  0
   -6.4908    8.8629  -37.0976 H   0  0  0  0  0  0  0  0  0  0  0  0
   -5.3261    7.8458  -36.2885 H   0  0  0  0  0  0  0  0  0  0  0  0
   -7.4083    6.6558  -38.1395 H   0  0  0  0  0  0  0  0  0  0  0  0
   -5.8842    7.2605  -38.7213 H   0  0  0  0  0  0  0  0  0  0  0  0
   -4.6868    5.6425  -37.1472 H   0  0  0  0  0  0  0  0  0  0  0  0
   -4.9950    5.4030  -39.3509 H   0  0  0  0  0  0  0  0  0  0  0  0
  1  2  2  0  0  0  0
  1  3  1  0  0  0  0
  2  8  1  0  0  0  0
  3  4  1  0  0  0  0
  4  5  1  0  0  0  0
  5  6  1  0  0  0  0
  6  7  1  0  0  0  0
  7  8  1  0  0  0  0
  8  9  1  0  0  0  0
  1 10  1  0  0  0  0
  2 11  1  0  0  0  0
  3 12  1  0  0  0  0
  3 13  1  0  0  0  0
  4 14  1  0  0  0  0
  4 15  1  0  0  0  0
  5 16  1  0  0  0  0
  5 17  1  0  0  0  0
  6 18  1  0  0  0  0
  6 19  1  0  0  0  0
  7 20  1  0  0  0  0
  7 21  1  0  0  0  0
  8 22  1  0  0  0  0
  9 23  1  0  0  0  0
M  END
> <id>
EN300-6763399

> <smiles>
OC/1CCCCC/C=C1

> <IUPAC Name>
(2Z)-cyclooct-2-en-1-ol

> <CAS>
3212-75-7

> <Purity>
95

> <URL>
https://www.enaminestore.com/catalog/EN300-6763399

> <ROCS_ShapeQuery>
_hit0

> <ROCS_TanimotoCombo>
1.008 

> <ROCS_ShapeTanimoto>
0.508 

> <ROCS_ColorTanimoto>
0.500 

> <ROCS_RefTversky>
1.296 

> <ROCS_RefColorTversky>
0.513 

> <ROCS_RefTverskyCombo>
1.808 

> <ROCS_FitTversky>
0.455 

> <ROCS_FitColorTversky>
0.952 

> <ROCS_FitTverskyCombo>
1.408 

> <ROCS_ColorScore>
-2.000

> <ROCS_Overlap>
156.591

> <ROCS_Rank>
353                 

$$$$
untitled-dbase-4778_3
  -OEChem-06232314393D

 23 23  0     1  0  0  0  0  0999 V2000
   -6.5492    4.6763  -35.3035 C   0  0  0  0  0  0  0  0  0  0  0  0
   -6.4956    4.5811  -36.6399 C   0  0  0  0  0  0  0  0  0  0  0  0
   -5.8388    5.7196  -34.4989 C   0  0  0  0  0  0  0  0  0  0  0  0
   -6.6890    6.9714  -34.2883 C   0  0  0  0  0  0  0  0  0  0  0  0
   -7.3205    7.5766  -35.5501 C   0  0  0  0  0  0  0  0  0  0  0  0
   -6.3447    7.8526  -36.6982 C   0  0  0  0  0  0  0  0  0  0  0  0
   -6.3667    6.8234  -37.8382 C   0  0  0  0  0  0  0  0  0  0  0  0
   -5.6934    5.4789  -37.5396 C   0  0  2  0  0  0  0  0  0  0  0  0
   -5.5131    4.8054  -38.7912 O   0  0  0  0  0  0  0  0  0  0  0  0
   -7.1573    3.9651  -34.7606 H   0  0  0  0  0  0  0  0  0  0  0  0
   -7.1160    3.8195  -37.1211 H   0  0  0  0  0  0  0  0  0  0  0  0
   -5.6199    5.2836  -33.5231 H   0  0  0  0  0  0  0  0  0  0  0  0
   -4.8773    5.9755  -34.9389 H   0  0  0  0  0  0  0  0  0  0  0  0
   -7.4669    6.7822  -33.5351 H   0  0  0  0  0  0  0  0  0  0  0  0
   -6.0331    7.7404  -33.8549 H   0  0  0  0  0  0  0  0  0  0  0  0
   -8.0477    6.8385  -35.9166 H   0  0  0  0  0  0  0  0  0  0  0  0
   -7.9051    8.4705  -35.3004 H   0  0  0  0  0  0  0  0  0  0  0  0
   -6.4909    8.8628  -37.0976 H   0  0  0  0  0  0  0  0  0  0  0  0
   -5.3261    7.8459  -36.2885 H   0  0  0  0  0  0  0  0  0  0  0  0
   -7.4083    6.6559  -38.1396 H   0  0  0  0  0  0  0  0  0  0  0  0
   -5.8841    7.2604  -38.7213 H   0  0  0  0  0  0  0  0  0  0  0  0
   -4.6867    5.6425  -37.1473 H   0  0  0  0  0  0  0  0  0  0  0  0
   -4.9950    5.4030  -39.3508 H   0  0  0  0  0  0  0  0  0  0  0  0
  1  2  2  3  0  0  0
  1  3  1  0  0  0  0
  2  8  1  0  0  0  0
  3  4  1  0  0  0  0
  4  5  1  0  0  0  0
  5  6  1  0  0  0  0
  6  7  1  0  0  0  0
  7  8  1  0  0  0  0
  8  9  1  0  0  0  0
  1 10  1  0  0  0  0
  2 11  1  0  0  0  0
  3 12  1  0  0  0  0
  3 13  1  0  0  0  0
  4 14  1  0  0  0  0
  4 15  1  0  0  0  0
  5 16  1  0  0  0  0
  5 17  1  0  0  0  0
  6 18  1  0  0  0  0
  6 19  1  0  0  0  0
  7 20  1  0  0  0  0
  7 21  1  0  0  0  0
  8 22  1  0  0  0  0
  9 23  1  0  0  0  0
M  END
> <id>
EN300-109122

> <smiles>
OC1CCCCCC=C1

> <MDLNUMBER>
MFCD00128153

> <IUPAC Name>
cyclooct-2-en-1-ol

> <CAS>
3212-75-7

> <URL>
https://www.enaminestore.com/catalog/EN300-109122

> <ROCS_ShapeQuery>
_hit0

> <ROCS_TanimotoCombo>
1.008 

> <ROCS_ShapeTanimoto>
0.508 

> <ROCS_ColorTanimoto>
0.500 

> <ROCS_RefTversky>
1.296 

> <ROCS_RefColorTversky>
0.513 

> <ROCS_RefTverskyCombo>
1.808 

> <ROCS_FitTversky>
0.455 

> <ROCS_FitColorTversky>
0.952 

> <ROCS_FitTverskyCombo>
1.408 

> <ROCS_ColorScore>
-2.000

> <ROCS_Overlap>
156.591

> <ROCS_Rank>
354                 

$$$$
untitled-dbase-3418_0
  -OEChem-06232314393D

 15 15  0     0  0  0  0  0  0999 V2000
   -6.9073    3.4318  -35.6128 C   0  0  0  0  0  0  0  0  0  0  0  0
   -6.4436    3.5302  -36.9246 C   0  0  0  0  0  0  0  0  0  0  0  0
   -6.9139    4.5576  -34.7891 C   0  0  0  0  0  0  0  0  0  0  0  0
   -5.9929    5.8800  -36.5891 C   0  0  0  0  0  0  0  0  0  0  0  0
   -5.9864    4.7543  -37.4128 C   0  0  0  0  0  0  0  0  0  0  0  0
   -6.4567    5.7816  -35.2773 C   0  0  0  0  0  0  0  0  0  0  0  0
   -5.5164    4.8534  -38.7389 N   0  0  0  0  0  0  0  0  0  0  0  0
   -6.4634    6.8799  -34.4734 O   0  0  0  0  0  0  0  0  0  0  0  0
   -7.2631    2.4787  -35.2326 H   0  0  0  0  0  0  0  0  0  0  0  0
   -6.4416    2.6463  -37.5574 H   0  0  0  0  0  0  0  0  0  0  0  0
   -7.2770    4.4748  -33.7684 H   0  0  0  0  0  0  0  0  0  0  0  0
   -5.6373    6.8365  -36.9651 H   0  0  0  0  0  0  0  0  0  0  0  0
   -5.2357    5.7460  -39.0915 H   0  0  0  0  0  0  0  0  0  0  0  0
   -5.5602    4.0503  -39.3331 H   0  0  0  0  0  0  0  0  0  0  0  0
   -6.1179    7.6498  -34.9528 H   0  0  0  0  0  0  0  0  0  0  0  0
  1  2  1  0  0  0  0
  1  3  2  0  0  0  0
  2  5  2  0  0  0  0
  3  6  1  0  0  0  0
  4  5  1  0  0  0  0
  4  6  2  0  0  0  0
  5  7  1  0  0  0  0
  6  8  1  0  0  0  0
  1  9  1  0  0  0  0
  2 10  1  0  0  0  0
  3 11  1  0  0  0  0
  4 12  1  0  0  0  0
  7 13  1  0  0  0  0
  7 14  1  0  0  0  0
  8 15  1  0  0  0  0
M  END
> <id>
EN300-19292

> <smiles>
NC=1C=CC=C(O)C1

> <MDLNUMBER>
MFCD00007786

> <IUPAC Name>
3-aminophenol

> <CAS>
591-27-5

> <Purity>
95

> <URL>
https://www.enaminestore.com/catalog/EN300-19292

> <MP>
121-123

> <ROCS_ShapeQuery>
_hit0

> <ROCS_TanimotoCombo>
1.008 

> <ROCS_ShapeTanimoto>
0.516 

> <ROCS_ColorTanimoto>
0.492 

> <ROCS_RefTversky>
1.279 

> <ROCS_RefColorTversky>
0.733 

> <ROCS_RefTverskyCombo>
2.012 

> <ROCS_FitTversky>
0.464 

> <ROCS_FitColorTversky>
0.599 

> <ROCS_FitTverskyCombo>
1.063 

> <ROCS_ColorScore>
-2.967

> <ROCS_Overlap>
153.734

> <ROCS_Rank>
355                 

$$$$
untitled-dbase-20005_0
  -OEChem-06232314393D

 12 12  0     0  0  0  0  0  0999 V2000
   -5.8675    6.1132  -36.8243 C   0  0  0  0  0  0  0  0  0  0  0  0
   -6.3039    6.1831  -35.5060 C   0  0  0  0  0  0  0  0  0  0  0  0
   -5.9335    4.9052  -37.5095 C   0  0  0  0  0  0  0  0  0  0  0  0
   -6.7939    5.0257  -34.9229 C   0  0  0  0  0  0  0  0  0  0  0  0
   -6.4400    3.8049  -36.8366 C   0  0  0  0  0  0  0  0  0  0  0  0
   -6.8735    3.8342  -35.5565 N   0  0  0  0  0  0  0  0  0  0  0  0
   -5.5144    4.8103  -38.7958 O   0  0  0  0  0  0  0  0  0  0  0  0
   -7.2185    5.0799  -33.6510 F   0  0  0  0  0  0  0  0  0  0  0  0
   -6.5114    2.6293  -37.4814 F   0  0  0  0  0  0  0  0  0  0  0  0
   -5.4772    7.0021  -37.3119 H   0  0  0  0  0  0  0  0  0  0  0  0
   -6.2616    7.1142  -34.9527 H   0  0  0  0  0  0  0  0  0  0  0  0
   -5.6277    3.9028  -39.1256 H   0  0  0  0  0  0  0  0  0  0  0  0
  1  2  1  0  0  0  0
  1  3  2  0  0  0  0
  2  4  2  0  0  0  0
  3  5  1  0  0  0  0
  3  7  1  0  0  0  0
  4  6  1  0  0  0  0
  4  8  1  0  0  0  0
  5  6  2  0  0  0  0
  5  9  1  0  0  0  0
  1 10  1  0  0  0  0
  2 11  1  0  0  0  0
  7 12  1  0  0  0  0
M  END
> <id>
EN300-3199006

> <smiles>
OC=1C=CC(F)=NC1F

> <MDLNUMBER>
MFCD11044351

> <IUPAC Name>
2,6-difluoropyridin-3-ol

> <CAS>
209328-85-8

> <Purity>
95

> <URL>
https://www.enaminestore.com/catalog/EN300-3199006

> <MP>
122-125

> <ROCS_ShapeQuery>
_hit0

> <ROCS_TanimotoCombo>
1.007 

> <ROCS_ShapeTanimoto>
0.408 

> <ROCS_ColorTanimoto>
0.600 

> <ROCS_RefTversky>
1.198 

> <ROCS_RefColorTversky>
0.750 

> <ROCS_RefTverskyCombo>
1.948 

> <ROCS_FitTversky>
0.382 

> <ROCS_FitColorTversky>
0.750 

> <ROCS_FitTverskyCombo>
1.132 

> <ROCS_ColorScore>
-2.999

> <ROCS_Overlap>
147.408

> <ROCS_Rank>
356                 

$$$$
untitled-dbase-49854_0
  -OEChem-06232314393D

 14 14  0     0  0  0  0  0  0999 V2000
   -6.4822    3.6026  -36.8442 C   0  0  0  0  0  0  0  0  0  0  0  0
   -6.0581    5.7472  -36.6074 C   0  0  0  0  0  0  0  0  0  0  0  0
   -5.9792    4.7278  -37.5245 C   0  0  0  0  0  0  0  0  0  0  0  0
   -6.8533    5.8733  -34.2340 C   0  0  0  0  0  0  0  0  0  0  0  0
   -6.8530    3.8807  -35.5915 N   0  0  0  0  0  0  0  0  0  0  0  0
   -6.5828    5.1922  -35.4774 N   0  0  0  0  0  0  0  0  0  0  0  0
   -5.5218    4.7970  -38.7888 N   0  0  0  0  0  0  0  0  0  0  0  0
   -6.5288    7.1962  -34.2635 F   0  0  0  0  0  0  0  0  0  0  0  0
   -6.1574    5.3409  -33.1918 F   0  0  0  0  0  0  0  0  0  0  0  0
   -8.1653    5.8282  -33.8697 F   0  0  0  0  0  0  0  0  0  0  0  0
   -6.5960    2.5904  -37.2059 H   0  0  0  0  0  0  0  0  0  0  0  0
   -5.7920    6.7944  -36.6597 H   0  0  0  0  0  0  0  0  0  0  0  0
   -5.4539    3.9655  -39.3975 H   0  0  0  0  0  0  0  0  0  0  0  0
   -5.1267    5.6647  -39.1859 H   0  0  0  0  0  0  0  0  0  0  0  0
  1  3  1  0  0  0  0
  1  5  2  0  0  0  0
  2  3  2  0  0  0  0
  2  6  1  0  0  0  0
  3  7  1  0  0  0  0
  4  6  1  0  0  0  0
  4  8  1  0  0  0  0
  4  9  1  0  0  0  0
  4 10  1  0  0  0  0
  5  6  1  0  0  0  0
  1 11  1  0  0  0  0
  2 12  1  0  0  0  0
  7 13  1  0  0  0  0
  7 14  1  0  0  0  0
M  END
> <id>
EN300-7425419

> <smiles>
Cl.NC=1C=NN(C1)C(F)(F)F

> <MDLNUMBER>
MFCD32066054

> <IUPAC Name>
1-(trifluoromethyl)-1H-pyrazol-4-amine hydrochloride

> <CAS>
2361644-76-8

> <Purity>
95

> <URL>
https://www.enaminestore.com/catalog/EN300-7425419

> <Saltdate>
Cl

> <ROCS_ShapeQuery>
_hit0

> <ROCS_TanimotoCombo>
1.007 

> <ROCS_ShapeTanimoto>
0.410 

> <ROCS_ColorTanimoto>
0.597 

> <ROCS_RefTversky>
1.307 

> <ROCS_RefColorTversky>
0.747 

> <ROCS_RefTverskyCombo>
2.055 

> <ROCS_FitTversky>
0.374 

> <ROCS_FitColorTversky>
0.747 

> <ROCS_FitTverskyCombo>
1.122 

> <ROCS_ColorScore>
-2.990

> <ROCS_Overlap>
164.592

> <ROCS_Rank>
357                 

$$$$
untitled-dbase-29818_0
  -OEChem-06232314393D

 14 14  0     0  0  0  0  0  0999 V2000
   -6.4822    3.6026  -36.8442 C   0  0  0  0  0  0  0  0  0  0  0  0
   -6.0581    5.7472  -36.6074 C   0  0  0  0  0  0  0  0  0  0  0  0
   -5.9792    4.7278  -37.5245 C   0  0  0  0  0  0  0  0  0  0  0  0
   -6.8533    5.8733  -34.2340 C   0  0  0  0  0  0  0  0  0  0  0  0
   -6.8530    3.8807  -35.5915 N   0  0  0  0  0  0  0  0  0  0  0  0
   -6.5828    5.1922  -35.4774 N   0  0  0  0  0  0  0  0  0  0  0  0
   -5.5218    4.7970  -38.7888 N   0  0  0  0  0  0  0  0  0  0  0  0
   -6.5288    7.1962  -34.2635 F   0  0  0  0  0  0  0  0  0  0  0  0
   -6.1574    5.3409  -33.1918 F   0  0  0  0  0  0  0  0  0  0  0  0
   -8.1653    5.8282  -33.8697 F   0  0  0  0  0  0  0  0  0  0  0  0
   -6.5960    2.5904  -37.2059 H   0  0  0  0  0  0  0  0  0  0  0  0
   -5.7920    6.7944  -36.6597 H   0  0  0  0  0  0  0  0  0  0  0  0
   -5.4539    3.9655  -39.3975 H   0  0  0  0  0  0  0  0  0  0  0  0
   -5.1267    5.6647  -39.1859 H   0  0  0  0  0  0  0  0  0  0  0  0
  1  3  1  0  0  0  0
  1  5  2  0  0  0  0
  2  3  2  0  0  0  0
  2  6  1  0  0  0  0
  3  7  1  0  0  0  0
  4  6  1  0  0  0  0
  4  8  1  0  0  0  0
  4  9  1  0  0  0  0
  4 10  1  0  0  0  0
  5  6  1  0  0  0  0
  1 11  1  0  0  0  0
  2 12  1  0  0  0  0
  7 13  1  0  0  0  0
  7 14  1  0  0  0  0
M  END
> <id>
EN300-7425420

> <smiles>
NC=1C=NN(C1)C(F)(F)F

> <MDLNUMBER>
MFCD28013139

> <IUPAC Name>
1-(trifluoromethyl)-1H-pyrazol-4-amine

> <CAS>
1706447-99-5

> <URL>
https://www.enaminestore.com/catalog/EN300-7425420

> <ROCS_ShapeQuery>
_hit0

> <ROCS_TanimotoCombo>
1.007 

> <ROCS_ShapeTanimoto>
0.410 

> <ROCS_ColorTanimoto>
0.597 

> <ROCS_RefTversky>
1.307 

> <ROCS_RefColorTversky>
0.747 

> <ROCS_RefTverskyCombo>
2.055 

> <ROCS_FitTversky>
0.374 

> <ROCS_FitColorTversky>
0.747 

> <ROCS_FitTverskyCombo>
1.122 

> <ROCS_ColorScore>
-2.990

> <ROCS_Overlap>
164.592

> <ROCS_Rank>
358                 

$$$$
untitled-dbase-20940_0
  -OEChem-06232314393D

 16 16  0     0  0  0  0  0  0999 V2000
   -6.5677    5.1374  -35.4087 C   0  0  0  0  0  0  0  0  0  0  0  0
   -6.0177    5.7763  -36.5362 C   0  0  0  0  0  0  0  0  0  0  0  0
   -5.9617    4.7937  -37.4943 C   0  0  0  0  0  0  0  0  0  0  0  0
   -5.5976    7.1820  -36.6579 C   0  0  0  0  0  0  0  0  0  0  0  0
   -6.6097    2.3668  -37.5110 C   0  0  0  0  0  0  0  0  0  0  0  0
   -6.8417    3.8488  -35.6287 N   0  0  0  0  0  0  0  0  0  0  0  0
   -6.4624    3.6700  -36.9055 N   0  0  0  0  0  0  0  0  0  0  0  0
   -5.5393    4.7983  -38.7505 O   0  0  0  0  0  0  0  0  0  0  0  0
   -6.7814    5.5547  -34.4350 H   0  0  0  0  0  0  0  0  0  0  0  0
   -4.5386    7.3101  -36.3746 H   0  0  0  0  0  0  0  0  0  0  0  0
   -5.7145    7.5653  -37.6875 H   0  0  0  0  0  0  0  0  0  0  0  0
   -6.1963    7.8537  -36.0166 H   0  0  0  0  0  0  0  0  0  0  0  0
   -5.6892    1.8054  -37.3312 H   0  0  0  0  0  0  0  0  0  0  0  0
   -7.4649    1.8522  -37.0641 H   0  0  0  0  0  0  0  0  0  0  0  0
   -6.7836    2.4846  -38.5843 H   0  0  0  0  0  0  0  0  0  0  0  0
   -5.2077    5.6815  -39.0284 H   0  0  0  0  0  0  0  0  0  0  0  0
  1  2  1  0  0  0  0
  1  6  2  0  0  0  0
  2  3  2  0  0  0  0
  2  4  1  0  0  0  0
  3  7  1  0  0  0  0
  3  8  1  0  0  0  0
  5  7  1  0  0  0  0
  6  7  1  0  0  0  0
  1  9  1  0  0  0  0
  4 10  1  0  0  0  0
  4 11  1  0  0  0  0
  4 12  1  0  0  0  0
  5 13  1  0  0  0  0
  5 14  1  0  0  0  0
  5 15  1  0  0  0  0
  8 16  1  0  0  0  0
M  END
> <id>
EN300-1776255

> <smiles>
CC=1C=NN(C)C1O

> <MDLNUMBER>
MFCD30312601

> <IUPAC Name>
1,4-dimethyl-1H-pyrazol-5-ol

> <CAS>
33641-19-9

> <Purity>
95

> <URL>
https://www.enaminestore.com/catalog/EN300-1776255

> <MP>
130-132

> <ROCS_ShapeQuery>
_hit0

> <ROCS_TanimotoCombo>
1.007 

> <ROCS_ShapeTanimoto>
0.413 

> <ROCS_ColorTanimoto>
0.594 

> <ROCS_RefTversky>
1.116 

> <ROCS_RefColorTversky>
0.745 

> <ROCS_RefTverskyCombo>
1.861 

> <ROCS_FitTversky>
0.396 

> <ROCS_FitColorTversky>
0.745 

> <ROCS_FitTverskyCombo>
1.141 

> <ROCS_ColorScore>
-2.982

> <ROCS_Overlap>
134.578

> <ROCS_Rank>
359                 

$$$$
untitled-dbase-57_0
  -OEChem-06232314393D

  9  9  0     0  0  0  0  0  0999 V2000
   -6.6064    5.1595  -35.1840 C   0  0  0  0  0  0  0  0  0  0  0  0
   -5.9986    4.7337  -37.4237 C   0  0  0  0  0  0  0  0  0  0  0  0
   -6.8618    3.9159  -35.5307 N   0  0  0  0  0  0  0  0  0  0  0  0
   -6.5043    3.6659  -36.8441 N   0  0  0  0  0  0  0  0  0  0  0  0
   -5.5558    4.7891  -38.7062 N   0  0  0  0  0  0  0  0  0  0  0  0
   -5.9156    6.1239  -36.4228 S   0  0  0  0  0  0  0  0  0  0  0  0
   -6.8162    5.5450  -34.1961 H   0  0  0  0  0  0  0  0  0  0  0  0
   -5.2134    5.6628  -39.1224 H   0  0  0  0  0  0  0  0  0  0  0  0
   -5.6330    3.9848  -39.3395 H   0  0  0  0  0  0  0  0  0  0  0  0
  1  3  2  0  0  0  0
  1  6  1  0  0  0  0
  2  4  2  0  0  0  0
  2  5  1  0  0  0  0
  2  6  1  0  0  0  0
  3  4  1  0  0  0  0
  1  7  1  0  0  0  0
  5  8  1  0  0  0  0
  5  9  1  0  0  0  0
M  END
> <id>
EN300-17228

> <smiles>
NC1=NN=CS1

> <MDLNUMBER>
MFCD00003107

> <IUPAC Name>
1,3,4-thiadiazol-2-amine

> <CAS>
4005-51-0

> <Purity>
95

> <URL>
https://www.enaminestore.com/catalog/EN300-17228

> <MP>
190-192

> <ROCS_ShapeQuery>
_hit0

> <ROCS_TanimotoCombo>
1.007 

> <ROCS_ShapeTanimoto>
0.501 

> <ROCS_ColorTanimoto>
0.505 

> <ROCS_RefTversky>
1.021 

> <ROCS_RefColorTversky>
0.768 

> <ROCS_RefTverskyCombo>
1.789 

> <ROCS_FitTversky>
0.496 

> <ROCS_FitColorTversky>
0.596 

> <ROCS_FitTverskyCombo>
1.092 

> <ROCS_ColorScore>
-3.122

> <ROCS_Overlap>
117.657

> <ROCS_Rank>
360                 

$$$$
untitled-dbase-19316_0
  -OEChem-06232314393D

 12 12  0     0  0  0  0  0  0999 V2000
   -6.4117    3.2029  -37.5107 C   0  0  0  0  0  0  0  0  0  0  0  0
   -6.9178    2.8908  -36.2592 C   0  0  0  0  0  0  0  0  0  0  0  0
   -5.9623    4.5010  -37.7258 C   0  0  0  0  0  0  0  0  0  0  0  0
   -6.0318    5.4342  -36.6974 C   0  0  0  0  0  0  0  0  0  0  0  0
   -6.5552    5.0223  -35.4823 C   0  0  0  0  0  0  0  0  0  0  0  0
   -7.0015    3.7702  -35.2358 N   0  0  0  0  0  0  0  0  0  0  0  0
   -5.4567    4.8554  -38.9379 O   0  0  0  0  0  0  0  0  0  0  0  0
   -5.6039    6.6897  -36.8835 F   0  0  0  0  0  0  0  0  0  0  0  0
   -6.6825    6.1021  -34.1541 Cl  0  0  0  0  0  0  0  0  0  0  0  0
   -6.3698    2.4547  -38.2945 H   0  0  0  0  0  0  0  0  0  0  0  0
   -7.2815    1.8921  -36.0408 H   0  0  0  0  0  0  0  0  0  0  0  0
   -5.1874    5.7880  -38.9313 H   0  0  0  0  0  0  0  0  0  0  0  0
  1  2  1  0  0  0  0
  1  3  2  0  0  0  0
  2  6  2  0  0  0  0
  3  4  1  0  0  0  0
  3  7  1  0  0  0  0
  4  5  2  0  0  0  0
  4  8  1  0  0  0  0
  5  6  1  0  0  0  0
  5  9  1  0  0  0  0
  1 10  1  0  0  0  0
  2 11  1  0  0  0  0
  7 12  1  0  0  0  0
M  END
> <id>
EN300-256399

> <smiles>
OC=1C=CN=C(Cl)C1F

> <MDLNUMBER>
MFCD13189885

> <IUPAC Name>
2-chloro-3-fluoropyridin-4-ol

> <CAS>
1184172-46-0

> <Purity>
95

> <URL>
https://www.enaminestore.com/catalog/EN300-256399

> <ROCS_ShapeQuery>
_hit0

> <ROCS_TanimotoCombo>
1.006 

> <ROCS_ShapeTanimoto>
0.453 

> <ROCS_ColorTanimoto>
0.554 

> <ROCS_RefTversky>
1.266 

> <ROCS_RefColorTversky>
0.713 

> <ROCS_RefTverskyCombo>
1.978 

> <ROCS_FitTversky>
0.413 

> <ROCS_FitColorTversky>
0.713 

> <ROCS_FitTverskyCombo>
1.126 

> <ROCS_ColorScore>
-2.851

> <ROCS_Overlap>
155.015

> <ROCS_Rank>
361                 

$$$$
untitled-dbase-6207_0
  -OEChem-06232314393D

 11 11  0     0  0  0  0  0  0999 V2000
   -5.9547    5.8615  -36.7391 C   0  0  0  0  0  0  0  0  0  0  0  0
   -5.9616    4.7413  -37.5514 C   0  0  0  0  0  0  0  0  0  0  0  0
   -6.4310    5.7280  -35.4504 C   0  0  0  0  0  0  0  0  0  0  0  0
   -6.4441    3.5616  -37.0212 C   0  0  0  0  0  0  0  0  0  0  0  0
   -6.8974    4.5609  -34.9578 N   0  0  0  0  0  0  0  0  0  0  0  0
   -6.9038    3.4598  -35.7562 N   0  0  0  0  0  0  0  0  0  0  0  0
   -5.5025    4.8259  -38.8265 O   0  0  0  0  0  0  0  0  0  0  0  0
   -6.4689    7.0489  -34.3613 Cl  0  0  0  0  0  0  0  0  0  0  0  0
   -6.5065    2.1011  -37.9194 Cl  0  0  0  0  0  0  0  0  0  0  0  0
   -5.5853    6.8123  -37.1099 H   0  0  0  0  0  0  0  0  0  0  0  0
   -5.5702    3.9639  -39.2697 H   0  0  0  0  0  0  0  0  0  0  0  0
  1  2  2  0  0  0  0
  1  3  1  0  0  0  0
  2  4  1  0  0  0  0
  2  7  1  0  0  0  0
  3  5  2  0  0  0  0
  3  8  1  0  0  0  0
  4  6  2  0  0  0  0
  4  9  1  0  0  0  0
  5  6  1  0  0  0  0
  1 10  1  0  0  0  0
  7 11  1  0  0  0  0
M  END
> <id>
EN300-122918

> <smiles>
OC=1C=C(Cl)N=NC1Cl

> <MDLNUMBER>
MFCD04971276

> <IUPAC Name>
3,6-dichloropyridazin-4-ol

> <CAS>
2779-81-9

> <Purity>
95

> <URL>
https://www.enaminestore.com/catalog/EN300-122918

> <MP>
199-200

> <ROCS_ShapeQuery>
_hit0

> <ROCS_TanimotoCombo>
1.006 

> <ROCS_ShapeTanimoto>
0.471 

> <ROCS_ColorTanimoto>
0.535 

> <ROCS_RefTversky>
1.278 

> <ROCS_RefColorTversky>
0.799 

> <ROCS_RefTverskyCombo>
2.076 

> <ROCS_FitTversky>
0.427 

> <ROCS_FitColorTversky>
0.619 

> <ROCS_FitTverskyCombo>
1.046 

> <ROCS_ColorScore>
-3.247

> <ROCS_Overlap>
155.822

> <ROCS_Rank>
362                 

$$$$
untitled-dbase-6193_0
  -OEChem-06232314393D

 11 11  0     0  0  0  0  0  0999 V2000
   -5.9547    5.8615  -36.7391 C   0  0  0  0  0  0  0  0  0  0  0  0
   -5.9616    4.7413  -37.5514 C   0  0  0  0  0  0  0  0  0  0  0  0
   -6.4310    5.7280  -35.4504 C   0  0  0  0  0  0  0  0  0  0  0  0
   -6.4441    3.5616  -37.0212 C   0  0  0  0  0  0  0  0  0  0  0  0
   -6.8974    4.5609  -34.9578 N   0  0  0  0  0  0  0  0  0  0  0  0
   -6.9038    3.4598  -35.7562 N   0  0  0  0  0  0  0  0  0  0  0  0
   -5.5025    4.8259  -38.8265 O   0  0  0  0  0  0  0  0  0  0  0  0
   -6.4689    7.0489  -34.3613 Cl  0  0  0  0  0  0  0  0  0  0  0  0
   -6.5065    2.1011  -37.9194 Cl  0  0  0  0  0  0  0  0  0  0  0  0
   -5.5853    6.8123  -37.1099 H   0  0  0  0  0  0  0  0  0  0  0  0
   -5.5702    3.9639  -39.2697 H   0  0  0  0  0  0  0  0  0  0  0  0
  1  2  2  0  0  0  0
  1  3  1  0  0  0  0
  2  4  1  0  0  0  0
  2  7  1  0  0  0  0
  3  5  2  0  0  0  0
  3  8  1  0  0  0  0
  4  6  2  0  0  0  0
  4  9  1  0  0  0  0
  5  6  1  0  0  0  0
  1 10  1  0  0  0  0
  7 11  1  0  0  0  0
M  END
> <id>
EN300-244513

> <smiles>
Cl.OC=1C=C(Cl)N=NC1Cl

> <MDLNUMBER>
MFCD26523215

> <IUPAC Name>
3,6-dichloropyridazin-4-ol hydrochloride

> <CAS>
1955519-50-2

> <URL>
https://www.enaminestore.com/catalog/EN300-244513

> <Saltdate>
Cl

> <ROCS_ShapeQuery>
_hit0

> <ROCS_TanimotoCombo>
1.006 

> <ROCS_ShapeTanimoto>
0.471 

> <ROCS_ColorTanimoto>
0.535 

> <ROCS_RefTversky>
1.278 

> <ROCS_RefColorTversky>
0.799 

> <ROCS_RefTverskyCombo>
2.076 

> <ROCS_FitTversky>
0.427 

> <ROCS_FitColorTversky>
0.619 

> <ROCS_FitTverskyCombo>
1.046 

> <ROCS_ColorScore>
-3.247

> <ROCS_Overlap>
155.822

> <ROCS_Rank>
363                 

$$$$
untitled-dbase-44958_0
  -OEChem-06232314393D

 13 13  0     0  0  0  0  0  0999 V2000
   -6.4941    5.1182  -35.5087 C   0  0  0  0  0  0  0  0  0  0  0  0
   -6.5375    3.5247  -36.8806 C   0  0  0  0  0  0  0  0  0  0  0  0
   -5.9947    4.6083  -37.5254 C   0  0  0  0  0  0  0  0  0  0  0  0
   -6.7856    2.1694  -37.3932 C   0  0  0  0  0  0  0  0  0  0  0  0
   -6.8553    3.8575  -35.5886 N   0  0  0  0  0  0  0  0  0  0  0  0
   -5.5250    4.8108  -38.7716 N   0  0  0  0  0  0  0  0  0  0  0  0
   -5.9620    5.6469  -36.6446 O   0  0  0  0  0  0  0  0  0  0  0  0
   -6.5698    5.7794  -34.6586 H   0  0  0  0  0  0  0  0  0  0  0  0
   -5.9153    1.5099  -37.2273 H   0  0  0  0  0  0  0  0  0  0  0  0
   -7.6584    1.6915  -36.9112 H   0  0  0  0  0  0  0  0  0  0  0  0
   -7.0020    2.1639  -38.4776 H   0  0  0  0  0  0  0  0  0  0  0  0
   -5.4756    4.0538  -39.4718 H   0  0  0  0  0  0  0  0  0  0  0  0
   -5.1032    5.7069  -39.0625 H   0  0  0  0  0  0  0  0  0  0  0  0
  1  5  2  0  0  0  0
  1  7  1  0  0  0  0
  2  3  2  0  0  0  0
  2  4  1  0  0  0  0
  2  5  1  0  0  0  0
  3  6  1  0  0  0  0
  3  7  1  0  0  0  0
  1  8  1  0  0  0  0
  4  9  1  0  0  0  0
  4 10  1  0  0  0  0
  4 11  1  0  0  0  0
  6 12  1  0  0  0  0
  6 13  1  0  0  0  0
M  END
> <id>
EN300-7579505

> <smiles>
CC=1N=COC1N

> <MDLNUMBER>
MFCD11878425

> <IUPAC Name>
4-methyl-1,3-oxazol-5-amine

> <CAS>
751436-72-3

> <URL>
https://www.enaminestore.com/catalog/EN300-7579505

> <ROCS_ShapeQuery>
_hit0

> <ROCS_TanimotoCombo>
1.006 

> <ROCS_ShapeTanimoto>
0.409 

> <ROCS_ColorTanimoto>
0.597 

> <ROCS_RefTversky>
1.022 

> <ROCS_RefColorTversky>
0.748 

> <ROCS_RefTverskyCombo>
1.770 

> <ROCS_FitTversky>
0.405 

> <ROCS_FitColorTversky>
0.748 

> <ROCS_FitTverskyCombo>
1.153 

> <ROCS_ColorScore>
-2.992

> <ROCS_Overlap>
121.082

> <ROCS_Rank>
364                 

$$$$
untitled-dbase-3490_0
  -OEChem-06232314393D

 12 12  0     0  0  0  0  0  0999 V2000
   -5.9923    5.8812  -36.7209 C   0  0  0  0  0  0  0  0  0  0  0  0
   -5.9755    4.7505  -37.5185 C   0  0  0  0  0  0  0  0  0  0  0  0
   -6.4709    5.7556  -35.4322 C   0  0  0  0  0  0  0  0  0  0  0  0
   -6.4381    3.5691  -36.9746 C   0  0  0  0  0  0  0  0  0  0  0  0
   -6.9175    4.5866  -34.9261 N   0  0  0  0  0  0  0  0  0  0  0  0
   -6.9006    3.4753  -35.7100 N   0  0  0  0  0  0  0  0  0  0  0  0
   -5.4964    4.8313  -38.8387 N   0  0  0  0  0  0  0  0  0  0  0  0
   -6.5371    7.0894  -34.3602 Cl  0  0  0  0  0  0  0  0  0  0  0  0
   -6.4760    2.0880  -37.8438 Cl  0  0  0  0  0  0  0  0  0  0  0  0
   -5.6400    6.8363  -37.0984 H   0  0  0  0  0  0  0  0  0  0  0  0
   -5.2147    5.7197  -39.2059 H   0  0  0  0  0  0  0  0  0  0  0  0
   -5.5314    4.0194  -39.4246 H   0  0  0  0  0  0  0  0  0  0  0  0
  1  2  2  0  0  0  0
  1  3  1  0  0  0  0
  2  4  1  0  0  0  0
  2  7  1  0  0  0  0
  3  5  2  0  0  0  0
  3  8  1  0  0  0  0
  4  6  2  0  0  0  0
  4  9  1  0  0  0  0
  5  6  1  0  0  0  0
  1 10  1  0  0  0  0
  7 11  1  0  0  0  0
  7 12  1  0  0  0  0
M  END
> <id>
EN300-91215

> <smiles>
NC=1C=C(Cl)N=NC1Cl

> <MDLNUMBER>
MFCD01647253

> <IUPAC Name>
3,6-dichloropyridazin-4-amine

> <CAS>
823-58-5

> <Purity>
95

> <URL>
https://www.enaminestore.com/catalog/EN300-91215

> <MP>
201-205

> <ROCS_ShapeQuery>
_hit0

> <ROCS_TanimotoCombo>
1.005 

> <ROCS_ShapeTanimoto>
0.472 

> <ROCS_ColorTanimoto>
0.533 

> <ROCS_RefTversky>
1.277 

> <ROCS_RefColorTversky>
0.797 

> <ROCS_RefTverskyCombo>
2.073 

> <ROCS_FitTversky>
0.428 

> <ROCS_FitColorTversky>
0.617 

> <ROCS_FitTverskyCombo>
1.046 

> <ROCS_ColorScore>
-3.239

> <ROCS_Overlap>
155.583

> <ROCS_Rank>
365                 

$$$$
untitled-dbase-29370_0
  -OEChem-06232314393D

 14 14  0     0  0  0  0  0  0999 V2000
   -6.5011    7.3934  -34.7707 C   0  0  0  0  0  0  0  0  0  0  0  0
   -5.9968    6.1126  -36.8001 C   0  0  0  0  0  0  0  0  0  0  0  0
   -6.8881    4.9802  -34.9081 C   0  0  0  0  0  0  0  0  0  0  0  0
   -6.4220    3.7726  -36.8061 C   0  0  0  0  0  0  0  0  0  0  0  0
   -6.4613    6.1627  -35.4906 C   0  0  0  0  0  0  0  0  0  0  0  0
   -5.9735    4.8985  -37.4776 C   0  0  0  0  0  0  0  0  0  0  0  0
   -6.5336    8.3948  -34.1850 N   0  0  0  0  0  0  0  0  0  0  0  0
   -6.8804    3.7822  -35.5343 N   0  0  0  0  0  0  0  0  0  0  0  0
   -5.5093    4.8161  -38.8003 N   0  0  0  0  0  0  0  0  0  0  0  0
   -5.6533    7.0174  -37.2972 H   0  0  0  0  0  0  0  0  0  0  0  0
   -7.2619    4.9518  -33.8885 H   0  0  0  0  0  0  0  0  0  0  0  0
   -6.4280    2.7965  -37.2820 H   0  0  0  0  0  0  0  0  0  0  0  0
   -5.2337    5.6525  -39.2803 H   0  0  0  0  0  0  0  0  0  0  0  0
   -5.5467    3.9376  -39.2829 H   0  0  0  0  0  0  0  0  0  0  0  0
  1  5  1  0  0  0  0
  1  7  3  0  0  0  0
  2  5  2  0  0  0  0
  2  6  1  0  0  0  0
  3  5  1  0  0  0  0
  3  8  2  0  0  0  0
  4  6  2  0  0  0  0
  4  8  1  0  0  0  0
  6  9  1  0  0  0  0
  2 10  1  0  0  0  0
  3 11  1  0  0  0  0
  4 12  1  0  0  0  0
  9 13  1  0  0  0  0
  9 14  1  0  0  0  0
M  END
> <id>
EN300-1600806

> <smiles>
NC=1C=NC=C(C#N)C1

> <MDLNUMBER>
MFCD07367907

> <IUPAC Name>
5-aminopyridine-3-carbonitrile

> <CAS>
13600-47-0

> <Purity>
95

> <URL>
https://www.enaminestore.com/catalog/EN300-1600806

> <MP>
125-128

> <ROCS_ShapeQuery>
_hit0

> <ROCS_TanimotoCombo>
1.005 

> <ROCS_ShapeTanimoto>
0.505 

> <ROCS_ColorTanimoto>
0.500 

> <ROCS_RefTversky>
1.368 

> <ROCS_RefColorTversky>
0.741 

> <ROCS_RefTverskyCombo>
2.108 

> <ROCS_FitTversky>
0.445 

> <ROCS_FitColorTversky>
0.606 

> <ROCS_FitTverskyCombo>
1.051 

> <ROCS_ColorScore>
-2.999

> <ROCS_Overlap>
167.632

> <ROCS_Rank>
366                 

$$$$
untitled-dbase-20894_6
  -OEChem-06232314393D

 20 20  0     1  0  0  0  0  0999 V2000
   -5.7464    3.1527  -37.2448 C   0  0  0  0  0  0  0  0  0  0  0  0
   -6.1370    5.5812  -36.7487 C   0  0  0  0  0  0  0  0  0  0  0  0
   -5.8378    3.0960  -35.7229 C   0  0  0  0  0  0  0  0  0  0  0  0
   -6.2332    4.4904  -37.8058 C   0  0  1  0  0  0  0  0  0  0  0  0
   -6.9599    5.2010  -35.5111 C   0  0  2  0  0  0  0  0  0  0  0  0
   -6.4692    5.9218  -34.2616 C   0  0  0  0  0  0  0  0  0  0  0  0
   -6.9941    3.7885  -35.2651 O   0  0  0  0  0  0  0  0  0  0  0  0
   -5.4545    4.8585  -38.9368 O   0  0  0  0  0  0  0  0  0  0  0  0
   -4.6983    2.9982  -37.5549 H   0  0  0  0  0  0  0  0  0  0  0  0
   -6.3128    2.3226  -37.6977 H   0  0  0  0  0  0  0  0  0  0  0  0
   -5.0834    5.7160  -36.4719 H   0  0  0  0  0  0  0  0  0  0  0  0
   -6.4727    6.5399  -37.1596 H   0  0  0  0  0  0  0  0  0  0  0  0
   -5.8634    2.0607  -35.3656 H   0  0  0  0  0  0  0  0  0  0  0  0
   -4.9604    3.5779  -35.2818 H   0  0  0  0  0  0  0  0  0  0  0  0
   -7.2774    4.3885  -38.1384 H   0  0  0  0  0  0  0  0  0  0  0  0
   -8.0293    5.5344  -35.6770 H   0  0  0  0  0  0  0  0  0  0  0  0
   -5.4376    5.6400  -34.0481 H   0  0  0  0  0  0  0  0  0  0  0  0
   -7.0918    5.6550  -33.4071 H   0  0  0  0  0  0  0  0  0  0  0  0
   -6.5167    7.0012  -34.4095 H   0  0  0  0  0  0  0  0  0  0  0  0
   -5.5657    4.1530  -39.5943 H   0  0  0  0  0  0  0  0  0  0  0  0
  1  3  1  0  0  0  0
  1  4  1  0  0  0  0
  2  4  1  0  0  0  0
  2  5  1  0  0  0  0
  3  7  1  0  0  0  0
  4  8  1  0  0  0  0
  5  6  1  0  0  0  0
  5  7  1  0  0  0  0
  1  9  1  0  0  0  0
  1 10  1  0  0  0  0
  2 11  1  0  0  0  0
  2 12  1  0  0  0  0
  3 13  1  0  0  0  0
  3 14  1  0  0  0  0
  4 15  1  0  0  0  0
  5 16  1  0  0  0  0
  6 17  1  0  0  0  0
  6 18  1  0  0  0  0
  6 19  1  0  0  0  0
  8 20  1  0  0  0  0
M  END
> <id>
EN300-109334

> <smiles>
CC1CC(O)CCO1

> <MDLNUMBER>
MFCD16877672

> <IUPAC Name>
2-methyloxan-4-ol

> <CAS>
89791-47-9

> <Purity>
95

> <URL>
https://www.enaminestore.com/catalog/EN300-109334

> <ROCS_ShapeQuery>
_hit0

> <ROCS_TanimotoCombo>
1.005 

> <ROCS_ShapeTanimoto>
0.446 

> <ROCS_ColorTanimoto>
0.559 

> <ROCS_RefTversky>
1.121 

> <ROCS_RefColorTversky>
0.717 

> <ROCS_RefTverskyCombo>
1.838 

> <ROCS_FitTversky>
0.426 

> <ROCS_FitColorTversky>
0.717 

> <ROCS_FitTverskyCombo>
1.143 

> <ROCS_ColorScore>
-2.868

> <ROCS_Overlap>
133.639

> <ROCS_Rank>
367                 

$$$$
untitled-dbase-47747_18
  -OEChem-06232314393D

 20 20  0     1  0  0  0  0  0999 V2000
   -6.5090    4.7002  -36.0336 C   0  0  0  0  0  0  0  0  0  0  0  0
   -7.0504    8.3114  -36.9751 C   0  0  0  0  0  0  0  0  0  0  0  0
   -5.9355    8.4593  -37.9974 C   0  0  0  0  0  0  0  0  0  0  0  0
   -6.7829    7.1516  -36.0146 C   0  0  0  0  0  0  0  0  0  0  0  0
   -5.7847    7.2082  -38.8601 C   0  0  0  0  0  0  0  0  0  0  0  0
   -6.0571    5.9573  -36.6622 C   0  0  2  0  0  0  0  0  0  0  0  0
   -6.2667    5.9189  -38.1817 C   0  0  2  0  0  0  0  0  0  0  0  0
   -6.8642    3.7123  -35.5397 N   0  0  0  0  0  0  0  0  0  0  0  0
   -5.5448    4.8218  -38.7416 O   0  0  0  0  0  0  0  0  0  0  0  0
   -7.1526    9.2418  -36.4014 H   0  0  0  0  0  0  0  0  0  0  0  0
   -8.0058    8.1484  -37.4882 H   0  0  0  0  0  0  0  0  0  0  0  0
   -6.1392    9.3246  -38.6446 H   0  0  0  0  0  0  0  0  0  0  0  0
   -4.9863    8.6666  -37.4846 H   0  0  0  0  0  0  0  0  0  0  0  0
   -6.1960    7.5238  -35.1552 H   0  0  0  0  0  0  0  0  0  0  0  0
   -7.7455    6.8154  -35.5853 H   0  0  0  0  0  0  0  0  0  0  0  0
   -6.3268    7.3450  -39.8127 H   0  0  0  0  0  0  0  0  0  0  0  0
   -4.7261    7.0923  -39.1585 H   0  0  0  0  0  0  0  0  0  0  0  0
   -4.9742    6.0518  -36.4599 H   0  0  0  0  0  0  0  0  0  0  0  0
   -7.3343    5.7658  -38.4177 H   0  0  0  0  0  0  0  0  0  0  0  0
   -5.7427    4.8201  -39.6901 H   0  0  0  0  0  0  0  0  0  0  0  0
  1  6  1  1  0  0  0
  1  8  3  0  0  0  0
  2  3  1  0  0  0  0
  2  4  1  0  0  0  0
  3  5  1  0  0  0  0
  4  6  1  0  0  0  0
  5  7  1  0  0  0  0
  6  7  1  0  0  0  0
  7  9  1  6  0  0  0
  2 10  1  0  0  0  0
  2 11  1  0  0  0  0
  3 12  1  0  0  0  0
  3 13  1  0  0  0  0
  4 14  1  0  0  0  0
  4 15  1  0  0  0  0
  5 16  1  0  0  0  0
  5 17  1  0  0  0  0
  6 18  1  0  0  0  0
  7 19  1  0  0  0  0
  9 20  1  0  0  0  0
M  END
> <id>
EN300-245460

> <smiles>
O[C@@H]1CCCC[C@H]1C#N |&1:1,6,r|

> <MDLNUMBER>
MFCD00145422

> <IUPAC Name>
rac-(1R,2S)-2-hydroxycyclohexane-1-carbonitrile

> <CAS>
63301-31-5

> <Purity>
95

> <URL>
https://www.enaminestore.com/catalog/EN300-245460

> <MP>
46-47

> <ROCS_ShapeQuery>
_hit0

> <ROCS_TanimotoCombo>
1.005 

> <ROCS_ShapeTanimoto>
0.411 

> <ROCS_ColorTanimoto>
0.594 

> <ROCS_RefTversky>
1.136 

> <ROCS_RefColorTversky>
0.745 

> <ROCS_RefTverskyCombo>
1.881 

> <ROCS_FitTversky>
0.392 

> <ROCS_FitColorTversky>
0.745 

> <ROCS_FitTverskyCombo>
1.137 

> <ROCS_ColorScore>
-2.982

> <ROCS_Overlap>
137.684

> <ROCS_Rank>
368                 

$$$$
untitled-dbase-6841_18
  -OEChem-06232314393D

 20 20  0     1  0  0  0  0  0999 V2000
   -6.5090    4.7002  -36.0336 C   0  0  0  0  0  0  0  0  0  0  0  0
   -7.0504    8.3114  -36.9751 C   0  0  0  0  0  0  0  0  0  0  0  0
   -5.9355    8.4593  -37.9974 C   0  0  0  0  0  0  0  0  0  0  0  0
   -6.7829    7.1516  -36.0146 C   0  0  0  0  0  0  0  0  0  0  0  0
   -5.7847    7.2082  -38.8601 C   0  0  0  0  0  0  0  0  0  0  0  0
   -6.0571    5.9573  -36.6622 C   0  0  2  0  0  0  0  0  0  0  0  0
   -6.2667    5.9189  -38.1817 C   0  0  2  0  0  0  0  0  0  0  0  0
   -6.8642    3.7123  -35.5397 N   0  0  0  0  0  0  0  0  0  0  0  0
   -5.5448    4.8218  -38.7416 O   0  0  0  0  0  0  0  0  0  0  0  0
   -7.1526    9.2418  -36.4014 H   0  0  0  0  0  0  0  0  0  0  0  0
   -8.0058    8.1484  -37.4882 H   0  0  0  0  0  0  0  0  0  0  0  0
   -6.1392    9.3246  -38.6446 H   0  0  0  0  0  0  0  0  0  0  0  0
   -4.9863    8.6666  -37.4846 H   0  0  0  0  0  0  0  0  0  0  0  0
   -6.1960    7.5238  -35.1552 H   0  0  0  0  0  0  0  0  0  0  0  0
   -7.7455    6.8154  -35.5853 H   0  0  0  0  0  0  0  0  0  0  0  0
   -6.3268    7.3450  -39.8127 H   0  0  0  0  0  0  0  0  0  0  0  0
   -4.7261    7.0923  -39.1585 H   0  0  0  0  0  0  0  0  0  0  0  0
   -4.9742    6.0518  -36.4599 H   0  0  0  0  0  0  0  0  0  0  0  0
   -7.3343    5.7658  -38.4177 H   0  0  0  0  0  0  0  0  0  0  0  0
   -5.7427    4.8201  -39.6901 H   0  0  0  0  0  0  0  0  0  0  0  0
  1  6  1  1  0  0  0
  1  8  3  0  0  0  0
  2  3  1  0  0  0  0
  2  4  1  0  0  0  0
  3  5  1  0  0  0  0
  4  6  1  0  0  0  0
  5  7  1  0  0  0  0
  6  7  1  0  0  0  0
  7  9  1  6  0  0  0
  2 10  1  0  0  0  0
  2 11  1  0  0  0  0
  3 12  1  0  0  0  0
  3 13  1  0  0  0  0
  4 14  1  0  0  0  0
  4 15  1  0  0  0  0
  5 16  1  0  0  0  0
  5 17  1  0  0  0  0
  6 18  1  0  0  0  0
  7 19  1  0  0  0  0
  9 20  1  0  0  0  0
M  END
> <id>
EN300-89915

> <smiles>
O[C@@H]1CCCC[C@H]1C#N

> <MDLNUMBER>
MFCD18374332

> <IUPAC Name>
(1S,2R)-2-hydroxycyclohexane-1-carbonitrile

> <CAS>
125356-61-8

> <URL>
https://www.enaminestore.com/catalog/EN300-89915

> <ROCS_ShapeQuery>
_hit0

> <ROCS_TanimotoCombo>
1.005 

> <ROCS_ShapeTanimoto>
0.411 

> <ROCS_ColorTanimoto>
0.594 

> <ROCS_RefTversky>
1.136 

> <ROCS_RefColorTversky>
0.745 

> <ROCS_RefTverskyCombo>
1.881 

> <ROCS_FitTversky>
0.392 

> <ROCS_FitColorTversky>
0.745 

> <ROCS_FitTverskyCombo>
1.137 

> <ROCS_ColorScore>
-2.982

> <ROCS_Overlap>
137.684

> <ROCS_Rank>
369                 

$$$$
untitled-dbase-21139_0
  -OEChem-06232314393D

 15 15  0     0  0  0  0  0  0999 V2000
   -6.5279    8.4293  -34.1611 C   0  0  0  0  0  0  0  0  0  0  0  0
   -6.4961    7.3936  -34.7679 C   0  0  0  0  0  0  0  0  0  0  0  0
   -5.9951    6.1141  -36.7990 C   0  0  0  0  0  0  0  0  0  0  0  0
   -6.8863    4.9811  -34.9073 C   0  0  0  0  0  0  0  0  0  0  0  0
   -6.4233    3.7747  -36.8068 C   0  0  0  0  0  0  0  0  0  0  0  0
   -6.4585    6.1636  -35.4890 C   0  0  0  0  0  0  0  0  0  0  0  0
   -5.9739    4.9007  -37.4776 C   0  0  0  0  0  0  0  0  0  0  0  0
   -6.8807    3.7836  -35.5347 N   0  0  0  0  0  0  0  0  0  0  0  0
   -5.5110    4.8189  -38.8007 N   0  0  0  0  0  0  0  0  0  0  0  0
   -6.5559    9.3481  -33.6234 H   0  0  0  0  0  0  0  0  0  0  0  0
   -5.6509    7.0190  -37.2954 H   0  0  0  0  0  0  0  0  0  0  0  0
   -7.2593    4.9521  -33.8874 H   0  0  0  0  0  0  0  0  0  0  0  0
   -6.4309    2.7990  -37.2837 H   0  0  0  0  0  0  0  0  0  0  0  0
   -5.2347    5.6555  -39.2802 H   0  0  0  0  0  0  0  0  0  0  0  0
   -5.5498    3.9409  -39.2842 H   0  0  0  0  0  0  0  0  0  0  0  0
  1  2  3  0  0  0  0
  2  6  1  0  0  0  0
  3  6  2  0  0  0  0
  3  7  1  0  0  0  0
  4  6  1  0  0  0  0
  4  8  2  0  0  0  0
  5  7  2  0  0  0  0
  5  8  1  0  0  0  0
  7  9  1  0  0  0  0
  1 10  1  0  0  0  0
  3 11  1  0  0  0  0
  4 12  1  0  0  0  0
  5 13  1  0  0  0  0
  9 14  1  0  0  0  0
  9 15  1  0  0  0  0
M  END
> <id>
EN300-1726456

> <smiles>
NC=1C=NC=C(C#C)C1

> <MDLNUMBER>
MFCD18207401

> <IUPAC Name>
5-ethynylpyridin-3-amine

> <CAS>
667932-40-3

> <Purity>
95

> <URL>
https://www.enaminestore.com/catalog/EN300-1726456

> <ROCS_ShapeQuery>
_hit0

> <ROCS_TanimotoCombo>
1.005 

> <ROCS_ShapeTanimoto>
0.505 

> <ROCS_ColorTanimoto>
0.500 

> <ROCS_RefTversky>
1.365 

> <ROCS_RefColorTversky>
0.741 

> <ROCS_RefTverskyCombo>
2.106 

> <ROCS_FitTversky>
0.445 

> <ROCS_FitColorTversky>
0.606 

> <ROCS_FitTverskyCombo>
1.051 

> <ROCS_ColorScore>
-2.999

> <ROCS_Overlap>
167.230

> <ROCS_Rank>
370                 

$$$$
untitled-dbase-28986_0
  -OEChem-06232314393D

 12 12  0     0  0  0  0  0  0999 V2000
   -6.4134    3.2150  -37.5113 C   0  0  0  0  0  0  0  0  0  0  0  0
   -6.0242    5.4476  -36.7060 C   0  0  0  0  0  0  0  0  0  0  0  0
   -6.9186    2.9088  -36.2580 C   0  0  0  0  0  0  0  0  0  0  0  0
   -5.9598    4.5107  -37.7315 C   0  0  0  0  0  0  0  0  0  0  0  0
   -6.5470    5.0415  -35.4888 C   0  0  0  0  0  0  0  0  0  0  0  0
   -6.9973    3.7919  -35.2374 N   0  0  0  0  0  0  0  0  0  0  0  0
   -5.4563    4.8600  -38.9460 O   0  0  0  0  0  0  0  0  0  0  0  0
   -6.6666    6.1302  -34.1677 Cl  0  0  0  0  0  0  0  0  0  0  0  0
   -6.3750    2.4631  -38.2920 H   0  0  0  0  0  0  0  0  0  0  0  0
   -5.6769    6.4638  -36.8626 H   0  0  0  0  0  0  0  0  0  0  0  0
   -7.2854    1.9122  -36.0351 H   0  0  0  0  0  0  0  0  0  0  0  0
   -5.4795    4.1014  -39.5513 H   0  0  0  0  0  0  0  0  0  0  0  0
  1  3  1  0  0  0  0
  1  4  2  0  0  0  0
  2  4  1  0  0  0  0
  2  5  2  0  0  0  0
  3  6  2  0  0  0  0
  4  7  1  0  0  0  0
  5  6  1  0  0  0  0
  5  8  1  0  0  0  0
  1  9  1  0  0  0  0
  2 10  1  0  0  0  0
  3 11  1  0  0  0  0
  7 12  1  0  0  0  0
M  END
> <id>
EN300-90616

> <smiles>
OC=1C=CN=C(Cl)C1

> <MDLNUMBER>
MFCD01646108

> <IUPAC Name>
2-chloropyridin-4-ol

> <CAS>
17368-12-6

> <Purity>
95

> <URL>
https://www.enaminestore.com/catalog/EN300-90616

> <ROCS_ShapeQuery>
_hit0

> <ROCS_TanimotoCombo>
1.005 

> <ROCS_ShapeTanimoto>
0.452 

> <ROCS_ColorTanimoto>
0.553 

> <ROCS_RefTversky>
1.161 

> <ROCS_RefColorTversky>
0.712 

> <ROCS_RefTverskyCombo>
1.873 

> <ROCS_FitTversky>
0.425 

> <ROCS_FitColorTversky>
0.712 

> <ROCS_FitTverskyCombo>
1.137 

> <ROCS_ColorScore>
-2.849

> <ROCS_Overlap>
139.333

> <ROCS_Rank>
371                 

$$$$
untitled-dbase-49962_0
  -OEChem-06232314393D

  5  4  0     0  0  0  0  0  0999 V2000
   -6.3193    4.4867  -36.4912 C   0  0  0  0  0  0  0  0  0  0  0  0
   -5.6738    5.2466  -37.5284 C   0  0  0  0  0  0  0  0  0  0  0  0
   -6.8399    3.8752  -35.6540 N   0  0  0  0  0  0  0  0  0  0  0  0
   -5.5587    4.7945  -38.6580 O   0  0  0  0  0  0  0  0  0  0  0  0
   -5.3018    6.2400  -37.2331 H   0  0  0  0  0  0  0  0  0  0  0  0
  1  2  1  0  0  0  0
  1  3  3  0  0  0  0
  2  4  2  0  0  0  0
  2  5  1  0  0  0  0
M  END
> <id>
EN300-7567745

> <smiles>
O=CC#N

> <MDLNUMBER>
MFCD23716791

> <IUPAC Name>
formyl cyanide

> <CAS>
4471-47-0

> <URL>
https://www.enaminestore.com/catalog/EN300-7567745

> <ROCS_ShapeQuery>
_hit0

> <ROCS_TanimotoCombo>
1.005 

> <ROCS_ShapeTanimoto>
0.521 

> <ROCS_ColorTanimoto>
0.484 

> <ROCS_RefTversky>
0.793 

> <ROCS_RefColorTversky>
0.502 

> <ROCS_RefTverskyCombo>
1.295 

> <ROCS_FitTversky>
0.603 

> <ROCS_FitColorTversky>
0.932 

> <ROCS_FitTverskyCombo>
1.535 

> <ROCS_ColorScore>
-1.958

> <ROCS_Overlap>
87.494

> <ROCS_Rank>
372                 

$$$$
untitled-dbase-10469_0
  -OEChem-06232314393D

 14 13  0     0  0  0  0  0  0999 V2000
   -6.2787    6.3656  -35.8521 C   0  0  0  0  0  0  0  0  0  0  0  0
   -5.8107    5.5282  -36.5748 C   0  0  0  0  0  0  0  0  0  0  0  0
   -7.4755    8.5200  -35.7637 C   0  0  0  0  0  0  0  0  0  0  0  0
   -6.8499    7.3878  -34.9669 C   0  0  0  0  0  0  0  0  0  0  0  0
   -5.2404    4.5082  -37.4539 C   0  0  0  0  0  0  0  0  0  0  0  0
   -5.5271    4.8283  -38.8079 O   0  0  0  0  0  0  0  0  0  0  0  0
   -8.2629    8.1482  -36.4285 H   0  0  0  0  0  0  0  0  0  0  0  0
   -7.9200    9.2591  -35.0898 H   0  0  0  0  0  0  0  0  0  0  0  0
   -6.7279    9.0292  -36.3817 H   0  0  0  0  0  0  0  0  0  0  0  0
   -6.0685    7.7913  -34.3136 H   0  0  0  0  0  0  0  0  0  0  0  0
   -7.6096    6.9354  -34.3199 H   0  0  0  0  0  0  0  0  0  0  0  0
   -5.6656    3.5246  -37.2325 H   0  0  0  0  0  0  0  0  0  0  0  0
   -4.1542    4.4556  -37.3324 H   0  0  0  0  0  0  0  0  0  0  0  0
   -5.1255    5.6951  -38.9827 H   0  0  0  0  0  0  0  0  0  0  0  0
  1  2  3  0  0  0  0
  1  4  1  0  0  0  0
  2  5  1  0  0  0  0
  3  4  1  0  0  0  0
  5  6  1  0  0  0  0
  3  7  1  0  0  0  0
  3  8  1  0  0  0  0
  3  9  1  0  0  0  0
  4 10  1  0  0  0  0
  4 11  1  0  0  0  0
  5 12  1  0  0  0  0
  5 13  1  0  0  0  0
  6 14  1  0  0  0  0
M  END
> <id>
EN300-131560

> <smiles>
CCC#CCO

> <MDLNUMBER>
MFCD00040915

> <IUPAC Name>
pent-2-yn-1-ol

> <CAS>
6261-22-9

> <Purity>
95

> <URL>
https://www.enaminestore.com/catalog/EN300-131560

> <ROCS_ShapeQuery>
_hit0

> <ROCS_TanimotoCombo>
1.005 

> <ROCS_ShapeTanimoto>
0.605 

> <ROCS_ColorTanimoto>
0.400 

> <ROCS_RefTversky>
1.080 

> <ROCS_RefColorTversky>
0.506 

> <ROCS_RefTverskyCombo>
1.586 

> <ROCS_FitTversky>
0.579 

> <ROCS_FitColorTversky>
0.655 

> <ROCS_FitTverskyCombo>
1.235 

> <ROCS_ColorScore>
-1.999

> <ROCS_Overlap>
123.016

> <ROCS_Rank>
373                 

$$$$
untitled-dbase-40905_3
  -OEChem-06232314393D

 17 17  0     1  0  0  0  0  0999 V2000
   -5.7203    5.7157  -36.5556 C   0  0  0  0  0  0  0  0  0  0  0  0
   -6.5697    3.5659  -36.9693 C   0  0  0  0  0  0  0  0  0  0  0  0
   -5.4601    4.4991  -37.4101 C   0  0  1  0  0  0  0  0  0  0  0  0
   -6.1442    5.0768  -35.2458 C   0  0  1  0  0  0  0  0  0  0  0  0
   -7.0271    5.9695  -34.3958 C   0  0  0  0  0  0  0  0  0  0  0  0
   -6.8577    3.8787  -35.5987 O   0  0  0  0  0  0  0  0  0  0  0  0
   -5.5313    4.8016  -38.7867 O   0  0  0  0  0  0  0  0  0  0  0  0
   -6.3565    7.0746  -34.0296 F   0  0  0  0  0  0  0  0  0  0  0  0
   -8.1188    6.3380  -35.0868 F   0  0  0  0  0  0  0  0  0  0  0  0
   -7.4189    5.3175  -33.2883 F   0  0  0  0  0  0  0  0  0  0  0  0
   -4.7843    6.2532  -36.4022 H   0  0  0  0  0  0  0  0  0  0  0  0
   -6.4621    6.3962  -36.9630 H   0  0  0  0  0  0  0  0  0  0  0  0
   -7.4891    3.6736  -37.5551 H   0  0  0  0  0  0  0  0  0  0  0  0
   -6.2429    2.5194  -37.0048 H   0  0  0  0  0  0  0  0  0  0  0  0
   -4.4523    4.0617  -37.2125 H   0  0  0  0  0  0  0  0  0  0  0  0
   -5.2585    4.7864  -34.6644 H   0  0  0  0  0  0  0  0  0  0  0  0
   -5.3541    3.9751  -39.2636 H   0  0  0  0  0  0  0  0  0  0  0  0
  1  3  1  0  0  0  0
  1  4  1  0  0  0  0
  2  3  1  0  0  0  0
  2  6  1  0  0  0  0
  3  7  1  6  0  0  0
  4  5  1  6  0  0  0
  4  6  1  0  0  0  0
  5  8  1  0  0  0  0
  5  9  1  0  0  0  0
  5 10  1  0  0  0  0
  1 11  1  0  0  0  0
  1 12  1  0  0  0  0
  2 13  1  0  0  0  0
  2 14  1  0  0  0  0
  3 15  1  0  0  0  0
  4 16  1  0  0  0  0
  7 17  1  0  0  0  0
M  END
> <id>
EN300-27158306

> <smiles>
O[C@@H]1CO[C@@H](C1)C(F)(F)F |&1:1,4,r|

> <MDLNUMBER>
MFCD32874720

> <IUPAC Name>
rac-(3R,5R)-5-(trifluoromethyl)oxolan-3-ol

> <CAS>
2550997-27-6

> <Purity>
95

> <URL>
https://www.enaminestore.com/catalog/EN300-27158306

> <ROCS_ShapeQuery>
_hit0

> <ROCS_TanimotoCombo>
1.004 

> <ROCS_ShapeTanimoto>
0.408 

> <ROCS_ColorTanimoto>
0.597 

> <ROCS_RefTversky>
1.278 

> <ROCS_RefColorTversky>
0.747 

> <ROCS_RefTverskyCombo>
2.025 

> <ROCS_FitTversky>
0.375 

> <ROCS_FitColorTversky>
0.747 

> <ROCS_FitTverskyCombo>
1.122 

> <ROCS_ColorScore>
-2.989

> <ROCS_Overlap>
160.066

> <ROCS_Rank>
374                 

$$$$
untitled-dbase-1548_3
  -OEChem-06232314393D

 14 14  0     0  0  0  0  0  0999 V2000
   -6.4111    4.5872  -36.5154 C   0  0  0  0  0  0  0  0  0  0  0  0
   -5.9104    7.5433  -36.7327 C   0  0  0  0  0  0  0  0  0  0  0  0
   -6.7967    6.7763  -37.7306 C   0  0  0  0  0  0  0  0  0  0  0  0
   -4.8104    6.4950  -36.9781 C   0  0  0  0  0  0  0  0  0  0  0  0
   -5.9056    5.5227  -37.5009 C   0  0  0  0  0  0  0  0  0  0  0  0
   -6.8155    3.8385  -35.7267 N   0  0  0  0  0  0  0  0  0  0  0  0
   -5.5597    4.7836  -38.6897 O   0  0  0  0  0  0  0  0  0  0  0  0
   -5.6413    8.5539  -37.0653 H   0  0  0  0  0  0  0  0  0  0  0  0
   -6.2910    7.6011  -35.7081 H   0  0  0  0  0  0  0  0  0  0  0  0
   -7.8411    6.6697  -37.4039 H   0  0  0  0  0  0  0  0  0  0  0  0
   -6.7956    7.1818  -38.7497 H   0  0  0  0  0  0  0  0  0  0  0  0
   -4.0475    6.7918  -37.7082 H   0  0  0  0  0  0  0  0  0  0  0  0
   -4.2993    6.1685  -36.0609 H   0  0  0  0  0  0  0  0  0  0  0  0
   -6.3781    4.3624  -38.9789 H   0  0  0  0  0  0  0  0  0  0  0  0
  1  5  1  0  0  0  0
  1  6  3  0  0  0  0
  2  3  1  0  0  0  0
  2  4  1  0  0  0  0
  3  5  1  0  0  0  0
  4  5  1  0  0  0  0
  5  7  1  0  0  0  0
  2  8  1  0  0  0  0
  2  9  1  0  0  0  0
  3 10  1  0  0  0  0
  3 11  1  0  0  0  0
  4 12  1  0  0  0  0
  4 13  1  0  0  0  0
  7 14  1  0  0  0  0
M  END
> <id>
EN300-102708

> <smiles>
OC1(CCC1)C#N

> <MDLNUMBER>
MFCD12169298

> <IUPAC Name>
1-hydroxycyclobutane-1-carbonitrile

> <CAS>
55767-58-3

> <Purity>
95

> <URL>
https://www.enaminestore.com/catalog/EN300-102708

> <ROCS_ShapeQuery>
_hit0

> <ROCS_TanimotoCombo>
1.004 

> <ROCS_ShapeTanimoto>
0.427 

> <ROCS_ColorTanimoto>
0.578 

> <ROCS_RefTversky>
1.000 

> <ROCS_RefColorTversky>
0.732 

> <ROCS_RefTverskyCombo>
1.732 

> <ROCS_FitTversky>
0.425 

> <ROCS_FitColorTversky>
0.732 

> <ROCS_FitTverskyCombo>
1.158 

> <ROCS_ColorScore>
-2.930

> <ROCS_Overlap>
118.064

> <ROCS_Rank>
375                 

$$$$
untitled-dbase-1579_0
  -OEChem-06232314393D

 12 12  0     0  0  0  0  0  0999 V2000
   -6.5507    5.1327  -35.5205 C   0  0  0  0  0  0  0  0  0  0  0  0
   -5.9600    4.7117  -37.5721 C   0  0  0  0  0  0  0  0  0  0  0  0
   -6.7353    5.9904  -34.3373 C   0  0  0  0  0  0  0  0  0  0  0  0
   -6.0186    5.6744  -36.6783 N   0  0  0  0  0  0  0  0  0  0  0  0
   -6.8958    3.8464  -35.4647 N   0  0  0  0  0  0  0  0  0  0  0  0
   -5.4990    4.8269  -38.8426 N   0  0  0  0  0  0  0  0  0  0  0  0
   -6.5444    3.2134  -36.9735 S   0  0  0  0  0  0  0  0  0  0  0  0
   -7.7317    6.4643  -34.3379 H   0  0  0  0  0  0  0  0  0  0  0  0
   -6.6363    5.4255  -33.3933 H   0  0  0  0  0  0  0  0  0  0  0  0
   -5.9830    6.7977  -34.2863 H   0  0  0  0  0  0  0  0  0  0  0  0
   -5.4391    4.0176  -39.4727 H   0  0  0  0  0  0  0  0  0  0  0  0
   -5.1029    5.7059  -39.1975 H   0  0  0  0  0  0  0  0  0  0  0  0
  1  3  1  0  0  0  0
  1  4  1  0  0  0  0
  1  5  2  0  0  0  0
  2  4  2  0  0  0  0
  2  6  1  0  0  0  0
  2  7  1  0  0  0  0
  5  7  1  0  0  0  0
  3  8  1  0  0  0  0
  3  9  1  0  0  0  0
  3 10  1  0  0  0  0
  6 11  1  0  0  0  0
  6 12  1  0  0  0  0
M  END
> <id>
EN300-93746

> <smiles>
CC1=NSC(N)=N1

> <MDLNUMBER>
MFCD01114751

> <IUPAC Name>
3-methyl-1,2,4-thiadiazol-5-amine

> <CAS>
17467-35-5

> <Purity>
95

> <URL>
https://www.enaminestore.com/catalog/EN300-93746

> <MP>
195-200

> <ROCS_ShapeQuery>
_hit0

> <ROCS_TanimotoCombo>
1.004 

> <ROCS_ShapeTanimoto>
0.506 

> <ROCS_ColorTanimoto>
0.498 

> <ROCS_RefTversky>
1.133 

> <ROCS_RefColorTversky>
0.740 

> <ROCS_RefTverskyCombo>
1.873 

> <ROCS_FitTversky>
0.478 

> <ROCS_FitColorTversky>
0.604 

> <ROCS_FitTverskyCombo>
1.082 

> <ROCS_ColorScore>
-2.996

> <ROCS_Overlap>
132.995

> <ROCS_Rank>
376                 

$$$$
untitled-dbase-38677_0
  -OEChem-06232314393D

 13 13  0     0  0  0  0  0  0999 V2000
   -5.8940    6.1312  -36.7102 C   0  0  0  0  0  0  0  0  0  0  0  0
   -6.4245    5.6899  -35.4832 C   0  0  0  0  0  0  0  0  0  0  0  0
   -5.9048    5.0148  -37.5103 C   0  0  0  0  0  0  0  0  0  0  0  0
   -6.7489    4.3943  -35.4978 N   0  0  0  0  0  0  0  0  0  0  0  0
   -6.4214    4.0119  -36.7438 N   0  0  0  0  0  0  0  0  0  0  0  0
   -6.5666    6.5352  -34.4301 N   0  0  0  0  0  0  0  0  0  0  0  0
   -5.5292    4.7871  -38.7829 N   0  0  0  0  0  0  0  0  0  0  0  0
   -5.5504    7.1197  -36.9818 H   0  0  0  0  0  0  0  0  0  0  0  0
   -6.5768    3.0466  -37.0062 H   0  0  0  0  0  0  0  0  0  0  0  0
   -6.2502    7.5108  -34.4737 H   0  0  0  0  0  0  0  0  0  0  0  0
   -6.9084    6.2096  -33.5184 H   0  0  0  0  0  0  0  0  0  0  0  0
   -5.5700    3.8481  -39.2109 H   0  0  0  0  0  0  0  0  0  0  0  0
   -5.0928    5.5173  -39.3685 H   0  0  0  0  0  0  0  0  0  0  0  0
  1  2  1  0  0  0  0
  1  3  2  0  0  0  0
  2  4  2  0  0  0  0
  2  6  1  0  0  0  0
  3  5  1  0  0  0  0
  3  7  1  0  0  0  0
  4  5  1  0  0  0  0
  1  8  1  0  0  0  0
  5  9  1  0  0  0  0
  6 10  1  0  0  0  0
  6 11  1  0  0  0  0
  7 12  1  0  0  0  0
  7 13  1  0  0  0  0
M  END
> <id>
EN300-112127

> <smiles>
NC=1C=C(N)NN1

> <MDLNUMBER>
MFCD10697812

> <IUPAC Name>
1H-pyrazole-3,5-diamine

> <CAS>
16082-33-0

> <Purity>
95

> <URL>
https://www.enaminestore.com/catalog/EN300-112127

> <MP>
110-111

> <ROCS_ShapeQuery>
_hit0

> <ROCS_TanimotoCombo>
1.004 

> <ROCS_ShapeTanimoto>
0.529 

> <ROCS_ColorTanimoto>
0.475 

> <ROCS_RefTversky>
1.222 

> <ROCS_RefColorTversky>
0.855 

> <ROCS_RefTverskyCombo>
2.077 

> <ROCS_FitTversky>
0.482 

> <ROCS_FitColorTversky>
0.517 

> <ROCS_FitTverskyCombo>
0.999 

> <ROCS_ColorScore>
-3.549

> <ROCS_Overlap>
144.884

> <ROCS_Rank>
377                 

$$$$
untitled-dbase-11547_0
  -OEChem-06232314393D

 13 13  0     0  0  0  0  0  0999 V2000
   -6.4856    7.4012  -34.8099 C   0  0  0  0  0  0  0  0  0  0  0  0
   -5.9861    6.1141  -36.8365 C   0  0  0  0  0  0  0  0  0  0  0  0
   -6.8779    4.9884  -34.9407 C   0  0  0  0  0  0  0  0  0  0  0  0
   -6.4128    3.7744  -36.8349 C   0  0  0  0  0  0  0  0  0  0  0  0
   -6.4504    6.1688  -35.5271 C   0  0  0  0  0  0  0  0  0  0  0  0
   -5.9637    4.8979  -37.5101 C   0  0  0  0  0  0  0  0  0  0  0  0
   -6.5143    8.4040  -34.2264 N   0  0  0  0  0  0  0  0  0  0  0  0
   -6.8710    3.7884  -35.5631 N   0  0  0  0  0  0  0  0  0  0  0  0
   -5.5164    4.8141  -38.7874 O   0  0  0  0  0  0  0  0  0  0  0  0
   -5.6401    7.0142  -37.3396 H   0  0  0  0  0  0  0  0  0  0  0  0
   -7.2515    4.9637  -33.9210 H   0  0  0  0  0  0  0  0  0  0  0  0
   -6.4173    2.7991  -37.3114 H   0  0  0  0  0  0  0  0  0  0  0  0
   -5.5674    3.8975  -39.1076 H   0  0  0  0  0  0  0  0  0  0  0  0
  1  5  1  0  0  0  0
  1  7  3  0  0  0  0
  2  5  2  0  0  0  0
  2  6  1  0  0  0  0
  3  5  1  0  0  0  0
  3  8  2  0  0  0  0
  4  6  2  0  0  0  0
  4  8  1  0  0  0  0
  6  9  1  0  0  0  0
  2 10  1  0  0  0  0
  3 11  1  0  0  0  0
  4 12  1  0  0  0  0
  9 13  1  0  0  0  0
M  END
> <id>
EN300-127588

> <smiles>
OC=1C=NC=C(C#N)C1

> <MDLNUMBER>
MFCD11044307

> <IUPAC Name>
5-hydroxypyridine-3-carbonitrile

> <CAS>
152803-24-2

> <Purity>
95

> <URL>
https://www.enaminestore.com/catalog/EN300-127588

> <MP>
213-217

> <ROCS_ShapeQuery>
_hit0

> <ROCS_TanimotoCombo>
1.004 

> <ROCS_ShapeTanimoto>
0.504 

> <ROCS_ColorTanimoto>
0.500 

> <ROCS_RefTversky>
1.369 

> <ROCS_RefColorTversky>
0.740 

> <ROCS_RefTverskyCombo>
2.109 

> <ROCS_FitTversky>
0.444 

> <ROCS_FitColorTversky>
0.606 

> <ROCS_FitTverskyCombo>
1.050 

> <ROCS_ColorScore>
-2.998

> <ROCS_Overlap>
167.870

> <ROCS_Rank>
378                 

$$$$
untitled-dbase-6450_0
  -OEChem-06232314393D

 13 13  0     0  0  0  0  0  0999 V2000
   -6.4341    3.7987  -36.8163 C   0  0  0  0  0  0  0  0  0  0  0  0
   -6.8434    4.9758  -34.8863 C   0  0  0  0  0  0  0  0  0  0  0  0
   -5.9547    4.9249  -37.4656 C   0  0  0  0  0  0  0  0  0  0  0  0
   -6.3830    6.1572  -35.4450 C   0  0  0  0  0  0  0  0  0  0  0  0
   -5.9320    6.1227  -36.7598 C   0  0  0  0  0  0  0  0  0  0  0  0
   -6.8806    3.7932  -35.5403 N   0  0  0  0  0  0  0  0  0  0  0  0
   -5.5141    4.8166  -38.7980 N   0  0  0  0  0  0  0  0  0  0  0  0
   -6.4036    7.5816  -34.4751 Cl  0  0  0  0  0  0  0  0  0  0  0  0
   -5.2793    7.6997  -37.6147 Br  0  0  0  0  0  0  0  0  0  0  0  0
   -6.4772    2.8341  -37.3138 H   0  0  0  0  0  0  0  0  0  0  0  0
   -7.2097    4.9325  -33.8646 H   0  0  0  0  0  0  0  0  0  0  0  0
   -5.5091    3.9190  -39.2418 H   0  0  0  0  0  0  0  0  0  0  0  0
   -5.1238    5.6191  -39.2523 H   0  0  0  0  0  0  0  0  0  0  0  0
  1  3  2  0  0  0  0
  1  6  1  0  0  0  0
  2  4  1  0  0  0  0
  2  6  2  0  0  0  0
  3  5  1  0  0  0  0
  3  7  1  0  0  0  0
  4  5  2  0  0  0  0
  4  8  1  0  0  0  0
  5  9  1  0  0  0  0
  1 10  1  0  0  0  0
  2 11  1  0  0  0  0
  7 12  1  0  0  0  0
  7 13  1  0  0  0  0
M  END
> <id>
EN300-206637

> <smiles>
NC=1C=NC=C(Cl)C1Br

> <MDLNUMBER>
MFCD28383991

> <IUPAC Name>
4-bromo-5-chloropyridin-3-amine

> <CAS>
1802434-30-5

> <Purity>
95

> <URL>
https://www.enaminestore.com/catalog/EN300-206637

> <ROCS_ShapeQuery>
_hit0

> <ROCS_TanimotoCombo>
1.003 

> <ROCS_ShapeTanimoto>
0.504 

> <ROCS_ColorTanimoto>
0.500 

> <ROCS_RefTversky>
1.317 

> <ROCS_RefColorTversky>
0.741 

> <ROCS_RefTverskyCombo>
2.058 

> <ROCS_FitTversky>
0.449 

> <ROCS_FitColorTversky>
0.606 

> <ROCS_FitTverskyCombo>
1.055 

> <ROCS_ColorScore>
-3.000

> <ROCS_Overlap>
160.005

> <ROCS_Rank>
379                 

$$$$
untitled-dbase-44213_0
  -OEChem-06232314393D

 13 13  0     0  0  0  0  0  0999 V2000
   -6.4341    3.7987  -36.8163 C   0  0  0  0  0  0  0  0  0  0  0  0
   -6.8434    4.9758  -34.8863 C   0  0  0  0  0  0  0  0  0  0  0  0
   -5.9547    4.9249  -37.4656 C   0  0  0  0  0  0  0  0  0  0  0  0
   -6.3830    6.1572  -35.4450 C   0  0  0  0  0  0  0  0  0  0  0  0
   -5.9320    6.1227  -36.7598 C   0  0  0  0  0  0  0  0  0  0  0  0
   -6.8806    3.7932  -35.5403 N   0  0  0  0  0  0  0  0  0  0  0  0
   -5.5141    4.8166  -38.7980 N   0  0  0  0  0  0  0  0  0  0  0  0
   -6.4036    7.5816  -34.4751 Cl  0  0  0  0  0  0  0  0  0  0  0  0
   -5.2793    7.6997  -37.6147 Br  0  0  0  0  0  0  0  0  0  0  0  0
   -6.4772    2.8341  -37.3138 H   0  0  0  0  0  0  0  0  0  0  0  0
   -7.2097    4.9325  -33.8646 H   0  0  0  0  0  0  0  0  0  0  0  0
   -5.5091    3.9190  -39.2418 H   0  0  0  0  0  0  0  0  0  0  0  0
   -5.1238    5.6191  -39.2523 H   0  0  0  0  0  0  0  0  0  0  0  0
  1  3  2  0  0  0  0
  1  6  1  0  0  0  0
  2  4  1  0  0  0  0
  2  6  2  0  0  0  0
  3  5  1  0  0  0  0
  3  7  1  0  0  0  0
  4  5  2  0  0  0  0
  4  8  1  0  0  0  0
  5  9  1  0  0  0  0
  1 10  1  0  0  0  0
  2 11  1  0  0  0  0
  7 12  1  0  0  0  0
  7 13  1  0  0  0  0
M  END
> <id>
EN300-27750461

> <smiles>
Cl.NC=1C=NC=C(Cl)C1Br

> <MDLNUMBER>
MFCD33550522

> <IUPAC Name>
4-bromo-5-chloropyridin-3-amine hydrochloride

> <CAS>
2624140-90-3

> <Purity>
95

> <URL>
https://www.enaminestore.com/catalog/EN300-27750461

> <ROCS_ShapeQuery>
_hit0

> <ROCS_TanimotoCombo>
1.003 

> <ROCS_ShapeTanimoto>
0.504 

> <ROCS_ColorTanimoto>
0.500 

> <ROCS_RefTversky>
1.317 

> <ROCS_RefColorTversky>
0.741 

> <ROCS_RefTverskyCombo>
2.058 

> <ROCS_FitTversky>
0.449 

> <ROCS_FitColorTversky>
0.606 

> <ROCS_FitTverskyCombo>
1.055 

> <ROCS_ColorScore>
-3.000

> <ROCS_Overlap>
160.005

> <ROCS_Rank>
380                 

$$$$
untitled-dbase-31467_0
  -OEChem-06232314393D

 14 14  0     0  0  0  0  0  0999 V2000
   -6.5257    8.4461  -34.2156 C   0  0  0  0  0  0  0  0  0  0  0  0
   -6.4932    7.4072  -34.8167 C   0  0  0  0  0  0  0  0  0  0  0  0
   -5.9891    6.1168  -36.8401 C   0  0  0  0  0  0  0  0  0  0  0  0
   -6.8802    4.9933  -34.9427 C   0  0  0  0  0  0  0  0  0  0  0  0
   -6.4108    3.7762  -36.8338 C   0  0  0  0  0  0  0  0  0  0  0  0
   -6.4547    6.1733  -35.5312 C   0  0  0  0  0  0  0  0  0  0  0  0
   -5.9635    4.8992  -37.5110 C   0  0  0  0  0  0  0  0  0  0  0  0
   -6.8702    3.7919  -35.5625 N   0  0  0  0  0  0  0  0  0  0  0  0
   -5.5148    4.8136  -38.7877 O   0  0  0  0  0  0  0  0  0  0  0  0
   -6.5542    9.3678  -33.6828 H   0  0  0  0  0  0  0  0  0  0  0  0
   -5.6445    7.0165  -37.3448 H   0  0  0  0  0  0  0  0  0  0  0  0
   -7.2548    4.9700  -33.9233 H   0  0  0  0  0  0  0  0  0  0  0  0
   -6.4128    2.7998  -37.3082 H   0  0  0  0  0  0  0  0  0  0  0  0
   -5.2400    5.6879  -39.1125 H   0  0  0  0  0  0  0  0  0  0  0  0
  1  2  3  0  0  0  0
  2  6  1  0  0  0  0
  3  6  2  0  0  0  0
  3  7  1  0  0  0  0
  4  6  1  0  0  0  0
  4  8  2  0  0  0  0
  5  7  2  0  0  0  0
  5  8  1  0  0  0  0
  7  9  1  0  0  0  0
  1 10  1  0  0  0  0
  3 11  1  0  0  0  0
  4 12  1  0  0  0  0
  5 13  1  0  0  0  0
  9 14  1  0  0  0  0
M  END
> <id>
EN300-4251721

> <smiles>
OC=1C=NC=C(C#C)C1

> <MDLNUMBER>
MFCD18205078

> <IUPAC Name>
5-ethynylpyridin-3-ol

> <CAS>
1207351-13-0

> <Purity>
95

> <URL>
https://www.enaminestore.com/catalog/EN300-4251721

> <ROCS_ShapeQuery>
_hit0

> <ROCS_TanimotoCombo>
1.003 

> <ROCS_ShapeTanimoto>
0.504 

> <ROCS_ColorTanimoto>
0.500 

> <ROCS_RefTversky>
1.366 

> <ROCS_RefColorTversky>
0.740 

> <ROCS_RefTverskyCombo>
2.106 

> <ROCS_FitTversky>
0.444 

> <ROCS_FitColorTversky>
0.606 

> <ROCS_FitTverskyCombo>
1.050 

> <ROCS_ColorScore>
-2.999

> <ROCS_Overlap>
167.438

> <ROCS_Rank>
381                 

$$$$
untitled-dbase-3332_0
  -OEChem-06232314393D

 14 14  0     0  0  0  0  0  0999 V2000
   -6.8968    3.4214  -35.6592 C   0  0  0  0  0  0  0  0  0  0  0  0
   -6.4339    3.5278  -36.9707 C   0  0  0  0  0  0  0  0  0  0  0  0
   -6.9059    4.5427  -34.8296 C   0  0  0  0  0  0  0  0  0  0  0  0
   -5.9892    5.8770  -36.6230 C   0  0  0  0  0  0  0  0  0  0  0  0
   -5.9801    4.7556  -37.4526 C   0  0  0  0  0  0  0  0  0  0  0  0
   -6.4521    5.7705  -35.3115 C   0  0  0  0  0  0  0  0  0  0  0  0
   -5.5267    4.8588  -38.7317 O   0  0  0  0  0  0  0  0  0  0  0  0
   -6.4633    6.8648  -34.5024 O   0  0  0  0  0  0  0  0  0  0  0  0
   -7.2502    2.4654  -35.2841 H   0  0  0  0  0  0  0  0  0  0  0  0
   -6.4288    2.6509  -37.6122 H   0  0  0  0  0  0  0  0  0  0  0  0
   -7.2688    4.4542  -33.8092 H   0  0  0  0  0  0  0  0  0  0  0  0
   -5.6351    6.8337  -36.9984 H   0  0  0  0  0  0  0  0  0  0  0  0
   -5.5815    3.9990  -39.1784 H   0  0  0  0  0  0  0  0  0  0  0  0
   -6.8123    6.6326  -33.6271 H   0  0  0  0  0  0  0  0  0  0  0  0
  1  2  1  0  0  0  0
  1  3  2  0  0  0  0
  2  5  2  0  0  0  0
  3  6  1  0  0  0  0
  4  5  1  0  0  0  0
  4  6  2  0  0  0  0
  5  7  1  0  0  0  0
  6  8  1  0  0  0  0
  1  9  1  0  0  0  0
  2 10  1  0  0  0  0
  3 11  1  0  0  0  0
  4 12  1  0  0  0  0
  7 13  1  0  0  0  0
  8 14  1  0  0  0  0
M  END
> <id>
EN300-19643

> <smiles>
OC=1C=CC=C(O)C1

> <MDLNUMBER>
MFCD00002269

> <IUPAC Name>
benzene-1,3-diol

> <CAS>
108-46-3

> <Purity>
95

> <URL>
https://www.enaminestore.com/catalog/EN300-19643

> <MP>
109-111

> <ROCS_ShapeQuery>
_hit0

> <ROCS_TanimotoCombo>
1.003 

> <ROCS_ShapeTanimoto>
0.514 

> <ROCS_ColorTanimoto>
0.489 

> <ROCS_RefTversky>
1.280 

> <ROCS_RefColorTversky>
0.729 

> <ROCS_RefTverskyCombo>
2.009 

> <ROCS_FitTversky>
0.462 

> <ROCS_FitColorTversky>
0.597 

> <ROCS_FitTverskyCombo>
1.059 

> <ROCS_ColorScore>
-2.954

> <ROCS_Overlap>
153.942

> <ROCS_Rank>
382                 

$$$$
untitled-dbase-52568_23
  -OEChem-06232314393D

 24 24  0     1  0  0  0  0  0999 V2000
   -6.6995    4.0034  -35.3634 C   0  0  0  0  0  0  0  0  0  0  0  0
   -7.7880    5.0523  -35.1275 C   0  0  0  0  0  0  0  0  0  0  0  0
   -6.7306    6.8161  -36.6909 C   0  0  0  0  0  0  0  0  0  0  0  0
   -6.3942    3.8150  -36.8453 C   0  0  0  0  0  0  0  0  0  0  0  0
   -5.3446    6.2000  -36.9075 C   0  0  0  0  0  0  0  0  0  0  0  0
   -7.3769    6.5155  -35.3276 C   0  0  2  0  0  0  0  0  0  0  0  0
   -5.3437    4.7616  -37.4238 C   0  0  2  0  0  0  0  0  0  0  0  0
   -6.5104    6.9535  -34.2294 N   0  0  0  0  0  0  0  0  0  0  0  0
   -5.5101    4.7973  -38.8443 O   0  0  0  0  0  0  0  0  0  0  0  0
   -5.7888    4.3273  -34.8757 H   0  0  0  0  0  0  0  0  0  0  0  0
   -6.9895    3.0595  -34.9243 H   0  0  0  0  0  0  0  0  0  0  0  0
   -8.6076    4.8206  -35.8450 H   0  0  0  0  0  0  0  0  0  0  0  0
   -8.2548    4.9046  -34.1262 H   0  0  0  0  0  0  0  0  0  0  0  0
   -6.6668    7.8993  -36.8459 H   0  0  0  0  0  0  0  0  0  0  0  0
   -7.3909    6.4334  -37.4781 H   0  0  0  0  0  0  0  0  0  0  0  0
   -6.0493    2.7942  -37.0103 H   0  0  0  0  0  0  0  0  0  0  0  0
   -7.3257    3.9027  -37.4033 H   0  0  0  0  0  0  0  0  0  0  0  0
   -4.7305    6.8496  -37.5625 H   0  0  0  0  0  0  0  0  0  0  0  0
   -4.8176    6.2281  -35.9331 H   0  0  0  0  0  0  0  0  0  0  0  0
   -8.3143    7.1367  -35.2622 H   0  0  0  0  0  0  0  0  0  0  0  0
   -4.3338    4.3182  -37.2595 H   0  0  0  0  0  0  0  0  0  0  0  0
   -6.3216    7.9167  -34.3587 H   0  0  0  0  0  0  0  0  0  0  0  0
   -6.9953    6.7959  -33.3808 H   0  0  0  0  0  0  0  0  0  0  0  0
   -5.3823    3.8892  -39.1548 H   0  0  0  0  0  0  0  0  0  0  0  0
  1  2  1  0  0  0  0
  1  4  1  0  0  0  0
  2  6  1  0  0  0  0
  3  5  1  0  0  0  0
  3  6  1  0  0  0  0
  4  7  1  0  0  0  0
  5  7  1  0  0  0  0
  6  8  1  0  0  0  0
  7  9  1  0  0  0  0
  1 10  1  0  0  0  0
  1 11  1  0  0  0  0
  2 12  1  0  0  0  0
  2 13  1  0  0  0  0
  3 14  1  0  0  0  0
  3 15  1  0  0  0  0
  4 16  1  0  0  0  0
  4 17  1  0  0  0  0
  5 18  1  0  0  0  0
  5 19  1  0  0  0  0
  6 20  1  0  0  0  0
  7 21  1  0  0  0  0
  8 22  1  0  0  0  0
  8 23  1  0  0  0  0
  9 24  1  0  0  0  0
M  END
> <id>
EN300-23608524

> <smiles>
Cl.NC1CCCC(O)CC1

> <MDLNUMBER>
MFCD34602303

> <IUPAC Name>
4-aminocycloheptan-1-ol hydrochloride

> <CAS>
2703752-28-5

> <Purity>
95

> <URL>
https://www.enaminestore.com/catalog/EN300-23608524

> <ROCS_ShapeQuery>
_hit0

> <ROCS_TanimotoCombo>
1.003 

> <ROCS_ShapeTanimoto>
0.507 

> <ROCS_ColorTanimoto>
0.496 

> <ROCS_RefTversky>
1.292 

> <ROCS_RefColorTversky>
0.737 

> <ROCS_RefTverskyCombo>
2.029 

> <ROCS_FitTversky>
0.455 

> <ROCS_FitColorTversky>
0.603 

> <ROCS_FitTverskyCombo>
1.058 

> <ROCS_ColorScore>
-2.983

> <ROCS_Overlap>
156.125

> <ROCS_Rank>
383                 

$$$$
untitled-dbase-44080_23
  -OEChem-06232314393D

 24 24  0     1  0  0  0  0  0999 V2000
   -6.6995    4.0034  -35.3634 C   0  0  0  0  0  0  0  0  0  0  0  0
   -7.7880    5.0523  -35.1275 C   0  0  0  0  0  0  0  0  0  0  0  0
   -6.7306    6.8161  -36.6909 C   0  0  0  0  0  0  0  0  0  0  0  0
   -6.3942    3.8150  -36.8453 C   0  0  0  0  0  0  0  0  0  0  0  0
   -5.3446    6.2000  -36.9075 C   0  0  0  0  0  0  0  0  0  0  0  0
   -7.3769    6.5155  -35.3276 C   0  0  2  0  0  0  0  0  0  0  0  0
   -5.3437    4.7616  -37.4238 C   0  0  2  0  0  0  0  0  0  0  0  0
   -6.5104    6.9535  -34.2294 N   0  0  0  0  0  0  0  0  0  0  0  0
   -5.5101    4.7973  -38.8443 O   0  0  0  0  0  0  0  0  0  0  0  0
   -5.7888    4.3273  -34.8757 H   0  0  0  0  0  0  0  0  0  0  0  0
   -6.9895    3.0595  -34.9243 H   0  0  0  0  0  0  0  0  0  0  0  0
   -8.6076    4.8206  -35.8450 H   0  0  0  0  0  0  0  0  0  0  0  0
   -8.2548    4.9046  -34.1262 H   0  0  0  0  0  0  0  0  0  0  0  0
   -6.6668    7.8993  -36.8459 H   0  0  0  0  0  0  0  0  0  0  0  0
   -7.3909    6.4334  -37.4781 H   0  0  0  0  0  0  0  0  0  0  0  0
   -6.0493    2.7942  -37.0103 H   0  0  0  0  0  0  0  0  0  0  0  0
   -7.3257    3.9027  -37.4033 H   0  0  0  0  0  0  0  0  0  0  0  0
   -4.7305    6.8496  -37.5625 H   0  0  0  0  0  0  0  0  0  0  0  0
   -4.8176    6.2281  -35.9331 H   0  0  0  0  0  0  0  0  0  0  0  0
   -8.3143    7.1367  -35.2622 H   0  0  0  0  0  0  0  0  0  0  0  0
   -4.3338    4.3182  -37.2595 H   0  0  0  0  0  0  0  0  0  0  0  0
   -6.3216    7.9167  -34.3587 H   0  0  0  0  0  0  0  0  0  0  0  0
   -6.9953    6.7959  -33.3808 H   0  0  0  0  0  0  0  0  0  0  0  0
   -5.3823    3.8892  -39.1548 H   0  0  0  0  0  0  0  0  0  0  0  0
  1  2  1  0  0  0  0
  1  4  1  0  0  0  0
  2  6  1  0  0  0  0
  3  5  1  0  0  0  0
  3  6  1  0  0  0  0
  4  7  1  0  0  0  0
  5  7  1  0  0  0  0
  6  8  1  0  0  0  0
  7  9  1  0  0  0  0
  1 10  1  0  0  0  0
  1 11  1  0  0  0  0
  2 12  1  0  0  0  0
  2 13  1  0  0  0  0
  3 14  1  0  0  0  0
  3 15  1  0  0  0  0
  4 16  1  0  0  0  0
  4 17  1  0  0  0  0
  5 18  1  0  0  0  0
  5 19  1  0  0  0  0
  6 20  1  0  0  0  0
  7 21  1  0  0  0  0
  8 22  1  0  0  0  0
  8 23  1  0  0  0  0
  9 24  1  0  0  0  0
M  END
> <id>
EN300-296889

> <smiles>
NC1CCCC(O)CC1

> <MDLNUMBER>
MFCD24497096

> <IUPAC Name>
4-aminocycloheptan-1-ol

> <CAS>
1824309-98-9

> <URL>
https://www.enaminestore.com/catalog/EN300-296889

> <ROCS_ShapeQuery>
_hit0

> <ROCS_TanimotoCombo>
1.003 

> <ROCS_ShapeTanimoto>
0.507 

> <ROCS_ColorTanimoto>
0.496 

> <ROCS_RefTversky>
1.292 

> <ROCS_RefColorTversky>
0.737 

> <ROCS_RefTverskyCombo>
2.029 

> <ROCS_FitTversky>
0.455 

> <ROCS_FitColorTversky>
0.603 

> <ROCS_FitTverskyCombo>
1.058 

> <ROCS_ColorScore>
-2.983

> <ROCS_Overlap>
156.125

> <ROCS_Rank>
384                 

$$$$
untitled-dbase-2150_0
  -OEChem-06232314393D

 13 13  0     0  0  0  0  0  0999 V2000
   -6.4275    3.7900  -36.8140 C   0  0  0  0  0  0  0  0  0  0  0  0
   -6.8728    4.9775  -34.8983 C   0  0  0  0  0  0  0  0  0  0  0  0
   -5.9692    4.9198  -37.4722 C   0  0  0  0  0  0  0  0  0  0  0  0
   -5.9763    6.1250  -36.7787 C   0  0  0  0  0  0  0  0  0  0  0  0
   -6.4351    6.1629  -35.4667 C   0  0  0  0  0  0  0  0  0  0  0  0
   -6.8807    3.7878  -35.5403 N   0  0  0  0  0  0  0  0  0  0  0  0
   -5.5184    4.8129  -38.8012 N   0  0  0  0  0  0  0  0  0  0  0  0
   -5.4104    7.5616  -37.5702 Cl  0  0  0  0  0  0  0  0  0  0  0  0
   -6.4997    7.7382  -34.4174 Br  0  0  0  0  0  0  0  0  0  0  0  0
   -6.4463    2.8197  -37.3012 H   0  0  0  0  0  0  0  0  0  0  0  0
   -7.2430    4.9353  -33.8782 H   0  0  0  0  0  0  0  0  0  0  0  0
   -5.4904    3.9127  -39.2391 H   0  0  0  0  0  0  0  0  0  0  0  0
   -5.1439    5.6211  -39.2588 H   0  0  0  0  0  0  0  0  0  0  0  0
  1  3  2  0  0  0  0
  1  6  1  0  0  0  0
  2  5  1  0  0  0  0
  2  6  2  0  0  0  0
  3  4  1  0  0  0  0
  3  7  1  0  0  0  0
  4  5  2  0  0  0  0
  4  8  1  0  0  0  0
  5  9  1  0  0  0  0
  1 10  1  0  0  0  0
  2 11  1  0  0  0  0
  7 12  1  0  0  0  0
  7 13  1  0  0  0  0
M  END
> <id>
EN300-114984

> <smiles>
NC=1C=NC=C(Br)C1Cl

> <MDLNUMBER>
MFCD12828485

> <IUPAC Name>
5-bromo-4-chloropyridin-3-amine

> <CAS>
89283-92-1

> <Purity>
95

> <URL>
https://www.enaminestore.com/catalog/EN300-114984

> <MP>
105-108

> <ROCS_ShapeQuery>
_hit0

> <ROCS_TanimotoCombo>
1.003 

> <ROCS_ShapeTanimoto>
0.503 

> <ROCS_ColorTanimoto>
0.500 

> <ROCS_RefTversky>
1.316 

> <ROCS_RefColorTversky>
0.741 

> <ROCS_RefTverskyCombo>
2.057 

> <ROCS_FitTversky>
0.449 

> <ROCS_FitColorTversky>
0.606 

> <ROCS_FitTverskyCombo>
1.055 

> <ROCS_ColorScore>
-3.000

> <ROCS_Overlap>
159.911

> <ROCS_Rank>
385                 

$$$$
untitled-dbase-42823_0
  -OEChem-06232314393D

 13 13  0     0  0  0  0  0  0999 V2000
   -6.4275    3.7900  -36.8140 C   0  0  0  0  0  0  0  0  0  0  0  0
   -6.8728    4.9775  -34.8983 C   0  0  0  0  0  0  0  0  0  0  0  0
   -5.9692    4.9198  -37.4722 C   0  0  0  0  0  0  0  0  0  0  0  0
   -5.9763    6.1250  -36.7787 C   0  0  0  0  0  0  0  0  0  0  0  0
   -6.4351    6.1629  -35.4667 C   0  0  0  0  0  0  0  0  0  0  0  0
   -6.8807    3.7878  -35.5403 N   0  0  0  0  0  0  0  0  0  0  0  0
   -5.5184    4.8129  -38.8012 N   0  0  0  0  0  0  0  0  0  0  0  0
   -5.4104    7.5616  -37.5702 Cl  0  0  0  0  0  0  0  0  0  0  0  0
   -6.4997    7.7382  -34.4174 Br  0  0  0  0  0  0  0  0  0  0  0  0
   -6.4463    2.8197  -37.3012 H   0  0  0  0  0  0  0  0  0  0  0  0
   -7.2430    4.9353  -33.8782 H   0  0  0  0  0  0  0  0  0  0  0  0
   -5.4904    3.9127  -39.2391 H   0  0  0  0  0  0  0  0  0  0  0  0
   -5.1439    5.6211  -39.2588 H   0  0  0  0  0  0  0  0  0  0  0  0
  1  3  2  0  0  0  0
  1  6  1  0  0  0  0
  2  5  1  0  0  0  0
  2  6  2  0  0  0  0
  3  4  1  0  0  0  0
  3  7  1  0  0  0  0
  4  5  2  0  0  0  0
  4  8  1  0  0  0  0
  5  9  1  0  0  0  0
  1 10  1  0  0  0  0
  2 11  1  0  0  0  0
  7 12  1  0  0  0  0
  7 13  1  0  0  0  0
M  END
> <id>
EN300-27737117

> <smiles>
Cl.NC=1C=NC=C(Br)C1Cl

> <MDLNUMBER>
MFCD33031833

> <IUPAC Name>
5-bromo-4-chloropyridin-3-amine hydrochloride

> <CAS>
2613381-40-9

> <Purity>
95

> <URL>
https://www.enaminestore.com/catalog/EN300-27737117

> <ROCS_ShapeQuery>
_hit0

> <ROCS_TanimotoCombo>
1.003 

> <ROCS_ShapeTanimoto>
0.503 

> <ROCS_ColorTanimoto>
0.500 

> <ROCS_RefTversky>
1.316 

> <ROCS_RefColorTversky>
0.741 

> <ROCS_RefTverskyCombo>
2.057 

> <ROCS_FitTversky>
0.449 

> <ROCS_FitColorTversky>
0.606 

> <ROCS_FitTverskyCombo>
1.055 

> <ROCS_ColorScore>
-3.000

> <ROCS_Overlap>
159.911

> <ROCS_Rank>
386                 

$$$$
untitled-dbase-27609_0
  -OEChem-06232314393D

 17 17  0     0  0  0  0  0  0999 V2000
   -6.4083    3.4073  -37.2461 C   0  0  0  0  0  0  0  0  0  0  0  0
   -6.8898    3.2505  -35.9564 C   0  0  0  0  0  0  0  0  0  0  0  0
   -5.9990    5.7164  -36.7123 C   0  0  0  0  0  0  0  0  0  0  0  0
   -5.9563    4.6669  -37.6234 C   0  0  0  0  0  0  0  0  0  0  0  0
   -6.4990    5.4563  -35.4466 C   0  0  0  0  0  0  0  0  0  0  0  0
   -5.5171    7.0737  -37.1044 C   0  0  0  0  0  0  0  0  0  0  0  0
   -6.9470    4.2461  -35.0436 N   0  0  0  0  0  0  0  0  0  0  0  0
   -6.5447    6.5215  -34.5126 N   0  0  0  0  0  0  0  0  0  0  0  0
   -5.4772    4.8520  -38.8846 O   0  0  0  0  0  0  0  0  0  0  0  0
   -6.3870    2.5701  -37.9354 H   0  0  0  0  0  0  0  0  0  0  0  0
   -7.2550    2.2883  -35.6130 H   0  0  0  0  0  0  0  0  0  0  0  0
   -6.3397    7.6621  -37.5277 H   0  0  0  0  0  0  0  0  0  0  0  0
   -5.1091    7.6148  -36.2414 H   0  0  0  0  0  0  0  0  0  0  0  0
   -4.7139    7.0100  -37.8494 H   0  0  0  0  0  0  0  0  0  0  0  0
   -6.9459    6.3573  -33.6152 H   0  0  0  0  0  0  0  0  0  0  0  0
   -6.2621    7.4308  -34.8065 H   0  0  0  0  0  0  0  0  0  0  0  0
   -5.5189    4.0216  -39.3847 H   0  0  0  0  0  0  0  0  0  0  0  0
  1  2  1  0  0  0  0
  1  4  2  0  0  0  0
  2  7  2  0  0  0  0
  3  4  1  0  0  0  0
  3  5  2  0  0  0  0
  3  6  1  0  0  0  0
  4  9  1  0  0  0  0
  5  7  1  0  0  0  0
  5  8  1  0  0  0  0
  1 10  1  0  0  0  0
  2 11  1  0  0  0  0
  6 12  1  0  0  0  0
  6 13  1  0  0  0  0
  6 14  1  0  0  0  0
  8 15  1  0  0  0  0
  8 16  1  0  0  0  0
  9 17  1  0  0  0  0
M  END
> <id>
EN300-204214

> <smiles>
CC=1C(N)=NC=CC1O

> <MDLNUMBER>
MFCD16606176

> <IUPAC Name>
2-amino-3-methylpyridin-4-ol

> <CAS>
1227602-70-1

> <URL>
https://www.enaminestore.com/catalog/EN300-204214

> <ROCS_ShapeQuery>
_hit0

> <ROCS_TanimotoCombo>
1.003 

> <ROCS_ShapeTanimoto>
0.476 

> <ROCS_ColorTanimoto>
0.526 

> <ROCS_RefTversky>
1.318 

> <ROCS_RefColorTversky>
0.842 

> <ROCS_RefTverskyCombo>
2.160 

> <ROCS_FitTversky>
0.427 

> <ROCS_FitColorTversky>
0.584 

> <ROCS_FitTverskyCombo>
1.011 

> <ROCS_ColorScore>
-3.451

> <ROCS_Overlap>
161.750

> <ROCS_Rank>
387                 

$$$$
untitled-dbase-27637_0
  -OEChem-06232314393D

 17 17  0     0  0  0  0  0  0999 V2000
   -6.4083    3.4073  -37.2461 C   0  0  0  0  0  0  0  0  0  0  0  0
   -6.8898    3.2505  -35.9564 C   0  0  0  0  0  0  0  0  0  0  0  0
   -5.9990    5.7164  -36.7123 C   0  0  0  0  0  0  0  0  0  0  0  0
   -5.9563    4.6669  -37.6234 C   0  0  0  0  0  0  0  0  0  0  0  0
   -6.4990    5.4563  -35.4466 C   0  0  0  0  0  0  0  0  0  0  0  0
   -5.5171    7.0737  -37.1044 C   0  0  0  0  0  0  0  0  0  0  0  0
   -6.9470    4.2461  -35.0436 N   0  0  0  0  0  0  0  0  0  0  0  0
   -6.5447    6.5215  -34.5126 N   0  0  0  0  0  0  0  0  0  0  0  0
   -5.4772    4.8520  -38.8846 O   0  0  0  0  0  0  0  0  0  0  0  0
   -6.3870    2.5701  -37.9354 H   0  0  0  0  0  0  0  0  0  0  0  0
   -7.2550    2.2883  -35.6130 H   0  0  0  0  0  0  0  0  0  0  0  0
   -6.3397    7.6621  -37.5277 H   0  0  0  0  0  0  0  0  0  0  0  0
   -5.1091    7.6148  -36.2414 H   0  0  0  0  0  0  0  0  0  0  0  0
   -4.7139    7.0100  -37.8494 H   0  0  0  0  0  0  0  0  0  0  0  0
   -6.9459    6.3573  -33.6152 H   0  0  0  0  0  0  0  0  0  0  0  0
   -6.2621    7.4308  -34.8065 H   0  0  0  0  0  0  0  0  0  0  0  0
   -5.5189    4.0216  -39.3847 H   0  0  0  0  0  0  0  0  0  0  0  0
  1  2  1  0  0  0  0
  1  4  2  0  0  0  0
  2  7  2  0  0  0  0
  3  4  1  0  0  0  0
  3  5  2  0  0  0  0
  3  6  1  0  0  0  0
  4  9  1  0  0  0  0
  5  7  1  0  0  0  0
  5  8  1  0  0  0  0
  1 10  1  0  0  0  0
  2 11  1  0  0  0  0
  6 12  1  0  0  0  0
  6 13  1  0  0  0  0
  6 14  1  0  0  0  0
  8 15  1  0  0  0  0
  8 16  1  0  0  0  0
  9 17  1  0  0  0  0
M  END
> <id>
EN300-7443034

> <smiles>
Br.CC=1C(N)=NC=CC1O

> <MDLNUMBER>
MFCD32198032

> <IUPAC Name>
2-amino-3-methylpyridin-4-ol hydrobromide

> <CAS>
2375269-91-1

> <Purity>
95

> <URL>
https://www.enaminestore.com/catalog/EN300-7443034

> <Saltdate>
Br

> <ROCS_ShapeQuery>
_hit0

> <ROCS_TanimotoCombo>
1.003 

> <ROCS_ShapeTanimoto>
0.476 

> <ROCS_ColorTanimoto>
0.526 

> <ROCS_RefTversky>
1.318 

> <ROCS_RefColorTversky>
0.842 

> <ROCS_RefTverskyCombo>
2.160 

> <ROCS_FitTversky>
0.427 

> <ROCS_FitColorTversky>
0.584 

> <ROCS_FitTverskyCombo>
1.011 

> <ROCS_ColorScore>
-3.451

> <ROCS_Overlap>
161.750

> <ROCS_Rank>
388                 

$$$$
untitled-dbase-47639_0
  -OEChem-06232314393D

 12 12  0     0  0  0  0  0  0999 V2000
   -6.4538    3.7927  -36.8123 C   0  0  0  0  0  0  0  0  0  0  0  0
   -5.8769    6.0552  -36.7441 C   0  0  0  0  0  0  0  0  0  0  0  0
   -6.7645    5.0209  -34.9249 C   0  0  0  0  0  0  0  0  0  0  0  0
   -5.9394    4.8874  -37.4766 C   0  0  0  0  0  0  0  0  0  0  0  0
   -6.8773    3.8240  -35.5317 N   0  0  0  0  0  0  0  0  0  0  0  0
   -6.2824    6.1581  -35.4614 N   0  0  0  0  0  0  0  0  0  0  0  0
   -5.5112    4.8181  -38.8058 N   0  0  0  0  0  0  0  0  0  0  0  0
   -6.5450    2.8263  -37.2989 H   0  0  0  0  0  0  0  0  0  0  0  0
   -5.4901    6.9740  -37.1743 H   0  0  0  0  0  0  0  0  0  0  0  0
   -7.0966    5.0745  -33.8955 H   0  0  0  0  0  0  0  0  0  0  0  0
   -5.5301    3.9377  -39.2921 H   0  0  0  0  0  0  0  0  0  0  0  0
   -5.0984    5.6259  -39.2407 H   0  0  0  0  0  0  0  0  0  0  0  0
  1  4  2  0  0  0  0
  1  5  1  0  0  0  0
  2  4  1  0  0  0  0
  2  6  2  0  0  0  0
  3  5  2  0  0  0  0
  3  6  1  0  0  0  0
  4  7  1  0  0  0  0
  1  8  1  0  0  0  0
  2  9  1  0  0  0  0
  3 10  1  0  0  0  0
  7 11  1  0  0  0  0
  7 12  1  0  0  0  0
M  END
> <id>
EN300-139664

> <smiles>
NC=1C=NC=NC1

> <MDLNUMBER>
MFCD01529870

> <IUPAC Name>
pyrimidin-5-amine

> <CAS>
591-55-9

> <Purity>
95

> <URL>
https://www.enaminestore.com/catalog/EN300-139664

> <MP>
170-174

> <ROCS_ShapeQuery>
_hit0

> <ROCS_TanimotoCombo>
1.002 

> <ROCS_ShapeTanimoto>
0.502 

> <ROCS_ColorTanimoto>
0.500 

> <ROCS_RefTversky>
1.170 

> <ROCS_RefColorTversky>
0.741 

> <ROCS_RefTverskyCombo>
1.911 

> <ROCS_FitTversky>
0.468 

> <ROCS_FitColorTversky>
0.606 

> <ROCS_FitTverskyCombo>
1.074 

> <ROCS_ColorScore>
-3.002

> <ROCS_Overlap>
138.367

> <ROCS_Rank>
389                 

$$$$
untitled-dbase-46135_0
  -OEChem-06232314393D

 12 12  0     0  0  0  0  0  0999 V2000
   -6.4283    3.8053  -36.8514 C   0  0  0  0  0  0  0  0  0  0  0  0
   -6.8235    4.9797  -34.9167 C   0  0  0  0  0  0  0  0  0  0  0  0
   -5.9383    4.9290  -37.4972 C   0  0  0  0  0  0  0  0  0  0  0  0
   -6.3518    6.1583  -35.4718 C   0  0  0  0  0  0  0  0  0  0  0  0
   -5.9027    6.1240  -36.7873 C   0  0  0  0  0  0  0  0  0  0  0  0
   -6.8734    3.7998  -35.5749 N   0  0  0  0  0  0  0  0  0  0  0  0
   -5.5183    4.8139  -38.7842 O   0  0  0  0  0  0  0  0  0  0  0  0
   -6.3617    7.5711  -34.4828 Cl  0  0  0  0  0  0  0  0  0  0  0  0
   -5.1586    7.8503  -37.7545 I   0  0  0  0  0  0  0  0  0  0  0  0
   -6.4800    2.8454  -37.3558 H   0  0  0  0  0  0  0  0  0  0  0  0
   -7.1891    4.9362  -33.8949 H   0  0  0  0  0  0  0  0  0  0  0  0
   -5.2010    5.6703  -39.1149 H   0  0  0  0  0  0  0  0  0  0  0  0
  1  3  2  0  0  0  0
  1  6  1  0  0  0  0
  2  4  1  0  0  0  0
  2  6  2  0  0  0  0
  3  5  1  0  0  0  0
  3  7  1  0  0  0  0
  4  5  2  0  0  0  0
  4  8  1  0  0  0  0
  5  9  1  0  0  0  0
  1 10  1  0  0  0  0
  2 11  1  0  0  0  0
  7 12  1  0  0  0  0
M  END
> <id>
EN300-20959194

> <smiles>
OC=1C=NC=C(Cl)C1I

> <MDLNUMBER>
MFCD28752900

> <IUPAC Name>
5-chloro-4-iodopyridin-3-ol

> <CAS>
1807171-86-3

> <Purity>
95

> <URL>
https://www.enaminestore.com/catalog/EN300-20959194

> <ROCS_ShapeQuery>
_hit0

> <ROCS_TanimotoCombo>
1.002 

> <ROCS_ShapeTanimoto>
0.503 

> <ROCS_ColorTanimoto>
0.499 

> <ROCS_RefTversky>
1.310 

> <ROCS_RefColorTversky>
0.740 

> <ROCS_RefTverskyCombo>
2.051 

> <ROCS_FitTversky>
0.449 

> <ROCS_FitColorTversky>
0.606 

> <ROCS_FitTverskyCombo>
1.055 

> <ROCS_ColorScore>
-2.998

> <ROCS_Overlap>
159.059

> <ROCS_Rank>
390                 

$$$$
untitled-dbase-52387_0
  -OEChem-06232314393D

 12 12  0     0  0  0  0  0  0999 V2000
   -6.3513    3.2090  -37.4936 C   0  0  0  0  0  0  0  0  0  0  0  0
   -6.8591    2.8886  -36.2449 C   0  0  0  0  0  0  0  0  0  0  0  0
   -5.9552    4.5229  -37.7175 C   0  0  0  0  0  0  0  0  0  0  0  0
   -6.0772    5.4629  -36.7002 C   0  0  0  0  0  0  0  0  0  0  0  0
   -6.5975    5.0416  -35.4871 C   0  0  0  0  0  0  0  0  0  0  0  0
   -6.9929    3.7741  -35.2322 N   0  0  0  0  0  0  0  0  0  0  0  0
   -5.4550    4.8555  -38.9407 O   0  0  0  0  0  0  0  0  0  0  0  0
   -5.5895    7.0969  -36.9710 Cl  0  0  0  0  0  0  0  0  0  0  0  0
   -6.8096    6.0899  -34.1366 Cl  0  0  0  0  0  0  0  0  0  0  0  0
   -6.2679    2.4541  -38.2678 H   0  0  0  0  0  0  0  0  0  0  0  0
   -7.1822    1.8776  -36.0195 H   0  0  0  0  0  0  0  0  0  0  0  0
   -5.2193    5.7962  -38.9613 H   0  0  0  0  0  0  0  0  0  0  0  0
  1  2  1  0  0  0  0
  1  3  2  0  0  0  0
  2  6  2  0  0  0  0
  3  4  1  0  0  0  0
  3  7  1  0  0  0  0
  4  5  2  0  0  0  0
  4  8  1  0  0  0  0
  5  6  1  0  0  0  0
  5  9  1  0  0  0  0
  1 10  1  0  0  0  0
  2 11  1  0  0  0  0
  7 12  1  0  0  0  0
M  END
> <id>
EN300-6963428

> <smiles>
OC=1C=CN=C(Cl)C1Cl

> <MDLNUMBER>
MFCD16610774

> <IUPAC Name>
2,3-dichloropyridin-4-ol

> <CAS>
1174047-06-3

> <Purity>
95

> <URL>
https://www.enaminestore.com/catalog/EN300-6963428

> <ROCS_ShapeQuery>
_hit0

> <ROCS_TanimotoCombo>
1.002 

> <ROCS_ShapeTanimoto>
0.449 

> <ROCS_ColorTanimoto>
0.553 

> <ROCS_RefTversky>
1.232 

> <ROCS_RefColorTversky>
0.712 

> <ROCS_RefTverskyCombo>
1.944 

> <ROCS_FitTversky>
0.414 

> <ROCS_FitColorTversky>
0.712 

> <ROCS_FitTverskyCombo>
1.126 

> <ROCS_ColorScore>
-2.849

> <ROCS_Overlap>
150.079

> <ROCS_Rank>
391                 

$$$$
untitled-dbase-8083_0
  -OEChem-06232314393D

 18 18  0     1  0  0  0  0  0999 V2000
   -6.3253    4.5103  -35.3845 C   0  0  0  0  0  0  0  0  0  0  0  0
   -6.5608    3.8629  -36.7486 C   0  0  0  0  0  0  0  0  0  0  0  0
   -6.3767    6.2965  -36.9459 C   0  0  0  0  0  0  0  0  0  0  0  0
   -6.8799    5.9202  -35.5568 C   0  0  2  0  0  0  0  0  0  0  0  0
   -6.5694    5.0159  -37.7590 C   0  0  1  0  0  0  0  0  0  0  0  0
   -6.4357    6.8324  -34.5170 N   0  0  0  0  0  0  0  0  0  0  0  0
   -5.5203    4.8570  -38.6998 O   0  0  0  0  0  0  0  0  0  0  0  0
   -6.8174    3.9594  -34.5764 H   0  0  0  0  0  0  0  0  0  0  0  0
   -5.2489    4.5330  -35.1706 H   0  0  0  0  0  0  0  0  0  0  0  0
   -5.8071    3.0995  -36.9667 H   0  0  0  0  0  0  0  0  0  0  0  0
   -7.5424    3.3740  -36.7487 H   0  0  0  0  0  0  0  0  0  0  0  0
   -6.9351    7.1358  -37.3743 H   0  0  0  0  0  0  0  0  0  0  0  0
   -5.3179    6.5875  -36.9282 H   0  0  0  0  0  0  0  0  0  0  0  0
   -7.9809    5.8834  -35.5603 H   0  0  0  0  0  0  0  0  0  0  0  0
   -7.5201    5.0306  -38.3037 H   0  0  0  0  0  0  0  0  0  0  0  0
   -6.8060    7.7366  -34.7060 H   0  0  0  0  0  0  0  0  0  0  0  0
   -6.7675    6.5009  -33.6392 H   0  0  0  0  0  0  0  0  0  0  0  0
   -5.5724    5.6100  -39.3117 H   0  0  0  0  0  0  0  0  0  0  0  0
  1  2  1  0  0  0  0
  1  4  1  0  0  0  0
  2  5  1  0  0  0  0
  3  4  1  0  0  0  0
  3  5  1  0  0  0  0
  4  6  1  6  0  0  0
  5  7  1  6  0  0  0
  1  8  1  0  0  0  0
  1  9  1  0  0  0  0
  2 10  1  0  0  0  0
  2 11  1  0  0  0  0
  3 12  1  0  0  0  0
  3 13  1  0  0  0  0
  4 14  1  0  0  0  0
  5 15  1  0  0  0  0
  6 16  1  0  0  0  0
  6 17  1  0  0  0  0
  7 18  1  0  0  0  0
M  END
> <id>
EN300-254222

> <smiles>
N[C@@H]1CC[C@H](O)C1 |&1:1,4,r|

> <MDLNUMBER>
MFCD12911748

> <IUPAC Name>
rac-(1R,3S)-3-aminocyclopentan-1-ol

> <CAS>
124555-42-6

> <URL>
https://www.enaminestore.com/catalog/EN300-254222

> <ROCS_ShapeQuery>
_hit0

> <ROCS_TanimotoCombo>
1.002 

> <ROCS_ShapeTanimoto>
0.519 

> <ROCS_ColorTanimoto>
0.483 

> <ROCS_RefTversky>
1.136 

> <ROCS_RefColorTversky>
0.724 

> <ROCS_RefTverskyCombo>
1.860 

> <ROCS_FitTversky>
0.489 

> <ROCS_FitColorTversky>
0.592 

> <ROCS_FitTverskyCombo>
1.081 

> <ROCS_ColorScore>
-2.931

> <ROCS_Overlap>
132.998

> <ROCS_Rank>
392                 

$$$$
untitled-dbase-8261_0
  -OEChem-06232314393D

 18 18  0     1  0  0  0  0  0999 V2000
   -6.3253    4.5103  -35.3845 C   0  0  0  0  0  0  0  0  0  0  0  0
   -6.5608    3.8629  -36.7486 C   0  0  0  0  0  0  0  0  0  0  0  0
   -6.3767    6.2965  -36.9459 C   0  0  0  0  0  0  0  0  0  0  0  0
   -6.8799    5.9202  -35.5568 C   0  0  2  0  0  0  0  0  0  0  0  0
   -6.5694    5.0159  -37.7590 C   0  0  1  0  0  0  0  0  0  0  0  0
   -6.4357    6.8324  -34.5170 N   0  0  0  0  0  0  0  0  0  0  0  0
   -5.5203    4.8570  -38.6998 O   0  0  0  0  0  0  0  0  0  0  0  0
   -6.8174    3.9594  -34.5764 H   0  0  0  0  0  0  0  0  0  0  0  0
   -5.2489    4.5330  -35.1706 H   0  0  0  0  0  0  0  0  0  0  0  0
   -5.8071    3.0995  -36.9667 H   0  0  0  0  0  0  0  0  0  0  0  0
   -7.5424    3.3740  -36.7487 H   0  0  0  0  0  0  0  0  0  0  0  0
   -6.9351    7.1358  -37.3743 H   0  0  0  0  0  0  0  0  0  0  0  0
   -5.3179    6.5875  -36.9282 H   0  0  0  0  0  0  0  0  0  0  0  0
   -7.9809    5.8834  -35.5603 H   0  0  0  0  0  0  0  0  0  0  0  0
   -7.5201    5.0306  -38.3037 H   0  0  0  0  0  0  0  0  0  0  0  0
   -6.8060    7.7366  -34.7060 H   0  0  0  0  0  0  0  0  0  0  0  0
   -6.7675    6.5009  -33.6392 H   0  0  0  0  0  0  0  0  0  0  0  0
   -5.5724    5.6100  -39.3117 H   0  0  0  0  0  0  0  0  0  0  0  0
  1  2  1  0  0  0  0
  1  4  1  0  0  0  0
  2  5  1  0  0  0  0
  3  4  1  0  0  0  0
  3  5  1  0  0  0  0
  4  6  1  6  0  0  0
  5  7  1  6  0  0  0
  1  8  1  0  0  0  0
  1  9  1  0  0  0  0
  2 10  1  0  0  0  0
  2 11  1  0  0  0  0
  3 12  1  0  0  0  0
  3 13  1  0  0  0  0
  4 14  1  0  0  0  0
  5 15  1  0  0  0  0
  6 16  1  0  0  0  0
  6 17  1  0  0  0  0
  7 18  1  0  0  0  0
M  END
> <id>
EN300-266299

> <smiles>
Cl.N[C@@H]1CC[C@H](O)C1 |&1:2,5,r|

> <MDLNUMBER>
MFCD22378847

> <IUPAC Name>
rac-(1R,3S)-3-aminocyclopentan-1-ol hydrochloride

> <CAS>
1284248-73-2

> <Purity>
95

> <URL>
https://www.enaminestore.com/catalog/EN300-266299

> <Saltdate>
Cl

> <ROCS_ShapeQuery>
_hit0

> <ROCS_TanimotoCombo>
1.002 

> <ROCS_ShapeTanimoto>
0.519 

> <ROCS_ColorTanimoto>
0.483 

> <ROCS_RefTversky>
1.136 

> <ROCS_RefColorTversky>
0.724 

> <ROCS_RefTverskyCombo>
1.860 

> <ROCS_FitTversky>
0.489 

> <ROCS_FitColorTversky>
0.592 

> <ROCS_FitTverskyCombo>
1.081 

> <ROCS_ColorScore>
-2.931

> <ROCS_Overlap>
132.998

> <ROCS_Rank>
393                 

$$$$
untitled-dbase-21582_1
  -OEChem-06232314393D

 17 17  0     0  0  0  0  0  0999 V2000
   -6.4732    3.5915  -36.8463 C   0  0  0  0  0  0  0  0  0  0  0  0
   -5.9842    4.7249  -37.5230 C   0  0  0  0  0  0  0  0  0  0  0  0
   -6.0802    5.7414  -36.6042 C   0  0  0  0  0  0  0  0  0  0  0  0
   -5.7314    7.1727  -36.6920 C   0  0  0  0  0  0  0  0  0  0  0  0
   -6.8902    5.8412  -34.2273 C   0  0  0  0  0  0  0  0  0  0  0  0
   -6.8516    3.8619  -35.5942 N   0  0  0  0  0  0  0  0  0  0  0  0
   -6.6003    5.1768  -35.4768 N   0  0  0  0  0  0  0  0  0  0  0  0
   -5.5255    4.7960  -38.7876 N   0  0  0  0  0  0  0  0  0  0  0  0
   -6.5899    7.1700  -34.2421 F   0  0  0  0  0  0  0  0  0  0  0  0
   -6.1904    5.3114  -33.1865 F   0  0  0  0  0  0  0  0  0  0  0  0
   -8.2032    5.7686  -33.8709 F   0  0  0  0  0  0  0  0  0  0  0  0
   -6.5711    2.5783  -37.2101 H   0  0  0  0  0  0  0  0  0  0  0  0
   -6.5873    7.7692  -37.0483 H   0  0  0  0  0  0  0  0  0  0  0  0
   -5.4198    7.5835  -35.7165 H   0  0  0  0  0  0  0  0  0  0  0  0
   -4.8882    7.3518  -37.3811 H   0  0  0  0  0  0  0  0  0  0  0  0
   -5.2286    5.6865  -39.2171 H   0  0  0  0  0  0  0  0  0  0  0  0
   -5.5351    3.9829  -39.4236 H   0  0  0  0  0  0  0  0  0  0  0  0
  1  2  1  0  0  0  0
  1  6  2  0  0  0  0
  2  3  2  0  0  0  0
  2  8  1  0  0  0  0
  3  4  1  0  0  0  0
  3  7  1  0  0  0  0
  5  7  1  0  0  0  0
  5  9  1  0  0  0  0
  5 10  1  0  0  0  0
  5 11  1  0  0  0  0
  6  7  1  0  0  0  0
  1 12  1  0  0  0  0
  4 13  1  0  0  0  0
  4 14  1  0  0  0  0
  4 15  1  0  0  0  0
  8 16  1  0  0  0  0
  8 17  1  0  0  0  0
M  END
> <id>
EN300-37410677

> <smiles>
Cl.CC1=C(N)C=NN1C(F)(F)F

> <IUPAC Name>
5-methyl-1-(trifluoromethyl)-1H-pyrazol-4-amine hydrochloride

> <CAS>
2792201-28-4

> <Purity>
95

> <URL>
https://www.enaminestore.com/catalog/EN300-37410677

> <ROCS_ShapeQuery>
_hit0

> <ROCS_TanimotoCombo>
1.001 

> <ROCS_ShapeTanimoto>
0.404 

> <ROCS_ColorTanimoto>
0.597 

> <ROCS_RefTversky>
1.372 

> <ROCS_RefColorTversky>
0.748 

> <ROCS_RefTverskyCombo>
2.120 

> <ROCS_FitTversky>
0.364 

> <ROCS_FitColorTversky>
0.748 

> <ROCS_FitTverskyCombo>
1.112 

> <ROCS_ColorScore>
-2.992

> <ROCS_Overlap>
175.821

> <ROCS_Rank>
394                 

$$$$
untitled-dbase-2679_0
  -OEChem-06232314393D

 10 10  0     0  0  0  0  0  0999 V2000
   -6.1921    6.1309  -36.7821 C   0  0  0  0  0  0  0  0  0  0  0  0
   -6.2828    4.6759  -36.4257 C   0  0  0  0  0  0  0  0  0  0  0  0
   -5.2588    5.1422  -37.4205 C   0  0  0  0  0  0  0  0  0  0  0  0
   -5.5216    4.8192  -38.7948 O   0  0  0  0  0  0  0  0  0  0  0  0
   -6.9856    6.5533  -37.3860 H   0  0  0  0  0  0  0  0  0  0  0  0
   -5.7816    6.8069  -36.0422 H   0  0  0  0  0  0  0  0  0  0  0  0
   -5.9331    4.3736  -35.4464 H   0  0  0  0  0  0  0  0  0  0  0  0
   -7.1376    4.1196  -36.7899 H   0  0  0  0  0  0  0  0  0  0  0  0
   -4.2232    5.1582  -37.1025 H   0  0  0  0  0  0  0  0  0  0  0  0
   -4.8429    4.1805  -39.0517 H   0  0  0  0  0  0  0  0  0  0  0  0
  1  2  1  0  0  0  0
  1  3  1  0  0  0  0
  2  3  1  0  0  0  0
  3  4  1  0  0  0  0
  1  5  1  0  0  0  0
  1  6  1  0  0  0  0
  2  7  1  0  0  0  0
  2  8  1  0  0  0  0
  3  9  1  0  0  0  0
  4 10  1  0  0  0  0
M  END
> <id>
EN300-100685

> <smiles>
OC1CC1

> <MDLNUMBER>
MFCD19707103

> <IUPAC Name>
cyclopropanol

> <CAS>
16545-68-9

> <Purity>
95

> <URL>
https://www.enaminestore.com/catalog/EN300-100685

> <ROCS_ShapeQuery>
_hit0

> <ROCS_TanimotoCombo>
1.001 

> <ROCS_ShapeTanimoto>
0.501 

> <ROCS_ColorTanimoto>
0.500 

> <ROCS_RefTversky>
0.779 

> <ROCS_RefColorTversky>
0.513 

> <ROCS_RefTverskyCombo>
1.291 

> <ROCS_FitTversky>
0.585 

> <ROCS_FitColorTversky>
0.952 

> <ROCS_FitTverskyCombo>
1.537 

> <ROCS_ColorScore>
-2.000

> <ROCS_Overlap>
86.039

> <ROCS_Rank>
395                 

$$$$
untitled-dbase-3275_0
  -OEChem-06232314393D

 12 12  0     0  0  0  0  0  0999 V2000
   -6.7629    5.0063  -34.9153 C   0  0  0  0  0  0  0  0  0  0  0  0
   -6.2530    6.1261  -35.5346 C   0  0  0  0  0  0  0  0  0  0  0  0
   -6.4463    3.8014  -36.8329 C   0  0  0  0  0  0  0  0  0  0  0  0
   -5.9370    4.9213  -37.4526 C   0  0  0  0  0  0  0  0  0  0  0  0
   -6.8686    3.8238  -35.5533 N   0  0  0  0  0  0  0  0  0  0  0  0
   -5.8310    6.1037  -36.8145 N   0  0  0  0  0  0  0  0  0  0  0  0
   -5.5173    4.8105  -38.7968 N   0  0  0  0  0  0  0  0  0  0  0  0
   -7.1029    5.0256  -33.8873 H   0  0  0  0  0  0  0  0  0  0  0  0
   -6.1672    7.0757  -35.0212 H   0  0  0  0  0  0  0  0  0  0  0  0
   -6.5357    2.8455  -37.3365 H   0  0  0  0  0  0  0  0  0  0  0  0
   -5.5556    3.9190  -39.2457 H   0  0  0  0  0  0  0  0  0  0  0  0
   -5.1028    5.6024  -39.2428 H   0  0  0  0  0  0  0  0  0  0  0  0
  1  2  1  0  0  0  0
  1  5  2  0  0  0  0
  2  6  2  0  0  0  0
  3  4  2  0  0  0  0
  3  5  1  0  0  0  0
  4  6  1  0  0  0  0
  4  7  1  0  0  0  0
  1  8  1  0  0  0  0
  2  9  1  0  0  0  0
  3 10  1  0  0  0  0
  7 11  1  0  0  0  0
  7 12  1  0  0  0  0
M  END
> <id>
EN300-17193

> <smiles>
NC=1C=NC=CN1

> <MDLNUMBER>
MFCD00006137

> <IUPAC Name>
pyrazin-2-amine

> <CAS>
5049-61-6

> <Purity>
95

> <URL>
https://www.enaminestore.com/catalog/EN300-17193

> <MP>
119-120

> <ROCS_ShapeQuery>
_hit0

> <ROCS_TanimotoCombo>
1.001 

> <ROCS_ShapeTanimoto>
0.501 

> <ROCS_ColorTanimoto>
0.500 

> <ROCS_RefTversky>
1.169 

> <ROCS_RefColorTversky>
0.741 

> <ROCS_RefTverskyCombo>
1.910 

> <ROCS_FitTversky>
0.467 

> <ROCS_FitColorTversky>
0.606 

> <ROCS_FitTverskyCombo>
1.073 

> <ROCS_ColorScore>
-3.003

> <ROCS_Overlap>
138.329

> <ROCS_Rank>
396                 

$$$$
untitled-dbase-37214_0
  -OEChem-06232314393D

 16 16  0     0  0  0  0  0  0999 V2000
   -6.8950    4.7402  -34.8191 C   0  0  0  0  0  0  0  0  0  0  0  0
   -6.4508    5.9294  -35.2317 C   0  0  0  0  0  0  0  0  0  0  0  0
   -5.9844    4.8006  -37.4405 C   0  0  0  0  0  0  0  0  0  0  0  0
   -6.4607    3.6690  -36.8920 C   0  0  0  0  0  0  0  0  0  0  0  0
   -5.9485    6.0405  -36.6205 C   0  0  0  0  0  0  0  0  0  0  0  0
   -6.5396    2.3733  -37.6374 C   0  0  0  0  0  0  0  0  0  0  0  0
   -5.5249    7.0990  -37.0705 O   0  0  0  0  0  0  0  0  0  0  0  0
   -6.9245    3.6015  -35.5849 O   0  0  0  0  0  0  0  0  0  0  0  0
   -6.4483    7.0353  -34.4163 O   0  0  0  0  0  0  0  0  0  0  0  0
   -5.5266    4.8548  -38.7381 O   0  0  0  0  0  0  0  0  0  0  0  0
   -7.2823    4.5496  -33.8281 H   0  0  0  0  0  0  0  0  0  0  0  0
   -5.6154    1.8148  -37.4991 H   0  0  0  0  0  0  0  0  0  0  0  0
   -6.6893    2.5693  -38.6981 H   0  0  0  0  0  0  0  0  0  0  0  0
   -7.3772    1.7864  -37.2636 H   0  0  0  0  0  0  0  0  0  0  0  0
   -6.0923    7.7967  -34.8896 H   0  0  0  0  0  0  0  0  0  0  0  0
   -5.2281    5.7472  -38.9453 H   0  0  0  0  0  0  0  0  0  0  0  0
  1  2  2  0  0  0  0
  1  8  1  0  0  0  0
  2  5  1  0  0  0  0
  2  9  1  0  0  0  0
  3  4  2  0  0  0  0
  3  5  1  0  0  0  0
  3 10  1  0  0  0  0
  4  6  1  0  0  0  0
  4  8  1  0  0  0  0
  5  7  2  0  0  0  0
  1 11  1  0  0  0  0
  6 12  1  0  0  0  0
  6 13  1  0  0  0  0
  6 14  1  0  0  0  0
  9 15  1  0  0  0  0
 10 16  1  0  0  0  0
M  END
> <id>
EN300-1601086

> <smiles>
CC=1OC=C(O)C(=O)C1O

> <MDLNUMBER>
MFCD09753486

> <IUPAC Name>
3,5-dihydroxy-2-methyl-4H-pyran-4-one

> <CAS>
1073-96-7

> <Purity>
95

> <URL>
https://www.enaminestore.com/catalog/EN300-1601086

> <MP>
189-191

> <ROCS_ShapeQuery>
_hit0

> <ROCS_TanimotoCombo>
1.001 

> <ROCS_ShapeTanimoto>
0.447 

> <ROCS_ColorTanimoto>
0.554 

> <ROCS_RefTversky>
1.353 

> <ROCS_RefColorTversky>
0.945 

> <ROCS_RefTverskyCombo>
2.297 

> <ROCS_FitTversky>
0.401 

> <ROCS_FitColorTversky>
0.572 

> <ROCS_FitTverskyCombo>
0.973 

> <ROCS_ColorScore>
-3.920

> <ROCS_Overlap>
169.041

> <ROCS_Rank>
397                 

$$$$
untitled-dbase-6915_0
  -OEChem-06232314393D

  9  9  0     0  0  0  0  0  0999 V2000
   -5.9992    4.7409  -37.4330 C   0  0  0  0  0  0  0  0  0  0  0  0
   -6.6324    5.1966  -35.2062 C   0  0  0  0  0  0  0  0  0  0  0  0
   -6.4914    3.6752  -36.8380 N   0  0  0  0  0  0  0  0  0  0  0  0
   -6.8637    3.9428  -35.5322 N   0  0  0  0  0  0  0  0  0  0  0  0
   -5.5523    4.7826  -38.7143 N   0  0  0  0  0  0  0  0  0  0  0  0
   -5.9467    6.1498  -36.4562 S   0  0  0  0  0  0  0  0  0  0  0  0
   -6.9729    5.8653  -33.6707 Cl  0  0  0  0  0  0  0  0  0  0  0  0
   -5.2213    5.6547  -39.1433 H   0  0  0  0  0  0  0  0  0  0  0  0
   -5.6150    3.9673  -39.3352 H   0  0  0  0  0  0  0  0  0  0  0  0
  1  3  2  0  0  0  0
  1  5  1  0  0  0  0
  1  6  1  0  0  0  0
  2  4  2  0  0  0  0
  2  6  1  0  0  0  0
  2  7  1  0  0  0  0
  3  4  1  0  0  0  0
  5  8  1  0  0  0  0
  5  9  1  0  0  0  0
M  END
> <id>
EN300-84608

> <smiles>
NC1=NN=C(Cl)S1

> <MDLNUMBER>
MFCD01578280

> <IUPAC Name>
5-chloro-1,3,4-thiadiazol-2-amine

> <CAS>
37566-40-8

> <Purity>
95

> <URL>
https://www.enaminestore.com/catalog/EN300-84608

> <MP>
191-192

> <ROCS_ShapeQuery>
_hit0

> <ROCS_TanimotoCombo>
1.001 

> <ROCS_ShapeTanimoto>
0.496 

> <ROCS_ColorTanimoto>
0.505 

> <ROCS_RefTversky>
1.098 

> <ROCS_RefColorTversky>
0.767 

> <ROCS_RefTverskyCombo>
1.865 

> <ROCS_FitTversky>
0.475 

> <ROCS_FitColorTversky>
0.596 

> <ROCS_FitTverskyCombo>
1.071 

> <ROCS_ColorScore>
-3.120

> <ROCS_Overlap>
128.430

> <ROCS_Rank>
398                 

$$$$
untitled-dbase-49414_0
  -OEChem-06232314393D

 12 12  0     0  0  0  0  0  0999 V2000
   -6.4237    3.8002  -36.8449 C   0  0  0  0  0  0  0  0  0  0  0  0
   -6.8408    4.9888  -34.9236 C   0  0  0  0  0  0  0  0  0  0  0  0
   -5.9479    4.9240  -37.5011 C   0  0  0  0  0  0  0  0  0  0  0  0
   -6.3843    6.1682  -35.4897 C   0  0  0  0  0  0  0  0  0  0  0  0
   -5.9311    6.1266  -36.8036 C   0  0  0  0  0  0  0  0  0  0  0  0
   -6.8722    3.8017  -35.5696 N   0  0  0  0  0  0  0  0  0  0  0  0
   -5.5208    4.8124  -38.7858 O   0  0  0  0  0  0  0  0  0  0  0  0
   -6.4115    7.6019  -34.5340 Cl  0  0  0  0  0  0  0  0  0  0  0  0
   -5.2825    7.6881  -37.6817 Br  0  0  0  0  0  0  0  0  0  0  0  0
   -6.4614    2.8348  -37.3401 H   0  0  0  0  0  0  0  0  0  0  0  0
   -7.2084    4.9519  -33.9024 H   0  0  0  0  0  0  0  0  0  0  0  0
   -5.2163    5.6730  -39.1178 H   0  0  0  0  0  0  0  0  0  0  0  0
  1  3  2  0  0  0  0
  1  6  1  0  0  0  0
  2  4  1  0  0  0  0
  2  6  2  0  0  0  0
  3  5  1  0  0  0  0
  3  7  1  0  0  0  0
  4  5  2  0  0  0  0
  4  8  1  0  0  0  0
  5  9  1  0  0  0  0
  1 10  1  0  0  0  0
  2 11  1  0  0  0  0
  7 12  1  0  0  0  0
M  END
> <id>
EN300-2197944

> <smiles>
OC=1C=NC=C(Cl)C1Br

> <MDLNUMBER>
MFCD18257588

> <IUPAC Name>
4-bromo-5-chloropyridin-3-ol

> <CAS>
1211517-85-9

> <Purity>
95

> <URL>
https://www.enaminestore.com/catalog/EN300-2197944

> <ROCS_ShapeQuery>
_hit0

> <ROCS_TanimotoCombo>
1.001 

> <ROCS_ShapeTanimoto>
0.501 

> <ROCS_ColorTanimoto>
0.500 

> <ROCS_RefTversky>
1.316 

> <ROCS_RefColorTversky>
0.740 

> <ROCS_RefTverskyCombo>
2.057 

> <ROCS_FitTversky>
0.447 

> <ROCS_FitColorTversky>
0.606 

> <ROCS_FitTverskyCombo>
1.053 

> <ROCS_ColorScore>
-2.998

> <ROCS_Overlap>
160.067

> <ROCS_Rank>
399                 

$$$$
untitled-dbase-28428_0
  -OEChem-06232314393D

 11 11  0     0  0  0  0  0  0999 V2000
   -5.8699    6.0522  -36.7760 C   0  0  0  0  0  0  0  0  0  0  0  0
   -6.4488    3.7901  -36.8418 C   0  0  0  0  0  0  0  0  0  0  0  0
   -6.7591    5.0207  -34.9560 C   0  0  0  0  0  0  0  0  0  0  0  0
   -5.9334    4.8836  -37.5073 C   0  0  0  0  0  0  0  0  0  0  0  0
   -6.2755    6.1568  -35.4935 N   0  0  0  0  0  0  0  0  0  0  0  0
   -6.8725    3.8231  -35.5613 N   0  0  0  0  0  0  0  0  0  0  0  0
   -5.5192    4.8145  -38.7910 O   0  0  0  0  0  0  0  0  0  0  0  0
   -5.4826    6.9675  -37.2117 H   0  0  0  0  0  0  0  0  0  0  0  0
   -6.5407    2.8257  -37.3309 H   0  0  0  0  0  0  0  0  0  0  0  0
   -7.0912    5.0756  -33.9262 H   0  0  0  0  0  0  0  0  0  0  0  0
   -5.1876    5.6784  -39.0953 H   0  0  0  0  0  0  0  0  0  0  0  0
  1  4  2  0  0  0  0
  1  5  1  0  0  0  0
  2  4  1  0  0  0  0
  2  6  2  0  0  0  0
  3  5  2  0  0  0  0
  3  6  1  0  0  0  0
  4  7  1  0  0  0  0
  1  8  1  0  0  0  0
  2  9  1  0  0  0  0
  3 10  1  0  0  0  0
  7 11  1  0  0  0  0
M  END
> <id>
EN300-73563

> <smiles>
OC=1C=NC=NC1

> <MDLNUMBER>
MFCD06412562

> <IUPAC Name>
pyrimidin-5-ol

> <CAS>
26456-59-7

> <Purity>
95

> <URL>
https://www.enaminestore.com/catalog/EN300-73563

> <MP>
208-209

> <ROCS_ShapeQuery>
_hit0

> <ROCS_TanimotoCombo>
1.000 

> <ROCS_ShapeTanimoto>
0.500 

> <ROCS_ColorTanimoto>
0.500 

> <ROCS_RefTversky>
1.170 

> <ROCS_RefColorTversky>
0.741 

> <ROCS_RefTverskyCombo>
1.911 

> <ROCS_FitTversky>
0.466 

> <ROCS_FitColorTversky>
0.606 

> <ROCS_FitTverskyCombo>
1.072 

> <ROCS_ColorScore>
-3.002

> <ROCS_Overlap>
138.540

> <ROCS_Rank>
400                 

$$$$
untitled-dbase-40954_0
  -OEChem-06232314393D

  8  8  0     0  0  0  0  0  0999 V2000
   -6.6324    5.1453  -35.2083 C   0  0  0  0  0  0  0  0  0  0  0  0
   -5.9826    4.7609  -37.4437 C   0  0  0  0  0  0  0  0  0  0  0  0
   -6.8541    3.9006  -35.5735 N   0  0  0  0  0  0  0  0  0  0  0  0
   -6.4720    3.6748  -36.8843 N   0  0  0  0  0  0  0  0  0  0  0  0
   -5.5512    4.7863  -38.6965 O   0  0  0  0  0  0  0  0  0  0  0  0
   -5.9461    6.1403  -36.4252 S   0  0  0  0  0  0  0  0  0  0  0  0
   -6.8646    5.5144  -34.2193 H   0  0  0  0  0  0  0  0  0  0  0  0
   -5.6425    3.9128  -39.1393 H   0  0  0  0  0  0  0  0  0  0  0  0
  1  3  2  0  0  0  0
  1  6  1  0  0  0  0
  2  4  2  0  0  0  0
  2  5  1  0  0  0  0
  2  6  1  0  0  0  0
  3  4  1  0  0  0  0
  1  7  1  0  0  0  0
  5  8  1  0  0  0  0
M  END
> <id>
EN300-131094

> <smiles>
OC1=NN=CS1

> <MDLNUMBER>
MFCD18917069

> <IUPAC Name>
1,3,4-thiadiazol-2-ol

> <CAS>
84352-66-9

> <Purity>
95

> <URL>
https://www.enaminestore.com/catalog/EN300-131094

> <MP>
97-98

> <ROCS_ShapeQuery>
_hit0

> <ROCS_TanimotoCombo>
1.000 

> <ROCS_ShapeTanimoto>
0.500 

> <ROCS_ColorTanimoto>
0.500 

> <ROCS_RefTversky>
1.022 

> <ROCS_RefColorTversky>
0.763 

> <ROCS_RefTverskyCombo>
1.785 

> <ROCS_FitTversky>
0.495 

> <ROCS_FitColorTversky>
0.592 

> <ROCS_FitTverskyCombo>
1.087 

> <ROCS_ColorScore>
-3.102

> <ROCS_Overlap>
117.786

> <ROCS_Rank>
401                 

$$$$
untitled-dbase-11012_0
  -OEChem-06232314393D

 16 16  0     0  0  0  0  0  0999 V2000
   -6.4305    3.7845  -36.8147 C   0  0  0  0  0  0  0  0  0  0  0  0
   -6.8590    4.9747  -34.8969 C   0  0  0  0  0  0  0  0  0  0  0  0
   -5.9575    6.1151  -36.7792 C   0  0  0  0  0  0  0  0  0  0  0  0
   -5.9637    4.9104  -37.4736 C   0  0  0  0  0  0  0  0  0  0  0  0
   -6.4120    6.1563  -35.4658 C   0  0  0  0  0  0  0  0  0  0  0  0
   -5.4601    7.3532  -37.4580 C   0  0  0  0  0  0  0  0  0  0  0  0
   -6.8800    3.7856  -35.5397 N   0  0  0  0  0  0  0  0  0  0  0  0
   -5.5144    4.8161  -38.8029 N   0  0  0  0  0  0  0  0  0  0  0  0
   -6.4406    7.7468  -34.4453 Br  0  0  0  0  0  0  0  0  0  0  0  0
   -6.4598    2.8153  -37.3038 H   0  0  0  0  0  0  0  0  0  0  0  0
   -7.2272    4.9367  -33.8760 H   0  0  0  0  0  0  0  0  0  0  0  0
   -6.2865    7.8627  -37.9642 H   0  0  0  0  0  0  0  0  0  0  0  0
   -5.0100    8.0433  -36.7357 H   0  0  0  0  0  0  0  0  0  0  0  0
   -4.6882    7.1124  -38.1977 H   0  0  0  0  0  0  0  0  0  0  0  0
   -5.2235    5.6454  -39.2839 H   0  0  0  0  0  0  0  0  0  0  0  0
   -5.5793    3.9389  -39.2827 H   0  0  0  0  0  0  0  0  0  0  0  0
  1  4  1  0  0  0  0
  1  7  2  0  0  0  0
  2  5  2  0  0  0  0
  2  7  1  0  0  0  0
  3  4  2  0  0  0  0
  3  5  1  0  0  0  0
  3  6  1  0  0  0  0
  4  8  1  0  0  0  0
  5  9  1  0  0  0  0
  1 10  1  0  0  0  0
  2 11  1  0  0  0  0
  6 12  1  0  0  0  0
  6 13  1  0  0  0  0
  6 14  1  0  0  0  0
  8 15  1  0  0  0  0
  8 16  1  0  0  0  0
M  END
> <id>
EN300-399119

> <smiles>
Cl.CC=1C(N)=CN=CC1Br

> <MDLNUMBER>
MFCD30752450

> <IUPAC Name>
5-bromo-4-methylpyridin-3-amine hydrochloride

> <CAS>
2126160-99-2

> <Purity>
95

> <URL>
https://www.enaminestore.com/catalog/EN300-399119

> <Saltdate>
Cl

> <ROCS_ShapeQuery>
_hit0

> <ROCS_TanimotoCombo>
1.000 

> <ROCS_ShapeTanimoto>
0.500 

> <ROCS_ColorTanimoto>
0.500 

> <ROCS_RefTversky>
1.327 

> <ROCS_RefColorTversky>
0.741 

> <ROCS_RefTverskyCombo>
2.068 

> <ROCS_FitTversky>
0.445 

> <ROCS_FitColorTversky>
0.606 

> <ROCS_FitTverskyCombo>
1.051 

> <ROCS_ColorScore>
-2.999

> <ROCS_Overlap>
161.784

> <ROCS_Rank>
402                 

$$$$
untitled-dbase-33390_0
  -OEChem-06232314393D

 16 16  0     0  0  0  0  0  0999 V2000
   -6.4305    3.7845  -36.8147 C   0  0  0  0  0  0  0  0  0  0  0  0
   -6.8590    4.9747  -34.8969 C   0  0  0  0  0  0  0  0  0  0  0  0
   -5.9575    6.1151  -36.7792 C   0  0  0  0  0  0  0  0  0  0  0  0
   -5.9637    4.9104  -37.4736 C   0  0  0  0  0  0  0  0  0  0  0  0
   -6.4120    6.1563  -35.4658 C   0  0  0  0  0  0  0  0  0  0  0  0
   -5.4601    7.3532  -37.4580 C   0  0  0  0  0  0  0  0  0  0  0  0
   -6.8800    3.7856  -35.5397 N   0  0  0  0  0  0  0  0  0  0  0  0
   -5.5144    4.8161  -38.8029 N   0  0  0  0  0  0  0  0  0  0  0  0
   -6.4406    7.7468  -34.4453 Br  0  0  0  0  0  0  0  0  0  0  0  0
   -6.4598    2.8153  -37.3038 H   0  0  0  0  0  0  0  0  0  0  0  0
   -7.2272    4.9367  -33.8760 H   0  0  0  0  0  0  0  0  0  0  0  0
   -6.2865    7.8627  -37.9642 H   0  0  0  0  0  0  0  0  0  0  0  0
   -5.0100    8.0433  -36.7357 H   0  0  0  0  0  0  0  0  0  0  0  0
   -4.6882    7.1124  -38.1977 H   0  0  0  0  0  0  0  0  0  0  0  0
   -5.2235    5.6454  -39.2839 H   0  0  0  0  0  0  0  0  0  0  0  0
   -5.5793    3.9389  -39.2827 H   0  0  0  0  0  0  0  0  0  0  0  0
  1  4  1  0  0  0  0
  1  7  2  0  0  0  0
  2  5  2  0  0  0  0
  2  7  1  0  0  0  0
  3  4  2  0  0  0  0
  3  5  1  0  0  0  0
  3  6  1  0  0  0  0
  4  8  1  0  0  0  0
  5  9  1  0  0  0  0
  1 10  1  0  0  0  0
  2 11  1  0  0  0  0
  6 12  1  0  0  0  0
  6 13  1  0  0  0  0
  6 14  1  0  0  0  0
  8 15  1  0  0  0  0
  8 16  1  0  0  0  0
M  END
> <id>
EN300-155797

> <smiles>
CC=1C(N)=CN=CC1Br

> <MDLNUMBER>
MFCD07439976

> <IUPAC Name>
5-bromo-4-methylpyridin-3-amine

> <CAS>
850892-12-5

> <Purity>
95

> <URL>
https://www.enaminestore.com/catalog/EN300-155797

> <ROCS_ShapeQuery>
_hit0

> <ROCS_TanimotoCombo>
1.000 

> <ROCS_ShapeTanimoto>
0.500 

> <ROCS_ColorTanimoto>
0.500 

> <ROCS_RefTversky>
1.327 

> <ROCS_RefColorTversky>
0.741 

> <ROCS_RefTverskyCombo>
2.068 

> <ROCS_FitTversky>
0.445 

> <ROCS_FitColorTversky>
0.606 

> <ROCS_FitTverskyCombo>
1.051 

> <ROCS_ColorScore>
-2.999

> <ROCS_Overlap>
161.784

> <ROCS_Rank>
403                 

$$$$
untitled-dbase-38115_0
  -OEChem-06232314393D

 11 10  0     0  0  0  0  0  0999 V2000
   -5.9893    5.6012  -36.4395 C   0  0  0  0  0  0  0  0  0  0  0  0
   -5.7660    5.2287  -37.5589 C   0  0  0  0  0  0  0  0  0  0  0  0
   -6.8552    7.4512  -35.0570 C   0  0  0  0  0  0  0  0  0  0  0  0
   -6.2602    6.0533  -35.0693 C   0  0  0  0  0  0  0  0  0  0  0  0
   -5.5186    4.8184  -38.7975 O   0  0  0  0  0  0  0  0  0  0  0  0
   -6.1853    8.1706  -35.5406 H   0  0  0  0  0  0  0  0  0  0  0  0
   -7.0251    7.7831  -34.0278 H   0  0  0  0  0  0  0  0  0  0  0  0
   -7.8140    7.4779  -35.5861 H   0  0  0  0  0  0  0  0  0  0  0  0
   -6.9523    5.3592  -34.5798 H   0  0  0  0  0  0  0  0  0  0  0  0
   -5.3323    6.0480  -34.4869 H   0  0  0  0  0  0  0  0  0  0  0  0
   -6.1054    5.2696  -39.4275 H   0  0  0  0  0  0  0  0  0  0  0  0
  1  2  3  0  0  0  0
  1  4  1  0  0  0  0
  2  5  1  0  0  0  0
  3  4  1  0  0  0  0
  3  6  1  0  0  0  0
  3  7  1  0  0  0  0
  3  8  1  0  0  0  0
  4  9  1  0  0  0  0
  4 10  1  0  0  0  0
  5 11  1  0  0  0  0
M  END
> <id>
EN300-115112

> <smiles>
CCC#CO

> <MDLNUMBER>
MFCD20482541

> <IUPAC Name>
but-1-yn-1-ol

> <CAS>
752165-24-5

> <URL>
https://www.enaminestore.com/catalog/EN300-115112

> <ROCS_ShapeQuery>
_hit0

> <ROCS_TanimotoCombo>
1.000 

> <ROCS_ShapeTanimoto>
0.600 

> <ROCS_ColorTanimoto>
0.400 

> <ROCS_RefTversky>
0.965 

> <ROCS_RefColorTversky>
0.506 

> <ROCS_RefTverskyCombo>
1.471 

> <ROCS_FitTversky>
0.613 

> <ROCS_FitColorTversky>
0.656 

> <ROCS_FitTverskyCombo>
1.269 

> <ROCS_ColorScore>
-2.000

> <ROCS_Overlap>
108.109

> <ROCS_Rank>
404                 

$$$$
untitled-dbase-9049_0
  -OEChem-06232314393D

 24 24  0     0  0  0  0  0  0999 V2000
   -6.0408    6.1292  -36.8785 C   0  0  0  0  0  0  0  0  0  0  0  0
   -6.9190    5.0163  -34.9689 C   0  0  0  0  0  0  0  0  0  0  0  0
   -6.3979    3.7783  -36.8327 C   0  0  0  0  0  0  0  0  0  0  0  0
   -6.5205    6.1967  -35.5752 C   0  0  0  0  0  0  0  0  0  0  0  0
   -5.9752    4.9007  -37.5265 C   0  0  0  0  0  0  0  0  0  0  0  0
   -7.5345    8.5026  -35.6011 C   0  0  0  0  0  0  0  0  0  0  0  0
   -5.1985    8.1659  -34.7258 C   0  0  0  0  0  0  0  0  0  0  0  0
   -7.1613    7.4226  -33.3930 C   0  0  0  0  0  0  0  0  0  0  0  0
   -6.6059    7.5393  -34.8305 C   0  0  0  0  0  0  0  0  0  0  0  0
   -6.8699    3.8046  -35.5662 N   0  0  0  0  0  0  0  0  0  0  0  0
   -5.5119    4.8045  -38.7972 O   0  0  0  0  0  0  0  0  0  0  0  0
   -5.7180    7.0316  -37.3913 H   0  0  0  0  0  0  0  0  0  0  0  0
   -7.3016    5.0072  -33.9529 H   0  0  0  0  0  0  0  0  0  0  0  0
   -6.3681    2.7937  -37.2888 H   0  0  0  0  0  0  0  0  0  0  0  0
   -7.6128    9.4694  -35.0902 H   0  0  0  0  0  0  0  0  0  0  0  0
   -7.1725    8.7051  -36.6151 H   0  0  0  0  0  0  0  0  0  0  0  0
   -8.5461    8.0889  -35.6895 H   0  0  0  0  0  0  0  0  0  0  0  0
   -5.2108    9.1272  -34.2007 H   0  0  0  0  0  0  0  0  0  0  0  0
   -4.5135    7.5096  -34.1762 H   0  0  0  0  0  0  0  0  0  0  0  0
   -4.7690    8.3392  -35.7196 H   0  0  0  0  0  0  0  0  0  0  0  0
   -7.2028    8.4037  -32.9046 H   0  0  0  0  0  0  0  0  0  0  0  0
   -8.1795    7.0163  -33.3853 H   0  0  0  0  0  0  0  0  0  0  0  0
   -6.5317    6.7784  -32.7681 H   0  0  0  0  0  0  0  0  0  0  0  0
   -5.2582    5.6800  -39.1354 H   0  0  0  0  0  0  0  0  0  0  0  0
  1  4  1  0  0  0  0
  1  5  2  0  0  0  0
  2  4  2  0  0  0  0
  2 10  1  0  0  0  0
  3  5  1  0  0  0  0
  3 10  2  0  0  0  0
  4  9  1  0  0  0  0
  5 11  1  0  0  0  0
  6  9  1  0  0  0  0
  7  9  1  0  0  0  0
  8  9  1  0  0  0  0
  1 12  1  0  0  0  0
  2 13  1  0  0  0  0
  3 14  1  0  0  0  0
  6 15  1  0  0  0  0
  6 16  1  0  0  0  0
  6 17  1  0  0  0  0
  7 18  1  0  0  0  0
  7 19  1  0  0  0  0
  7 20  1  0  0  0  0
  8 21  1  0  0  0  0
  8 22  1  0  0  0  0
  8 23  1  0  0  0  0
 11 24  1  0  0  0  0
M  END
> <id>
EN300-319110

> <smiles>
CC(C)(C)C=1C=NC=C(O)C1

> <MDLNUMBER>
MFCD16996891

> <IUPAC Name>
5-tert-butylpyridin-3-ol

> <CAS>
1243371-93-8

> <Purity>
95

> <URL>
https://www.enaminestore.com/catalog/EN300-319110

> <ROCS_ShapeQuery>
_hit0

> <ROCS_TanimotoCombo>
1.000 

> <ROCS_ShapeTanimoto>
0.500 

> <ROCS_ColorTanimoto>
0.500 

> <ROCS_RefTversky>
1.521 

> <ROCS_RefColorTversky>
0.740 

> <ROCS_RefTverskyCombo>
2.262 

> <ROCS_FitTversky>
0.427 

> <ROCS_FitColorTversky>
0.606 

> <ROCS_FitTverskyCombo>
1.033 

> <ROCS_ColorScore>
-2.999

> <ROCS_Overlap>
192.390

> <ROCS_Rank>
405                 

$$$$
untitled-dbase-7719_0
  -OEChem-06232314393D

 15 15  0     0  0  0  0  0  0999 V2000
   -5.9641    5.8832  -36.7132 C   0  0  0  0  0  0  0  0  0  0  0  0
   -5.9711    4.7551  -37.5145 C   0  0  0  0  0  0  0  0  0  0  0  0
   -6.4381    5.7617  -35.4224 C   0  0  0  0  0  0  0  0  0  0  0  0
   -6.4513    3.5800  -36.9720 C   0  0  0  0  0  0  0  0  0  0  0  0
   -6.4494    6.9456  -34.5175 C   0  0  0  0  0  0  0  0  0  0  0  0
   -6.9022    4.5989  -34.9177 N   0  0  0  0  0  0  0  0  0  0  0  0
   -6.9087    3.4901  -35.7052 N   0  0  0  0  0  0  0  0  0  0  0  0
   -5.4988    4.8325  -38.8373 N   0  0  0  0  0  0  0  0  0  0  0  0
   -6.5184    2.1027  -37.8452 Cl  0  0  0  0  0  0  0  0  0  0  0  0
   -5.5971    6.8348  -37.0854 H   0  0  0  0  0  0  0  0  0  0  0  0
   -7.3981    7.4892  -34.6096 H   0  0  0  0  0  0  0  0  0  0  0  0
   -6.3205    6.6479  -33.4683 H   0  0  0  0  0  0  0  0  0  0  0  0
   -5.6291    7.6367  -34.7534 H   0  0  0  0  0  0  0  0  0  0  0  0
   -5.4630    4.0017  -39.3959 H   0  0  0  0  0  0  0  0  0  0  0  0
   -5.1168    5.6956  -39.1729 H   0  0  0  0  0  0  0  0  0  0  0  0
  1  2  1  0  0  0  0
  1  3  2  0  0  0  0
  2  4  2  0  0  0  0
  2  8  1  0  0  0  0
  3  5  1  0  0  0  0
  3  6  1  0  0  0  0
  4  7  1  0  0  0  0
  4  9  1  0  0  0  0
  6  7  2  0  0  0  0
  1 10  1  0  0  0  0
  5 11  1  0  0  0  0
  5 12  1  0  0  0  0
  5 13  1  0  0  0  0
  8 14  1  0  0  0  0
  8 15  1  0  0  0  0
M  END
> <id>
EN300-254974

> <smiles>
CC=1C=C(N)C(Cl)=NN1

> <MDLNUMBER>
MFCD04037490

> <IUPAC Name>
3-chloro-6-methylpyridazin-4-amine

> <CAS>
28682-86-2

> <Purity>
95

> <URL>
https://www.enaminestore.com/catalog/EN300-254974

> <MP>
179-180

> <ROCS_ShapeQuery>
_hit0

> <ROCS_TanimotoCombo>
1.000 

> <ROCS_ShapeTanimoto>
0.467 

> <ROCS_ColorTanimoto>
0.533 

> <ROCS_RefTversky>
1.280 

> <ROCS_RefColorTversky>
0.796 

> <ROCS_RefTverskyCombo>
2.076 

> <ROCS_FitTversky>
0.423 

> <ROCS_FitColorTversky>
0.617 

> <ROCS_FitTverskyCombo>
1.040 

> <ROCS_ColorScore>
-3.238

> <ROCS_Overlap>
156.368

> <ROCS_Rank>
406                 

$$$$
untitled-dbase-38170_0
  -OEChem-06232314393D

 25 25  0     0  0  0  0  0  0999 V2000
   -6.0703    6.1336  -36.8504 C   0  0  0  0  0  0  0  0  0  0  0  0
   -6.9423    5.0146  -34.9415 C   0  0  0  0  0  0  0  0  0  0  0  0
   -6.4045    3.7794  -36.8025 C   0  0  0  0  0  0  0  0  0  0  0  0
   -6.5539    6.1981  -35.5484 C   0  0  0  0  0  0  0  0  0  0  0  0
   -5.9911    4.9050  -37.4967 C   0  0  0  0  0  0  0  0  0  0  0  0
   -7.5921    8.4930  -35.5804 C   0  0  0  0  0  0  0  0  0  0  0  0
   -5.2549    8.1824  -34.6989 C   0  0  0  0  0  0  0  0  0  0  0  0
   -7.2129    7.4204  -33.3696 C   0  0  0  0  0  0  0  0  0  0  0  0
   -6.6553    7.5408  -34.8060 C   0  0  0  0  0  0  0  0  0  0  0  0
   -6.8799    3.8026  -35.5372 N   0  0  0  0  0  0  0  0  0  0  0  0
   -5.5062    4.8094  -38.8113 N   0  0  0  0  0  0  0  0  0  0  0  0
   -5.7552    7.0417  -37.3596 H   0  0  0  0  0  0  0  0  0  0  0  0
   -7.3273    5.0027  -33.9266 H   0  0  0  0  0  0  0  0  0  0  0  0
   -6.3657    2.7925  -37.2540 H   0  0  0  0  0  0  0  0  0  0  0  0
   -7.6820    9.4597  -35.0712 H   0  0  0  0  0  0  0  0  0  0  0  0
   -7.2298    8.6977  -36.5938 H   0  0  0  0  0  0  0  0  0  0  0  0
   -8.5991    8.0685  -35.6706 H   0  0  0  0  0  0  0  0  0  0  0  0
   -5.2786    9.1444  -34.1753 H   0  0  0  0  0  0  0  0  0  0  0  0
   -4.5643    7.5343  -34.1466 H   0  0  0  0  0  0  0  0  0  0  0  0
   -4.8248    8.3588  -35.6919 H   0  0  0  0  0  0  0  0  0  0  0  0
   -7.2660    8.4018  -32.8829 H   0  0  0  0  0  0  0  0  0  0  0  0
   -8.2268    7.0034  -33.3638 H   0  0  0  0  0  0  0  0  0  0  0  0
   -6.5780    6.7840  -32.7422 H   0  0  0  0  0  0  0  0  0  0  0  0
   -5.2571    5.6445  -39.3077 H   0  0  0  0  0  0  0  0  0  0  0  0
   -5.5028    3.9189  -39.2726 H   0  0  0  0  0  0  0  0  0  0  0  0
  1  4  1  0  0  0  0
  1  5  2  0  0  0  0
  2  4  2  0  0  0  0
  2 10  1  0  0  0  0
  3  5  1  0  0  0  0
  3 10  2  0  0  0  0
  4  9  1  0  0  0  0
  5 11  1  0  0  0  0
  6  9  1  0  0  0  0
  7  9  1  0  0  0  0
  8  9  1  0  0  0  0
  1 12  1  0  0  0  0
  2 13  1  0  0  0  0
  3 14  1  0  0  0  0
  6 15  1  0  0  0  0
  6 16  1  0  0  0  0
  6 17  1  0  0  0  0
  7 18  1  0  0  0  0
  7 19  1  0  0  0  0
  7 20  1  0  0  0  0
  8 21  1  0  0  0  0
  8 22  1  0  0  0  0
  8 23  1  0  0  0  0
 11 24  1  0  0  0  0
 11 25  1  0  0  0  0
M  END
> <id>
EN300-316525

> <smiles>
CC(C)(C)C=1C=NC=C(N)C1

> <MDLNUMBER>
MFCD18256498

> <IUPAC Name>
5-tert-butylpyridin-3-amine

> <CAS>
1256818-34-4

> <Purity>
95

> <URL>
https://www.enaminestore.com/catalog/EN300-316525

> <ROCS_ShapeQuery>
_hit0

> <ROCS_TanimotoCombo>
1.000 

> <ROCS_ShapeTanimoto>
0.500 

> <ROCS_ColorTanimoto>
0.500 

> <ROCS_RefTversky>
1.517 

> <ROCS_RefColorTversky>
0.741 

> <ROCS_RefTverskyCombo>
2.258 

> <ROCS_FitTversky>
0.427 

> <ROCS_FitColorTversky>
0.606 

> <ROCS_FitTverskyCombo>
1.033 

> <ROCS_ColorScore>
-3.000

> <ROCS_Overlap>
191.785

> <ROCS_Rank>
407                 

$$$$
untitled-dbase-15626_0
  -OEChem-06232314393D

 15 15  0     0  0  0  0  0  0999 V2000
   -6.5441    4.7769  -36.0983 C   0  0  0  0  0  0  0  0  0  0  0  0
   -5.4346    8.4074  -37.9544 C   0  0  0  0  0  0  0  0  0  0  0  0
   -5.3087    7.2009  -38.6429 C   0  0  0  0  0  0  0  0  0  0  0  0
   -5.9267    8.4176  -36.6492 C   0  0  0  0  0  0  0  0  0  0  0  0
   -6.1670    6.0147  -36.7211 C   0  0  0  0  0  0  0  0  0  0  0  0
   -5.6749    6.0045  -38.0262 C   0  0  0  0  0  0  0  0  0  0  0  0
   -6.2929    7.2213  -36.0326 C   0  0  0  0  0  0  0  0  0  0  0  0
   -6.8488    3.7766  -35.5950 N   0  0  0  0  0  0  0  0  0  0  0  0
   -5.5345    4.7988  -38.7517 N   0  0  0  0  0  0  0  0  0  0  0  0
   -6.8965    7.2987  -34.4126 Cl  0  0  0  0  0  0  0  0  0  0  0  0
   -5.1501    9.3393  -38.4342 H   0  0  0  0  0  0  0  0  0  0  0  0
   -4.9248    7.2067  -39.6599 H   0  0  0  0  0  0  0  0  0  0  0  0
   -6.0193    9.3668  -36.1274 H   0  0  0  0  0  0  0  0  0  0  0  0
   -5.7498    3.9347  -38.3010 H   0  0  0  0  0  0  0  0  0  0  0  0
   -5.1344    4.8278  -39.6657 H   0  0  0  0  0  0  0  0  0  0  0  0
  1  5  1  0  0  0  0
  1  8  3  0  0  0  0
  2  3  1  0  0  0  0
  2  4  2  0  0  0  0
  3  6  2  0  0  0  0
  4  7  1  0  0  0  0
  5  6  1  0  0  0  0
  5  7  2  0  0  0  0
  6  9  1  0  0  0  0
  7 10  1  0  0  0  0
  2 11  1  0  0  0  0
  3 12  1  0  0  0  0
  4 13  1  0  0  0  0
  9 14  1  0  0  0  0
  9 15  1  0  0  0  0
M  END
> <id>
EN300-24404

> <smiles>
NC=1C=CC=C(Cl)C1C#N

> <MDLNUMBER>
MFCD00015546

> <IUPAC Name>
2-amino-6-chlorobenzonitrile

> <CAS>
6575-11-7

> <Purity>
95

> <URL>
https://www.enaminestore.com/catalog/EN300-24404

> <MP>
133-137

> <ROCS_ShapeQuery>
_hit0

> <ROCS_TanimotoCombo>
1.000 

> <ROCS_ShapeTanimoto>
0.403 

> <ROCS_ColorTanimoto>
0.596 

> <ROCS_RefTversky>
1.232 

> <ROCS_RefColorTversky>
0.747 

> <ROCS_RefTverskyCombo>
1.979 

> <ROCS_FitTversky>
0.375 

> <ROCS_FitColorTversky>
0.747 

> <ROCS_FitTverskyCombo>
1.122 

> <ROCS_ColorScore>
-2.989

> <ROCS_Overlap>
153.035

> <ROCS_Rank>
408                 

$$$$
untitled-dbase-30425_0
  -OEChem-06232314393D

 16 16  0     0  0  0  0  0  0999 V2000
   -6.8585    4.9803  -34.8918 C   0  0  0  0  0  0  0  0  0  0  0  0
   -6.4307    3.7961  -36.8135 C   0  0  0  0  0  0  0  0  0  0  0  0
   -6.4095    6.1632  -35.4566 C   0  0  0  0  0  0  0  0  0  0  0  0
   -5.9618    4.9235  -37.4684 C   0  0  0  0  0  0  0  0  0  0  0  0
   -5.9543    6.1257  -36.7698 C   0  0  0  0  0  0  0  0  0  0  0  0
   -6.4320    7.4086  -34.6373 C   0  0  0  0  0  0  0  0  0  0  0  0
   -6.8810    3.7935  -35.5388 N   0  0  0  0  0  0  0  0  0  0  0  0
   -5.5149    4.8151  -38.7984 N   0  0  0  0  0  0  0  0  0  0  0  0
   -5.3260    7.7186  -37.6031 Br  0  0  0  0  0  0  0  0  0  0  0  0
   -7.2250    4.9460  -33.8704 H   0  0  0  0  0  0  0  0  0  0  0  0
   -6.4619    2.8285  -37.3058 H   0  0  0  0  0  0  0  0  0  0  0  0
   -5.4863    7.5260  -34.0939 H   0  0  0  0  0  0  0  0  0  0  0  0
   -6.5846    8.2964  -35.2650 H   0  0  0  0  0  0  0  0  0  0  0  0
   -7.2523    7.3913  -33.9077 H   0  0  0  0  0  0  0  0  0  0  0  0
   -5.2206    5.6388  -39.2861 H   0  0  0  0  0  0  0  0  0  0  0  0
   -5.5857    3.9343  -39.2696 H   0  0  0  0  0  0  0  0  0  0  0  0
  1  3  2  0  0  0  0
  1  7  1  0  0  0  0
  2  4  1  0  0  0  0
  2  7  2  0  0  0  0
  3  5  1  0  0  0  0
  3  6  1  0  0  0  0
  4  5  2  0  0  0  0
  4  8  1  0  0  0  0
  5  9  1  0  0  0  0
  1 10  1  0  0  0  0
  2 11  1  0  0  0  0
  6 12  1  0  0  0  0
  6 13  1  0  0  0  0
  6 14  1  0  0  0  0
  8 15  1  0  0  0  0
  8 16  1  0  0  0  0
M  END
> <id>
EN300-6473562

> <smiles>
CC=1C=NC=C(N)C1Br

> <MDLNUMBER>
MFCD26518237

> <IUPAC Name>
4-bromo-5-methylpyridin-3-amine

> <CAS>
1806996-46-2

> <Purity>
95

> <URL>
https://www.enaminestore.com/catalog/EN300-6473562

> <ROCS_ShapeQuery>
_hit0

> <ROCS_TanimotoCombo>
0.999 

> <ROCS_ShapeTanimoto>
0.500 

> <ROCS_ColorTanimoto>
0.500 

> <ROCS_RefTversky>
1.325 

> <ROCS_RefColorTversky>
0.741 

> <ROCS_RefTverskyCombo>
2.065 

> <ROCS_FitTversky>
0.445 

> <ROCS_FitColorTversky>
0.606 

> <ROCS_FitTverskyCombo>
1.051 

> <ROCS_ColorScore>
-3.000

> <ROCS_Overlap>
161.396

> <ROCS_Rank>
409                 

$$$$
untitled-dbase-53488_0
  -OEChem-06232314393D

 11 11  0     0  0  0  0  0  0999 V2000
   -7.2531    3.7651  -37.1195 C   0  0  0  0  0  0  0  0  0  0  0  0
   -5.8736    4.9746  -36.1829 C   0  0  0  0  0  0  0  0  0  0  0  0
   -6.4717    4.9913  -37.5894 C   0  0  0  0  0  0  0  0  0  0  0  0
   -6.7646    3.9146  -35.7670 O   0  0  0  0  0  0  0  0  0  0  0  0
   -5.5584    4.7841  -38.6783 O   0  0  0  0  0  0  0  0  0  0  0  0
   -8.3415    3.8585  -37.1702 H   0  0  0  0  0  0  0  0  0  0  0  0
   -6.9434    2.8084  -37.5507 H   0  0  0  0  0  0  0  0  0  0  0  0
   -4.8267    4.6643  -36.1141 H   0  0  0  0  0  0  0  0  0  0  0  0
   -6.0283    5.8869  -35.6001 H   0  0  0  0  0  0  0  0  0  0  0  0
   -7.1108    5.8610  -37.7781 H   0  0  0  0  0  0  0  0  0  0  0  0
   -5.1513    5.6438  -38.8503 H   0  0  0  0  0  0  0  0  0  0  0  0
  1  3  1  0  0  0  0
  1  4  1  0  0  0  0
  2  3  1  0  0  0  0
  2  4  1  0  0  0  0
  3  5  1  0  0  0  0
  1  6  1  0  0  0  0
  1  7  1  0  0  0  0
  2  8  1  0  0  0  0
  2  9  1  0  0  0  0
  3 10  1  0  0  0  0
  5 11  1  0  0  0  0
M  END
> <id>
EN300-69923

> <smiles>
OC1COC1

> <MDLNUMBER>
MFCD09056790

> <IUPAC Name>
oxetan-3-ol

> <CAS>
7748-36-9

> <Purity>
95

> <URL>
https://www.enaminestore.com/catalog/EN300-69923

> <ROCS_ShapeQuery>
_hit0

> <ROCS_TanimotoCombo>
0.999 

> <ROCS_ShapeTanimoto>
0.434 

> <ROCS_ColorTanimoto>
0.565 

> <ROCS_RefTversky>
0.824 

> <ROCS_RefColorTversky>
0.722 

> <ROCS_RefTverskyCombo>
1.546 

> <ROCS_FitTversky>
0.478 

> <ROCS_FitColorTversky>
0.722 

> <ROCS_FitTverskyCombo>
1.201 

> <ROCS_ColorScore>
-2.889

> <ROCS_Overlap>
93.068

> <ROCS_Rank>
410                 

$$$$
untitled-dbase-1698_0
  -OEChem-06232314393D

 16 16  0     0  0  0  0  0  0999 V2000
   -6.2563    6.1498  -35.4426 C   0  0  0  0  0  0  0  0  0  0  0  0
   -5.8348    6.0893  -36.7662 C   0  0  0  0  0  0  0  0  0  0  0  0
   -5.9357    4.8932  -37.4681 C   0  0  0  0  0  0  0  0  0  0  0  0
   -6.7672    4.9956  -34.8712 C   0  0  0  0  0  0  0  0  0  0  0  0
   -6.4607    3.7952  -36.8059 C   0  0  0  0  0  0  0  0  0  0  0  0
   -5.2797    7.3203  -37.4046 C   0  0  0  0  0  0  0  0  0  0  0  0
   -6.8807    3.8156  -35.5211 N   0  0  0  0  0  0  0  0  0  0  0  0
   -5.5153    4.8123  -38.8101 N   0  0  0  0  0  0  0  0  0  0  0  0
   -7.3117    4.9771  -33.2444 Cl  0  0  0  0  0  0  0  0  0  0  0  0
   -6.6375    2.2570  -37.5586 Cl  0  0  0  0  0  0  0  0  0  0  0  0
   -6.1861    7.0745  -34.8778 H   0  0  0  0  0  0  0  0  0  0  0  0
   -4.1952    7.3698  -37.2544 H   0  0  0  0  0  0  0  0  0  0  0  0
   -5.4846    7.3346  -38.4821 H   0  0  0  0  0  0  0  0  0  0  0  0
   -5.7333    8.2250  -36.9812 H   0  0  0  0  0  0  0  0  0  0  0  0
   -5.5525    3.9308  -39.2826 H   0  0  0  0  0  0  0  0  0  0  0  0
   -5.0985    5.6134  -39.2415 H   0  0  0  0  0  0  0  0  0  0  0  0
  1  2  2  0  0  0  0
  1  4  1  0  0  0  0
  2  3  1  0  0  0  0
  2  6  1  0  0  0  0
  3  5  2  0  0  0  0
  3  8  1  0  0  0  0
  4  7  2  0  0  0  0
  4  9  1  0  0  0  0
  5  7  1  0  0  0  0
  5 10  1  0  0  0  0
  1 11  1  0  0  0  0
  6 12  1  0  0  0  0
  6 13  1  0  0  0  0
  6 14  1  0  0  0  0
  8 15  1  0  0  0  0
  8 16  1  0  0  0  0
M  END
> <id>
EN300-100860

> <smiles>
CC=1C=C(Cl)N=C(Cl)C1N

> <MDLNUMBER>
MFCD01320814

> <IUPAC Name>
2,6-dichloro-4-methylpyridin-3-amine

> <CAS>
129432-25-3

> <Purity>
95

> <URL>
https://www.enaminestore.com/catalog/EN300-100860

> <MP>
83-85

> <ROCS_ShapeQuery>
_hit0

> <ROCS_TanimotoCombo>
0.999 

> <ROCS_ShapeTanimoto>
0.399 

> <ROCS_ColorTanimoto>
0.600 

> <ROCS_RefTversky>
1.212 

> <ROCS_RefColorTversky>
0.750 

> <ROCS_RefTverskyCombo>
1.962 

> <ROCS_FitTversky>
0.373 

> <ROCS_FitColorTversky>
0.750 

> <ROCS_FitTverskyCombo>
1.123 

> <ROCS_ColorScore>
-2.999

> <ROCS_Overlap>
150.181

> <ROCS_Rank>
411                 

$$$$
untitled-dbase-5079_0
  -OEChem-06232314393D

 11 11  0     0  0  0  0  0  0999 V2000
   -6.7503    5.0211  -34.9523 C   0  0  0  0  0  0  0  0  0  0  0  0
   -6.2284    6.1259  -35.5882 C   0  0  0  0  0  0  0  0  0  0  0  0
   -6.4557    3.7868  -36.8547 C   0  0  0  0  0  0  0  0  0  0  0  0
   -5.9345    4.8918  -37.4910 C   0  0  0  0  0  0  0  0  0  0  0  0
   -6.8733    3.8316  -35.5741 N   0  0  0  0  0  0  0  0  0  0  0  0
   -5.8112    6.0811  -36.8690 N   0  0  0  0  0  0  0  0  0  0  0  0
   -5.5212    4.8068  -38.7904 O   0  0  0  0  0  0  0  0  0  0  0  0
   -7.0861    5.0584  -33.9232 H   0  0  0  0  0  0  0  0  0  0  0  0
   -6.1308    7.0811  -35.0872 H   0  0  0  0  0  0  0  0  0  0  0  0
   -6.5558    2.8281  -37.3497 H   0  0  0  0  0  0  0  0  0  0  0  0
   -5.1829    5.6646  -39.0872 H   0  0  0  0  0  0  0  0  0  0  0  0
  1  2  1  0  0  0  0
  1  5  2  0  0  0  0
  2  6  2  0  0  0  0
  3  4  2  0  0  0  0
  3  5  1  0  0  0  0
  4  6  1  0  0  0  0
  4  7  1  0  0  0  0
  1  8  1  0  0  0  0
  2  9  1  0  0  0  0
  3 10  1  0  0  0  0
  7 11  1  0  0  0  0
M  END
> <id>
EN300-206304

> <smiles>
OC=1C=NC=CN1

> <MDLNUMBER>
MFCD00233966

> <IUPAC Name>
pyrazin-2-ol

> <CAS>
6270-63-9

> <Purity>
95

> <URL>
https://www.enaminestore.com/catalog/EN300-206304

> <MP>
185-190

> <ROCS_ShapeQuery>
_hit0

> <ROCS_TanimotoCombo>
0.999 

> <ROCS_ShapeTanimoto>
0.499 

> <ROCS_ColorTanimoto>
0.500 

> <ROCS_RefTversky>
1.169 

> <ROCS_RefColorTversky>
0.741 

> <ROCS_RefTverskyCombo>
1.911 

> <ROCS_FitTversky>
0.465 

> <ROCS_FitColorTversky>
0.605 

> <ROCS_FitTverskyCombo>
1.071 

> <ROCS_ColorScore>
-3.002

> <ROCS_Overlap>
138.476

> <ROCS_Rank>
412                 

$$$$
untitled-dbase-9382_0
  -OEChem-06232314393D

 11 11  0     1  0  0  0  0  0999 V2000
   -5.4563    6.0581  -36.9335 C   0  0  0  0  0  0  0  0  0  0  0  0
   -6.2522    5.7405  -35.9253 C   0  0  0  0  0  0  0  0  0  0  0  0
   -6.4225    4.2963  -35.8821 C   0  0  0  0  0  0  0  0  0  0  0  0
   -5.0320    4.8248  -37.6319 C   0  0  1  0  0  0  0  0  0  0  0  0
   -7.0957    3.6756  -35.0802 O   0  0  0  0  0  0  0  0  0  0  0  0
   -5.6870    3.7681  -36.9072 O   0  0  0  0  0  0  0  0  0  0  0  0
   -5.4489    4.8760  -38.9859 O   0  0  0  0  0  0  0  0  0  0  0  0
   -6.8477    6.5519  -35.0475 F   0  0  0  0  0  0  0  0  0  0  0  0
   -5.1587    7.0608  -37.1998 H   0  0  0  0  0  0  0  0  0  0  0  0
   -3.9470    4.6866  -37.5782 H   0  0  0  0  0  0  0  0  0  0  0  0
   -5.1516    4.0514  -39.4057 H   0  0  0  0  0  0  0  0  0  0  0  0
  1  2  2  0  0  0  0
  1  4  1  0  0  0  0
  2  3  1  0  0  0  0
  2  8  1  0  0  0  0
  3  5  2  0  0  0  0
  3  6  1  0  0  0  0
  4  6  1  0  0  0  0
  4  7  1  0  0  0  0
  1  9  1  0  0  0  0
  4 10  1  0  0  0  0
  7 11  1  0  0  0  0
M  END
> <id>
EN300-330350

> <smiles>
OC1OC(=O)C(=C1)F

> <MDLNUMBER>
MFCD30488093

> <IUPAC Name>
3-fluoro-5-hydroxy-2,5-dihydrofuran-2-one

> <CAS>
2060007-73-8

> <URL>
https://www.enaminestore.com/catalog/EN300-330350

> <ROCS_ShapeQuery>
_hit0

> <ROCS_TanimotoCombo>
0.998 

> <ROCS_ShapeTanimoto>
0.495 

> <ROCS_ColorTanimoto>
0.503 

> <ROCS_RefTversky>
1.267 

> <ROCS_RefColorTversky>
0.670 

> <ROCS_RefTverskyCombo>
1.937 

> <ROCS_FitTversky>
0.448 

> <ROCS_FitColorTversky>
0.670 

> <ROCS_FitTverskyCombo>
1.118 

> <ROCS_ColorScore>
-2.679

> <ROCS_Overlap>
152.924

> <ROCS_Rank>
413                 

$$$$
untitled-dbase-16295_0
  -OEChem-06232314393D

 13 13  0     0  0  0  0  0  0999 V2000
   -6.4413    3.7610  -36.8141 C   0  0  0  0  0  0  0  0  0  0  0  0
   -6.8658    4.9498  -34.8946 C   0  0  0  0  0  0  0  0  0  0  0  0
   -5.9733    4.8869  -37.4722 C   0  0  0  0  0  0  0  0  0  0  0  0
   -5.9644    6.0907  -36.7766 C   0  0  0  0  0  0  0  0  0  0  0  0
   -6.4175    6.1313  -35.4626 C   0  0  0  0  0  0  0  0  0  0  0  0
   -6.8894    3.7614  -35.5387 N   0  0  0  0  0  0  0  0  0  0  0  0
   -5.5230    4.8118  -38.8005 N   0  0  0  0  0  0  0  0  0  0  0  0
   -5.5182    7.2051  -37.3763 F   0  0  0  0  0  0  0  0  0  0  0  0
   -6.4256    7.7372  -34.4773 Br  0  0  0  0  0  0  0  0  0  0  0  0
   -6.4727    2.7927  -37.3046 H   0  0  0  0  0  0  0  0  0  0  0  0
   -7.2328    4.9132  -33.8732 H   0  0  0  0  0  0  0  0  0  0  0  0
   -5.4964    3.9226  -39.2633 H   0  0  0  0  0  0  0  0  0  0  0  0
   -5.1449    5.6299  -39.2403 H   0  0  0  0  0  0  0  0  0  0  0  0
  1  3  2  0  0  0  0
  1  6  1  0  0  0  0
  2  5  1  0  0  0  0
  2  6  2  0  0  0  0
  3  4  1  0  0  0  0
  3  7  1  0  0  0  0
  4  5  2  0  0  0  0
  4  8  1  0  0  0  0
  5  9  1  0  0  0  0
  1 10  1  0  0  0  0
  2 11  1  0  0  0  0
  7 12  1  0  0  0  0
  7 13  1  0  0  0  0
M  END
> <id>
EN300-1295188

> <smiles>
NC=1C=NC=C(Br)C1F

> <MDLNUMBER>
MFCD28715187

> <IUPAC Name>
5-bromo-4-fluoropyridin-3-amine

> <CAS>
1805614-47-4

> <URL>
https://www.enaminestore.com/catalog/EN300-1295188

> <ROCS_ShapeQuery>
_hit0

> <ROCS_TanimotoCombo>
0.998 

> <ROCS_ShapeTanimoto>
0.498 

> <ROCS_ColorTanimoto>
0.499 

> <ROCS_RefTversky>
1.337 

> <ROCS_RefColorTversky>
0.740 

> <ROCS_RefTverskyCombo>
2.078 

> <ROCS_FitTversky>
0.443 

> <ROCS_FitColorTversky>
0.606 

> <ROCS_FitTverskyCombo>
1.048 

> <ROCS_ColorScore>
-2.998

> <ROCS_Overlap>
163.390

> <ROCS_Rank>
414                 

$$$$
untitled-dbase-45263_0
  -OEChem-06232314393D

 10 10  0     0  0  0  0  0  0999 V2000
   -6.4664    3.6467  -36.8611 C   0  0  0  0  0  0  0  0  0  0  0  0
   -5.9710    4.7456  -37.5313 C   0  0  0  0  0  0  0  0  0  0  0  0
   -6.6597    5.1274  -35.2548 C   0  0  0  0  0  0  0  0  0  0  0  0
   -6.8615    3.8637  -35.5554 N   0  0  0  0  0  0  0  0  0  0  0  0
   -5.5191    4.8037  -38.8063 N   0  0  0  0  0  0  0  0  0  0  0  0
   -5.9980    6.1118  -36.4950 S   0  0  0  0  0  0  0  0  0  0  0  0
   -7.0816    5.8296  -33.5292 Br  0  0  0  0  0  0  0  0  0  0  0  0
   -6.5633    2.6527  -37.2780 H   0  0  0  0  0  0  0  0  0  0  0  0
   -5.4644    3.9677  -39.4030 H   0  0  0  0  0  0  0  0  0  0  0  0
   -5.1227    5.6655  -39.2042 H   0  0  0  0  0  0  0  0  0  0  0  0
  1  2  2  0  0  0  0
  1  4  1  0  0  0  0
  2  5  1  0  0  0  0
  2  6  1  0  0  0  0
  3  4  2  0  0  0  0
  3  6  1  0  0  0  0
  3  7  1  0  0  0  0
  1  8  1  0  0  0  0
  5  9  1  0  0  0  0
  5 10  1  0  0  0  0
M  END
> <id>
EN300-110075

> <smiles>
NC1=CN=C(Br)S1

> <MDLNUMBER>
MFCD09835089

> <IUPAC Name>
2-bromo-1,3-thiazol-5-amine

> <CAS>
1375068-76-0

> <URL>
https://www.enaminestore.com/catalog/EN300-110075

> <ROCS_ShapeQuery>
_hit0

> <ROCS_TanimotoCombo>
0.998 

> <ROCS_ShapeTanimoto>
0.499 

> <ROCS_ColorTanimoto>
0.499 

> <ROCS_RefTversky>
1.086 

> <ROCS_RefColorTversky>
0.740 

> <ROCS_RefTverskyCombo>
1.825 

> <ROCS_FitTversky>
0.480 

> <ROCS_FitColorTversky>
0.605 

> <ROCS_FitTverskyCombo>
1.085 

> <ROCS_ColorScore>
-2.996

> <ROCS_Overlap>
126.606

> <ROCS_Rank>
415                 

$$$$
untitled-dbase-1867_25
  -OEChem-06232314393D

 23 23  0     1  0  0  0  0  0999 V2000
   -6.1965    6.3243  -35.4885 C   0  0  0  0  0  0  0  0  0  0  0  0
   -5.3962    5.8841  -36.7145 C   0  0  0  0  0  0  0  0  0  0  0  0
   -7.6202    4.9995  -37.7026 C   0  0  0  0  0  0  0  0  0  0  0  0
   -7.1218    5.2463  -34.9129 C   0  0  0  0  0  0  0  0  0  0  0  0
   -7.6136    3.7962  -36.7566 C   0  0  0  0  0  0  0  0  0  0  0  0
   -6.2378    5.6186  -37.9779 C   0  0  1  0  0  0  0  0  0  0  0  0
   -6.4145    6.9138  -38.7828 C   0  0  0  0  0  0  0  0  0  0  0  0
   -6.9115    3.9822  -35.5302 O   0  0  0  0  0  0  0  0  0  0  0  0
   -5.4837    4.7120  -38.7922 O   0  0  0  0  0  0  0  0  0  0  0  0
   -5.5218    6.6746  -34.7016 H   0  0  0  0  0  0  0  0  0  0  0  0
   -6.8156    7.1898  -35.7489 H   0  0  0  0  0  0  0  0  0  0  0  0
   -4.5963    6.6071  -36.9263 H   0  0  0  0  0  0  0  0  0  0  0  0
   -4.8987    4.9432  -36.4356 H   0  0  0  0  0  0  0  0  0  0  0  0
   -8.0625    4.6719  -38.6521 H   0  0  0  0  0  0  0  0  0  0  0  0
   -8.2788    5.7687  -37.2787 H   0  0  0  0  0  0  0  0  0  0  0  0
   -6.9796    5.1578  -33.8474 H   0  0  0  0  0  0  0  0  0  0  0  0
   -8.1480    5.5205  -35.1068 H   0  0  0  0  0  0  0  0  0  0  0  0
   -8.6731    3.5754  -36.4721 H   0  0  0  0  0  0  0  0  0  0  0  0
   -7.2797    2.8538  -37.2748 H   0  0  0  0  0  0  0  0  0  0  0  0
   -7.0089    6.7100  -39.6685 H   0  0  0  0  0  0  0  0  0  0  0  0
   -5.4398    7.2906  -39.0784 H   0  0  0  0  0  0  0  0  0  0  0  0
   -6.9193    7.6540  -38.1690 H   0  0  0  0  0  0  0  0  0  0  0  0
   -4.6500    5.1605  -38.9932 H   0  0  0  0  0  0  0  0  0  0  0  0
  1  2  1  0  0  0  0
  1  4  1  0  0  0  0
  2  6  1  0  0  0  0
  3  5  1  0  0  0  0
  3  6  1  0  0  0  0
  4  8  1  0  0  0  0
  5  8  1  0  0  0  0
  6  7  1  0  0  0  0
  6  9  1  0  0  0  0
  1 10  1  0  0  0  0
  1 11  1  0  0  0  0
  2 12  1  0  0  0  0
  2 13  1  0  0  0  0
  3 14  1  0  0  0  0
  3 15  1  0  0  0  0
  4 16  1  0  0  0  0
  4 17  1  0  0  0  0
  5 18  1  0  0  0  0
  5 19  1  0  0  0  0
  7 20  1  0  0  0  0
  7 21  1  0  0  0  0
  7 22  1  0  0  0  0
  9 23  1  0  0  0  0
M  END
> <id>
EN300-107174

> <smiles>
CC1(O)CCCOCC1

> <MDLNUMBER>
MFCD21125031

> <IUPAC Name>
4-methyloxepan-4-ol

> <CAS>
1394040-51-7

> <Purity>
95

> <URL>
https://www.enaminestore.com/catalog/EN300-107174

> <ROCS_ShapeQuery>
_hit0

> <ROCS_TanimotoCombo>
0.998 

> <ROCS_ShapeTanimoto>
0.415 

> <ROCS_ColorTanimoto>
0.583 

> <ROCS_RefTversky>
1.148 

> <ROCS_RefColorTversky>
0.737 

> <ROCS_RefTverskyCombo>
1.884 

> <ROCS_FitTversky>
0.394 

> <ROCS_FitColorTversky>
0.737 

> <ROCS_FitTverskyCombo>
1.130 

> <ROCS_ColorScore>
-2.946

> <ROCS_Overlap>
139.263

> <ROCS_Rank>
416                 

$$$$
untitled-dbase-31678_0
  -OEChem-06232314393D

 15 15  0     0  0  0  0  0  0999 V2000
   -6.2528    6.1552  -35.4775 C   0  0  0  0  0  0  0  0  0  0  0  0
   -5.8288    6.0911  -36.8001 C   0  0  0  0  0  0  0  0  0  0  0  0
   -5.9273    4.8929  -37.4986 C   0  0  0  0  0  0  0  0  0  0  0  0
   -6.7637    5.0022  -34.9036 C   0  0  0  0  0  0  0  0  0  0  0  0
   -6.4527    3.7963  -36.8342 C   0  0  0  0  0  0  0  0  0  0  0  0
   -5.2726    7.3138  -37.4509 C   0  0  0  0  0  0  0  0  0  0  0  0
   -6.8750    3.8202  -35.5501 N   0  0  0  0  0  0  0  0  0  0  0  0
   -5.5195    4.8101  -38.7927 O   0  0  0  0  0  0  0  0  0  0  0  0
   -7.3091    4.9869  -33.2767 Cl  0  0  0  0  0  0  0  0  0  0  0  0
   -6.6225    2.2637  -37.5950 Cl  0  0  0  0  0  0  0  0  0  0  0  0
   -6.1834    7.0810  -34.9150 H   0  0  0  0  0  0  0  0  0  0  0  0
   -4.1875    7.3643  -37.3019 H   0  0  0  0  0  0  0  0  0  0  0  0
   -5.4773    7.3181  -38.5290 H   0  0  0  0  0  0  0  0  0  0  0  0
   -5.7244    8.2243  -37.0373 H   0  0  0  0  0  0  0  0  0  0  0  0
   -5.6547    3.9107  -39.1329 H   0  0  0  0  0  0  0  0  0  0  0  0
  1  2  2  0  0  0  0
  1  4  1  0  0  0  0
  2  3  1  0  0  0  0
  2  6  1  0  0  0  0
  3  5  2  0  0  0  0
  3  8  1  0  0  0  0
  4  7  2  0  0  0  0
  4  9  1  0  0  0  0
  5  7  1  0  0  0  0
  5 10  1  0  0  0  0
  1 11  1  0  0  0  0
  6 12  1  0  0  0  0
  6 13  1  0  0  0  0
  6 14  1  0  0  0  0
  8 15  1  0  0  0  0
M  END
> <id>
EN300-1984635

> <smiles>
CC=1C=C(Cl)N=C(Cl)C1O

> <MDLNUMBER>
MFCD28168081

> <IUPAC Name>
2,6-dichloro-4-methylpyridin-3-ol

> <CAS>
1603251-89-3

> <URL>
https://www.enaminestore.com/catalog/EN300-1984635

> <ROCS_ShapeQuery>
_hit0

> <ROCS_TanimotoCombo>
0.998 

> <ROCS_ShapeTanimoto>
0.398 

> <ROCS_ColorTanimoto>
0.600 

> <ROCS_RefTversky>
1.213 

> <ROCS_RefColorTversky>
0.750 

> <ROCS_RefTverskyCombo>
1.963 

> <ROCS_FitTversky>
0.372 

> <ROCS_FitColorTversky>
0.750 

> <ROCS_FitTverskyCombo>
1.122 

> <ROCS_ColorScore>
-2.999

> <ROCS_Overlap>
150.410

> <ROCS_Rank>
417                 

$$$$
untitled-dbase-51257_3
  -OEChem-06232314393D

 14 15  0     1  0  0  0  0  0999 V2000
   -5.7173    6.9967  -36.0803 C   0  0  0  0  0  0  0  0  0  0  0  0
   -6.6068    6.2523  -35.1890 C   0  0  0  0  0  0  0  0  0  0  0  0
   -6.1761    4.1819  -36.4858 C   0  0  0  0  0  0  0  0  0  0  0  0
   -5.2797    4.9241  -37.3739 C   0  0  2  0  0  0  0  0  0  0  0  0
   -6.3409    5.6973  -36.5880 C   0  0  0  0  0  0  0  0  0  0  0  0
   -5.5332    4.8172  -38.7840 O   0  0  0  0  0  0  0  0  0  0  0  0
   -6.0726    7.9199  -36.5391 H   0  0  0  0  0  0  0  0  0  0  0  0
   -4.6428    6.9824  -35.8954 H   0  0  0  0  0  0  0  0  0  0  0  0
   -6.1811    5.6947  -34.3546 H   0  0  0  0  0  0  0  0  0  0  0  0
   -7.6103    6.6331  -34.9980 H   0  0  0  0  0  0  0  0  0  0  0  0
   -6.9791    3.5753  -36.9087 H   0  0  0  0  0  0  0  0  0  0  0  0
   -5.7912    3.7961  -35.5405 H   0  0  0  0  0  0  0  0  0  0  0  0
   -4.2458    5.0794  -37.0720 H   0  0  0  0  0  0  0  0  0  0  0  0
   -4.8604    5.3598  -39.2175 H   0  0  0  0  0  0  0  0  0  0  0  0
  1  2  1  0  0  0  0
  1  5  1  0  0  0  0
  2  5  1  0  0  0  0
  3  4  1  0  0  0  0
  3  5  1  0  0  0  0
  4  5  1  0  0  0  0
  4  6  1  0  0  0  0
  1  7  1  0  0  0  0
  1  8  1  0  0  0  0
  2  9  1  0  0  0  0
  2 10  1  0  0  0  0
  3 11  1  0  0  0  0
  3 12  1  0  0  0  0
  4 13  1  0  0  0  0
  6 14  1  0  0  0  0
M  END
> <id>
EN300-7576155

> <smiles>
OC1CC21CC2

> <MDLNUMBER>
MFCD28144038

> <IUPAC Name>
spiro[2.2]pentan-1-ol

> <CAS>
68423-22-3

> <URL>
https://www.enaminestore.com/catalog/EN300-7576155

> <ROCS_ShapeQuery>
_hit0

> <ROCS_TanimotoCombo>
0.997 

> <ROCS_ShapeTanimoto>
0.498 

> <ROCS_ColorTanimoto>
0.500 

> <ROCS_RefTversky>
1.022 

> <ROCS_RefColorTversky>
0.513 

> <ROCS_RefTverskyCombo>
1.535 

> <ROCS_FitTversky>
0.492 

> <ROCS_FitColorTversky>
0.952 

> <ROCS_FitTverskyCombo>
1.444 

> <ROCS_ColorScore>
-1.999

> <ROCS_Overlap>
117.947

> <ROCS_Rank>
418                 

$$$$
untitled-dbase-1212_0
  -OEChem-06232314393D

 19 19  0     0  0  0  0  0  0999 V2000
   -6.2535    6.1557  -35.4425 C   0  0  0  0  0  0  0  0  0  0  0  0
   -5.8312    6.0941  -36.7658 C   0  0  0  0  0  0  0  0  0  0  0  0
   -5.9367    4.8990  -37.4685 C   0  0  0  0  0  0  0  0  0  0  0  0
   -6.7699    5.0034  -34.8722 C   0  0  0  0  0  0  0  0  0  0  0  0
   -6.4671    3.8028  -36.8074 C   0  0  0  0  0  0  0  0  0  0  0  0
   -5.2700    7.3228  -37.4039 C   0  0  0  0  0  0  0  0  0  0  0  0
   -7.2318    5.0322  -33.4535 C   0  0  0  0  0  0  0  0  0  0  0  0
   -6.8880    3.8243  -35.5229 N   0  0  0  0  0  0  0  0  0  0  0  0
   -5.5143    4.8166  -38.8101 N   0  0  0  0  0  0  0  0  0  0  0  0
   -6.6523    2.2665  -37.5621 Cl  0  0  0  0  0  0  0  0  0  0  0  0
   -6.1801    7.0777  -34.8744 H   0  0  0  0  0  0  0  0  0  0  0  0
   -4.1853    7.3672  -37.2529 H   0  0  0  0  0  0  0  0  0  0  0  0
   -5.4742    7.3379  -38.4814 H   0  0  0  0  0  0  0  0  0  0  0  0
   -5.7197    8.2294  -36.9807 H   0  0  0  0  0  0  0  0  0  0  0  0
   -8.2921    5.3073  -33.4035 H   0  0  0  0  0  0  0  0  0  0  0  0
   -7.1025    4.0539  -32.9733 H   0  0  0  0  0  0  0  0  0  0  0  0
   -6.6556    5.7555  -32.8624 H   0  0  0  0  0  0  0  0  0  0  0  0
   -5.5552    3.9355  -39.2827 H   0  0  0  0  0  0  0  0  0  0  0  0
   -5.0928    5.6158  -39.2401 H   0  0  0  0  0  0  0  0  0  0  0  0
  1  2  1  0  0  0  0
  1  4  2  0  0  0  0
  2  3  2  0  0  0  0
  2  6  1  0  0  0  0
  3  5  1  0  0  0  0
  3  9  1  0  0  0  0
  4  7  1  0  0  0  0
  4  8  1  0  0  0  0
  5  8  2  0  0  0  0
  5 10  1  0  0  0  0
  1 11  1  0  0  0  0
  6 12  1  0  0  0  0
  6 13  1  0  0  0  0
  6 14  1  0  0  0  0
  7 15  1  0  0  0  0
  7 16  1  0  0  0  0
  7 17  1  0  0  0  0
  9 18  1  0  0  0  0
  9 19  1  0  0  0  0
M  END
> <id>
EN300-81518

> <smiles>
CC=1C=C(C)C(N)=C(Cl)N1

> <MDLNUMBER>
MFCD08273051

> <IUPAC Name>
2-chloro-4,6-dimethylpyridin-3-amine

> <CAS>
140413-40-7

> <Purity>
95

> <URL>
https://www.enaminestore.com/catalog/EN300-81518

> <MP>
58-60

> <ROCS_ShapeQuery>
_hit0

> <ROCS_TanimotoCombo>
0.997 

> <ROCS_ShapeTanimoto>
0.397 

> <ROCS_ColorTanimoto>
0.600 

> <ROCS_RefTversky>
1.219 

> <ROCS_RefColorTversky>
0.750 

> <ROCS_RefTverskyCombo>
1.969 

> <ROCS_FitTversky>
0.371 

> <ROCS_FitColorTversky>
0.750 

> <ROCS_FitTverskyCombo>
1.121 

> <ROCS_ColorScore>
-2.999

> <ROCS_Overlap>
151.488

> <ROCS_Rank>
419                 

$$$$
untitled-dbase-44101_0
  -OEChem-06232314393D

 16 16  0     0  0  0  0  0  0999 V2000
   -6.2780    6.1648  -35.4487 C   0  0  0  0  0  0  0  0  0  0  0  0
   -5.9381    4.9063  -37.4699 C   0  0  0  0  0  0  0  0  0  0  0  0
   -5.8509    6.1049  -36.7706 C   0  0  0  0  0  0  0  0  0  0  0  0
   -6.7805    5.0073  -34.8764 C   0  0  0  0  0  0  0  0  0  0  0  0
   -6.4557    3.8051  -36.8071 C   0  0  0  0  0  0  0  0  0  0  0  0
   -7.2483    5.0344  -33.4597 C   0  0  0  0  0  0  0  0  0  0  0  0
   -6.8807    3.8248  -35.5239 N   0  0  0  0  0  0  0  0  0  0  0  0
   -5.5136    4.8132  -38.8109 N   0  0  0  0  0  0  0  0  0  0  0  0
   -5.2217    7.5380  -37.5004 Cl  0  0  0  0  0  0  0  0  0  0  0  0
   -6.6183    2.2630  -37.5558 Cl  0  0  0  0  0  0  0  0  0  0  0  0
   -6.2219    7.0868  -34.8781 H   0  0  0  0  0  0  0  0  0  0  0  0
   -8.3125    5.2949  -33.4146 H   0  0  0  0  0  0  0  0  0  0  0  0
   -7.1071    4.0597  -32.9756 H   0  0  0  0  0  0  0  0  0  0  0  0
   -6.6845    5.7677  -32.8688 H   0  0  0  0  0  0  0  0  0  0  0  0
   -5.1881    5.6354  -39.2785 H   0  0  0  0  0  0  0  0  0  0  0  0
   -5.6325    3.9499  -39.3019 H   0  0  0  0  0  0  0  0  0  0  0  0
  1  3  1  0  0  0  0
  1  4  2  0  0  0  0
  2  3  2  0  0  0  0
  2  5  1  0  0  0  0
  2  8  1  0  0  0  0
  3  9  1  0  0  0  0
  4  6  1  0  0  0  0
  4  7  1  0  0  0  0
  5  7  2  0  0  0  0
  5 10  1  0  0  0  0
  1 11  1  0  0  0  0
  6 12  1  0  0  0  0
  6 13  1  0  0  0  0
  6 14  1  0  0  0  0
  8 15  1  0  0  0  0
  8 16  1  0  0  0  0
M  END
> <id>
EN300-2975434

> <smiles>
CC=1C=C(Cl)C(N)=C(Cl)N1

> <MDLNUMBER>
MFCD07774093

> <IUPAC Name>
2,4-dichloro-6-methylpyridin-3-amine

> <URL>
https://www.enaminestore.com/catalog/EN300-2975434

> <ROCS_ShapeQuery>
_hit0

> <ROCS_TanimotoCombo>
0.997 

> <ROCS_ShapeTanimoto>
0.397 

> <ROCS_ColorTanimoto>
0.600 

> <ROCS_RefTversky>
1.207 

> <ROCS_RefColorTversky>
0.750 

> <ROCS_RefTverskyCombo>
1.956 

> <ROCS_FitTversky>
0.372 

> <ROCS_FitColorTversky>
0.750 

> <ROCS_FitTverskyCombo>
1.122 

> <ROCS_ColorScore>
-2.999

> <ROCS_Overlap>
149.509

> <ROCS_Rank>
420                 

$$$$
untitled-dbase-33202_0
  -OEChem-06232314393D

 13 13  0     0  0  0  0  0  0999 V2000
   -6.3763    3.1787  -37.4695 C   0  0  0  0  0  0  0  0  0  0  0  0
   -6.8832    2.8632  -36.2192 C   0  0  0  0  0  0  0  0  0  0  0  0
   -5.9728    4.4898  -37.6963 C   0  0  0  0  0  0  0  0  0  0  0  0
   -6.0869    5.4321  -36.6803 C   0  0  0  0  0  0  0  0  0  0  0  0
   -6.6069    5.0158  -35.4653 C   0  0  0  0  0  0  0  0  0  0  0  0
   -7.0094    3.7512  -35.2076 N   0  0  0  0  0  0  0  0  0  0  0  0
   -5.4496    4.8592  -38.9521 N   0  0  0  0  0  0  0  0  0  0  0  0
   -5.7059    6.7020  -36.8739 F   0  0  0  0  0  0  0  0  0  0  0  0
   -6.7861    6.1053  -34.1513 Cl  0  0  0  0  0  0  0  0  0  0  0  0
   -6.3007    2.4191  -38.2403 H   0  0  0  0  0  0  0  0  0  0  0  0
   -7.2126    1.8547  -35.9918 H   0  0  0  0  0  0  0  0  0  0  0  0
   -5.2068    5.8153  -39.1181 H   0  0  0  0  0  0  0  0  0  0  0  0
   -5.4174    4.1808  -39.6865 H   0  0  0  0  0  0  0  0  0  0  0  0
  1  2  1  0  0  0  0
  1  3  2  0  0  0  0
  2  6  2  0  0  0  0
  3  4  1  0  0  0  0
  3  7  1  0  0  0  0
  4  5  2  0  0  0  0
  4  8  1  0  0  0  0
  5  6  1  0  0  0  0
  5  9  1  0  0  0  0
  1 10  1  0  0  0  0
  2 11  1  0  0  0  0
  7 12  1  0  0  0  0
  7 13  1  0  0  0  0
M  END
> <id>
EN300-249995

> <smiles>
NC=1C=CN=C(Cl)C1F

> <MDLNUMBER>
MFCD16606117

> <IUPAC Name>
2-chloro-3-fluoropyridin-4-amine

> <CAS>
1227577-03-8

> <Purity>
95

> <URL>
https://www.enaminestore.com/catalog/EN300-249995

> <ROCS_ShapeQuery>
_hit0

> <ROCS_TanimotoCombo>
0.997 

> <ROCS_ShapeTanimoto>
0.452 

> <ROCS_ColorTanimoto>
0.545 

> <ROCS_RefTversky>
1.261 

> <ROCS_RefColorTversky>
0.705 

> <ROCS_RefTverskyCombo>
1.966 

> <ROCS_FitTversky>
0.413 

> <ROCS_FitColorTversky>
0.705 

> <ROCS_FitTverskyCombo>
1.119 

> <ROCS_ColorScore>
-2.822

> <ROCS_Overlap>
154.304

> <ROCS_Rank>
421                 

$$$$
untitled-dbase-33243_0
  -OEChem-06232314393D

 13 13  0     0  0  0  0  0  0999 V2000
   -6.3763    3.1787  -37.4695 C   0  0  0  0  0  0  0  0  0  0  0  0
   -6.8832    2.8632  -36.2192 C   0  0  0  0  0  0  0  0  0  0  0  0
   -5.9728    4.4898  -37.6963 C   0  0  0  0  0  0  0  0  0  0  0  0
   -6.0869    5.4321  -36.6803 C   0  0  0  0  0  0  0  0  0  0  0  0
   -6.6069    5.0158  -35.4653 C   0  0  0  0  0  0  0  0  0  0  0  0
   -7.0094    3.7512  -35.2076 N   0  0  0  0  0  0  0  0  0  0  0  0
   -5.4496    4.8592  -38.9521 N   0  0  0  0  0  0  0  0  0  0  0  0
   -5.7059    6.7020  -36.8739 F   0  0  0  0  0  0  0  0  0  0  0  0
   -6.7861    6.1053  -34.1513 Cl  0  0  0  0  0  0  0  0  0  0  0  0
   -6.3007    2.4191  -38.2403 H   0  0  0  0  0  0  0  0  0  0  0  0
   -7.2126    1.8547  -35.9918 H   0  0  0  0  0  0  0  0  0  0  0  0
   -5.2068    5.8153  -39.1181 H   0  0  0  0  0  0  0  0  0  0  0  0
   -5.4174    4.1808  -39.6865 H   0  0  0  0  0  0  0  0  0  0  0  0
  1  2  1  0  0  0  0
  1  3  2  0  0  0  0
  2  6  2  0  0  0  0
  3  4  1  0  0  0  0
  3  7  1  0  0  0  0
  4  5  2  0  0  0  0
  4  8  1  0  0  0  0
  5  6  1  0  0  0  0
  5  9  1  0  0  0  0
  1 10  1  0  0  0  0
  2 11  1  0  0  0  0
  7 12  1  0  0  0  0
  7 13  1  0  0  0  0
M  END
> <id>
EN300-251515

> <smiles>
Cl.NC=1C=CN=C(Cl)C1F

> <MDLNUMBER>
MFCD29054991

> <IUPAC Name>
2-chloro-3-fluoropyridin-4-amine hydrochloride

> <CAS>
1955554-02-5

> <Purity>
95

> <URL>
https://www.enaminestore.com/catalog/EN300-251515

> <Saltdate>
Cl

> <ROCS_ShapeQuery>
_hit0

> <ROCS_TanimotoCombo>
0.997 

> <ROCS_ShapeTanimoto>
0.452 

> <ROCS_ColorTanimoto>
0.545 

> <ROCS_RefTversky>
1.261 

> <ROCS_RefColorTversky>
0.705 

> <ROCS_RefTverskyCombo>
1.966 

> <ROCS_FitTversky>
0.413 

> <ROCS_FitColorTversky>
0.705 

> <ROCS_FitTverskyCombo>
1.119 

> <ROCS_ColorScore>
-2.822

> <ROCS_Overlap>
154.304

> <ROCS_Rank>
422                 

$$$$
untitled-dbase-21483_0
  -OEChem-06232314393D

 12 12  0     0  0  0  0  0  0999 V2000
   -6.6283    5.2016  -35.2080 C   0  0  0  0  0  0  0  0  0  0  0  0
   -5.9995    4.7458  -37.4359 C   0  0  0  0  0  0  0  0  0  0  0  0
   -6.9082    5.8059  -33.8900 C   0  0  0  0  0  0  0  0  0  0  0  0
   -6.8621    3.9482  -35.5341 N   0  0  0  0  0  0  0  0  0  0  0  0
   -6.4923    3.6807  -36.8406 N   0  0  0  0  0  0  0  0  0  0  0  0
   -5.5542    4.7871  -38.7179 N   0  0  0  0  0  0  0  0  0  0  0  0
   -5.9445    6.1546  -36.4593 S   0  0  0  0  0  0  0  0  0  0  0  0
   -6.0408    5.7094  -33.2170 H   0  0  0  0  0  0  0  0  0  0  0  0
   -7.1526    6.8786  -33.9709 H   0  0  0  0  0  0  0  0  0  0  0  0
   -7.7725    5.3327  -33.3937 H   0  0  0  0  0  0  0  0  0  0  0  0
   -5.2225    5.6588  -39.1471 H   0  0  0  0  0  0  0  0  0  0  0  0
   -5.6190    3.9720  -39.3389 H   0  0  0  0  0  0  0  0  0  0  0  0
  1  3  1  0  0  0  0
  1  4  2  0  0  0  0
  1  7  1  0  0  0  0
  2  5  2  0  0  0  0
  2  6  1  0  0  0  0
  2  7  1  0  0  0  0
  4  5  1  0  0  0  0
  3  8  1  0  0  0  0
  3  9  1  0  0  0  0
  3 10  1  0  0  0  0
  6 11  1  0  0  0  0
  6 12  1  0  0  0  0
M  END
> <id>
EN300-17271

> <smiles>
CC1=NN=C(N)S1

> <MDLNUMBER>
MFCD00003110

> <IUPAC Name>
5-methyl-1,3,4-thiadiazol-2-amine

> <CAS>
108-33-8

> <Purity>
95

> <URL>
https://www.enaminestore.com/catalog/EN300-17271

> <MP>
206-208

> <ROCS_ShapeQuery>
_hit0

> <ROCS_TanimotoCombo>
0.997 

> <ROCS_ShapeTanimoto>
0.493 

> <ROCS_ColorTanimoto>
0.504 

> <ROCS_RefTversky>
1.107 

> <ROCS_RefColorTversky>
0.767 

> <ROCS_RefTverskyCombo>
1.874 

> <ROCS_FitTversky>
0.470 

> <ROCS_FitColorTversky>
0.596 

> <ROCS_FitTverskyCombo>
1.066 

> <ROCS_ColorScore>
-3.119

> <ROCS_Overlap>
129.835

> <ROCS_Rank>
423                 

$$$$
untitled-dbase-9545_0
  -OEChem-06232314393D

 26 27  0     1  0  0  0  0  0999 V2000
   -6.8610    3.8575  -35.5295 C   0  0  0  0  0  0  0  0  0  0  0  0
   -7.6177    4.9952  -34.8488 C   0  0  0  0  0  0  0  0  0  0  0  0
   -6.5043    7.4796  -36.3446 C   0  0  0  0  0  0  0  0  0  0  0  0
   -5.7348    4.2733  -36.4829 C   0  0  0  0  0  0  0  0  0  0  0  0
   -5.7119    6.6927  -37.3855 C   0  0  0  0  0  0  0  0  0  0  0  0
   -7.1561    7.3547  -33.8441 C   0  0  0  0  0  0  0  0  0  0  0  0
   -6.6943    5.9638  -34.1843 C   0  0  2  0  0  0  0  0  0  0  0  0
   -6.1323    7.1488  -34.9322 C   0  0  1  0  0  0  0  0  0  0  0  0
   -6.1562    5.2375  -37.6003 C   0  0  1  0  0  0  0  0  0  0  0  0
   -5.5130    4.8087  -38.8094 O   0  0  0  0  0  0  0  0  0  0  0  0
   -6.4234    3.2118  -34.7570 H   0  0  0  0  0  0  0  0  0  0  0  0
   -7.5823    3.2357  -36.0742 H   0  0  0  0  0  0  0  0  0  0  0  0
   -8.2791    5.4879  -35.5690 H   0  0  0  0  0  0  0  0  0  0  0  0
   -8.2785    4.5661  -34.0856 H   0  0  0  0  0  0  0  0  0  0  0  0
   -6.2901    8.5461  -36.4910 H   0  0  0  0  0  0  0  0  0  0  0  0
   -7.5789    7.3667  -36.5271 H   0  0  0  0  0  0  0  0  0  0  0  0
   -4.8998    4.6942  -35.9095 H   0  0  0  0  0  0  0  0  0  0  0  0
   -5.3362    3.3499  -36.9249 H   0  0  0  0  0  0  0  0  0  0  0  0
   -5.8153    7.2210  -38.3433 H   0  0  0  0  0  0  0  0  0  0  0  0
   -4.6385    6.7250  -37.1579 H   0  0  0  0  0  0  0  0  0  0  0  0
   -8.1616    7.6453  -34.1235 H   0  0  0  0  0  0  0  0  0  0  0  0
   -6.8148    7.7842  -32.9097 H   0  0  0  0  0  0  0  0  0  0  0  0
   -6.0494    5.4769  -33.4605 H   0  0  0  0  0  0  0  0  0  0  0  0
   -5.1089    7.4306  -34.7090 H   0  0  0  0  0  0  0  0  0  0  0  0
   -7.2350    5.1872  -37.7863 H   0  0  0  0  0  0  0  0  0  0  0  0
   -5.8244    3.9077  -38.9714 H   0  0  0  0  0  0  0  0  0  0  0  0
  1  2  1  0  0  0  0
  1  4  1  0  0  0  0
  2  7  1  0  0  0  0
  3  5  1  0  0  0  0
  3  8  1  0  0  0  0
  4  9  1  0  0  0  0
  5  9  1  0  0  0  0
  6  7  1  0  0  0  0
  6  8  1  0  0  0  0
  7  8  1  0  0  0  0
  9 10  1  0  0  0  0
  1 11  1  0  0  0  0
  1 12  1  0  0  0  0
  2 13  1  0  0  0  0
  2 14  1  0  0  0  0
  3 15  1  0  0  0  0
  3 16  1  0  0  0  0
  4 17  1  0  0  0  0
  4 18  1  0  0  0  0
  5 19  1  0  0  0  0
  5 20  1  0  0  0  0
  6 21  1  0  0  0  0
  6 22  1  0  0  0  0
  7 23  1  0  0  0  0
  8 24  1  0  0  0  0
  9 25  1  0  0  0  0
 10 26  1  0  0  0  0
M  END
> <id>
EN300-335976

> <smiles>
OC1CCCC2CC2CC1

> <MDLNUMBER>
MFCD30336760

> <IUPAC Name>
bicyclo[6.1.0]nonan-4-ol

> <CAS>
28405-40-5

> <URL>
https://www.enaminestore.com/catalog/EN300-335976

> <ROCS_ShapeQuery>
_hit0

> <ROCS_TanimotoCombo>
0.996 

> <ROCS_ShapeTanimoto>
0.496 

> <ROCS_ColorTanimoto>
0.500 

> <ROCS_RefTversky>
1.388 

> <ROCS_RefColorTversky>
0.513 

> <ROCS_RefTverskyCombo>
1.901 

> <ROCS_FitTversky>
0.436 

> <ROCS_FitColorTversky>
0.952 

> <ROCS_FitTverskyCombo>
1.388 

> <ROCS_ColorScore>
-2.000

> <ROCS_Overlap>
171.324

> <ROCS_Rank>
424                 

$$$$
untitled-dbase-22152_0
  -OEChem-06232314393D

 15 15  0     0  0  0  0  0  0999 V2000
   -6.1270    5.9107  -36.7661 C   0  0  0  0  0  0  0  0  0  0  0  0
   -6.3792    3.5648  -36.9688 C   0  0  0  0  0  0  0  0  0  0  0  0
   -5.9985    4.7658  -37.5326 C   0  0  0  0  0  0  0  0  0  0  0  0
   -6.6281    5.7788  -35.4866 C   0  0  0  0  0  0  0  0  0  0  0  0
   -6.7877    6.9807  -34.6202 C   0  0  0  0  0  0  0  0  0  0  0  0
   -6.8665    3.4651  -35.7139 N   0  0  0  0  0  0  0  0  0  0  0  0
   -6.9932    4.5904  -34.9607 N   0  0  0  0  0  0  0  0  0  0  0  0
   -5.4965    4.8245  -38.8428 N   0  0  0  0  0  0  0  0  0  0  0  0
   -6.3992    8.1452  -35.2204 F   0  0  0  0  0  0  0  0  0  0  0  0
   -8.0755    7.2004  -34.2197 F   0  0  0  0  0  0  0  0  0  0  0  0
   -6.0562    6.9013  -33.4700 F   0  0  0  0  0  0  0  0  0  0  0  0
   -5.8426    6.8820  -37.1592 H   0  0  0  0  0  0  0  0  0  0  0  0
   -6.3073    2.6276  -37.5096 H   0  0  0  0  0  0  0  0  0  0  0  0
   -5.3686    3.9756  -39.3613 H   0  0  0  0  0  0  0  0  0  0  0  0
   -5.1828    5.7026  -39.2125 H   0  0  0  0  0  0  0  0  0  0  0  0
  1  3  1  0  0  0  0
  1  4  2  0  0  0  0
  2  3  2  0  0  0  0
  2  6  1  0  0  0  0
  3  8  1  0  0  0  0
  4  5  1  0  0  0  0
  4  7  1  0  0  0  0
  5  9  1  0  0  0  0
  5 10  1  0  0  0  0
  5 11  1  0  0  0  0
  6  7  2  0  0  0  0
  1 12  1  0  0  0  0
  2 13  1  0  0  0  0
  8 14  1  0  0  0  0
  8 15  1  0  0  0  0
M  END
> <id>
EN300-6783245

> <smiles>
NC=1C=NN=C(C1)C(F)(F)F

> <MDLNUMBER>
MFCD32268182

> <IUPAC Name>
6-(trifluoromethyl)pyridazin-4-amine

> <CAS>
1896941-42-6

> <Purity>
95

> <URL>
https://www.enaminestore.com/catalog/EN300-6783245

> <ROCS_ShapeQuery>
_hit0

> <ROCS_TanimotoCombo>
0.996 

> <ROCS_ShapeTanimoto>
0.463 

> <ROCS_ColorTanimoto>
0.534 

> <ROCS_RefTversky>
1.493 

> <ROCS_RefColorTversky>
0.797 

> <ROCS_RefTverskyCombo>
2.290 

> <ROCS_FitTversky>
0.401 

> <ROCS_FitColorTversky>
0.617 

> <ROCS_FitTverskyCombo>
1.019 

> <ROCS_ColorScore>
-3.241

> <ROCS_Overlap>
190.725

> <ROCS_Rank>
425                 

$$$$
untitled-dbase-4031_0
  -OEChem-06232314393D

 15 15  0     0  0  0  0  0  0999 V2000
   -6.3889    3.2059  -37.5064 C   0  0  0  0  0  0  0  0  0  0  0  0
   -6.0419    5.4485  -36.7097 C   0  0  0  0  0  0  0  0  0  0  0  0
   -6.8939    2.8966  -36.2537 C   0  0  0  0  0  0  0  0  0  0  0  0
   -5.9569    4.5083  -37.7306 C   0  0  0  0  0  0  0  0  0  0  0  0
   -6.5627    5.0389  -35.4928 C   0  0  0  0  0  0  0  0  0  0  0  0
   -6.6689    6.0215  -34.3746 C   0  0  0  0  0  0  0  0  0  0  0  0
   -6.9923    3.7828  -35.2375 N   0  0  0  0  0  0  0  0  0  0  0  0
   -5.4530    4.8611  -38.9440 O   0  0  0  0  0  0  0  0  0  0  0  0
   -6.3345    2.4519  -38.2839 H   0  0  0  0  0  0  0  0  0  0  0  0
   -5.7097    6.4697  -36.8659 H   0  0  0  0  0  0  0  0  0  0  0  0
   -7.2441    1.8948  -36.0280 H   0  0  0  0  0  0  0  0  0  0  0  0
   -7.6395    6.5308  -34.4059 H   0  0  0  0  0  0  0  0  0  0  0  0
   -6.5656    5.5275  -33.4001 H   0  0  0  0  0  0  0  0  0  0  0  0
   -5.8760    6.7781  -34.4336 H   0  0  0  0  0  0  0  0  0  0  0  0
   -5.4596    4.0996  -39.5460 H   0  0  0  0  0  0  0  0  0  0  0  0
  1  3  1  0  0  0  0
  1  4  2  0  0  0  0
  2  4  1  0  0  0  0
  2  5  2  0  0  0  0
  3  7  2  0  0  0  0
  4  8  1  0  0  0  0
  5  6  1  0  0  0  0
  5  7  1  0  0  0  0
  1  9  1  0  0  0  0
  2 10  1  0  0  0  0
  3 11  1  0  0  0  0
  6 12  1  0  0  0  0
  6 13  1  0  0  0  0
  6 14  1  0  0  0  0
  8 15  1  0  0  0  0
M  END
> <id>
EN300-108421

> <smiles>
CC=1C=C(O)C=CN1

> <MDLNUMBER>
MFCD04114156

> <IUPAC Name>
2-methylpyridin-4-ol

> <CAS>
18615-86-6

> <Purity>
95

> <URL>
https://www.enaminestore.com/catalog/EN300-108421

> <MP>
176-178

> <ROCS_ShapeQuery>
_hit0

> <ROCS_TanimotoCombo>
0.996 

> <ROCS_ShapeTanimoto>
0.443 

> <ROCS_ColorTanimoto>
0.553 

> <ROCS_RefTversky>
1.158 

> <ROCS_RefColorTversky>
0.712 

> <ROCS_RefTverskyCombo>
1.871 

> <ROCS_FitTversky>
0.418 

> <ROCS_FitColorTversky>
0.712 

> <ROCS_FitTverskyCombo>
1.130 

> <ROCS_ColorScore>
-2.849

> <ROCS_Overlap>
139.370

> <ROCS_Rank>
426                 

$$$$
untitled-dbase-21732_0
  -OEChem-06232314393D

 18 18  0     0  0  0  0  0  0999 V2000
   -6.2563    6.1625  -35.4825 C   0  0  0  0  0  0  0  0  0  0  0  0
   -5.8329    6.0959  -36.8052 C   0  0  0  0  0  0  0  0  0  0  0  0
   -5.9292    4.8956  -37.5005 C   0  0  0  0  0  0  0  0  0  0  0  0
   -6.7644    5.0099  -34.9053 C   0  0  0  0  0  0  0  0  0  0  0  0
   -6.4517    3.7997  -36.8330 C   0  0  0  0  0  0  0  0  0  0  0  0
   -5.2795    7.3183  -37.4592 C   0  0  0  0  0  0  0  0  0  0  0  0
   -7.2275    5.0443  -33.4874 C   0  0  0  0  0  0  0  0  0  0  0  0
   -6.8734    3.8260  -35.5488 N   0  0  0  0  0  0  0  0  0  0  0  0
   -5.5205    4.8101  -38.7943 O   0  0  0  0  0  0  0  0  0  0  0  0
   -6.6185    2.2647  -37.5895 Cl  0  0  0  0  0  0  0  0  0  0  0  0
   -6.1901    7.0886  -34.9205 H   0  0  0  0  0  0  0  0  0  0  0  0
   -4.1945    7.3713  -37.3107 H   0  0  0  0  0  0  0  0  0  0  0  0
   -5.4848    7.3196  -38.5370 H   0  0  0  0  0  0  0  0  0  0  0  0
   -5.7330    8.2288  -37.0474 H   0  0  0  0  0  0  0  0  0  0  0  0
   -8.2899    5.3117  -33.4397 H   0  0  0  0  0  0  0  0  0  0  0  0
   -7.0911    4.0701  -33.0006 H   0  0  0  0  0  0  0  0  0  0  0  0
   -6.6572    5.7757  -32.9004 H   0  0  0  0  0  0  0  0  0  0  0  0
   -5.6542    3.9096  -39.1321 H   0  0  0  0  0  0  0  0  0  0  0  0
  1  2  1  0  0  0  0
  1  4  2  0  0  0  0
  2  3  2  0  0  0  0
  2  6  1  0  0  0  0
  3  5  1  0  0  0  0
  3  9  1  0  0  0  0
  4  7  1  0  0  0  0
  4  8  1  0  0  0  0
  5  8  2  0  0  0  0
  5 10  1  0  0  0  0
  1 11  1  0  0  0  0
  6 12  1  0  0  0  0
  6 13  1  0  0  0  0
  6 14  1  0  0  0  0
  7 15  1  0  0  0  0
  7 16  1  0  0  0  0
  7 17  1  0  0  0  0
  9 18  1  0  0  0  0
M  END
> <id>
EN300-1986329

> <smiles>
CC=1C=C(C)C(O)=C(Cl)N1

> <MDLNUMBER>
MFCD30746296

> <IUPAC Name>
2-chloro-4,6-dimethylpyridin-3-ol

> <CAS>
2166836-09-3

> <URL>
https://www.enaminestore.com/catalog/EN300-1986329

> <ROCS_ShapeQuery>
_hit0

> <ROCS_TanimotoCombo>
0.996 

> <ROCS_ShapeTanimoto>
0.396 

> <ROCS_ColorTanimoto>
0.600 

> <ROCS_RefTversky>
1.220 

> <ROCS_RefColorTversky>
0.750 

> <ROCS_RefTverskyCombo>
1.970 

> <ROCS_FitTversky>
0.370 

> <ROCS_FitColorTversky>
0.750 

> <ROCS_FitTverskyCombo>
1.120 

> <ROCS_ColorScore>
-2.999

> <ROCS_Overlap>
151.754

> <ROCS_Rank>
427                 

$$$$
untitled-dbase-50729_0
  -OEChem-06232314393D

 18 18  0     0  0  0  0  0  0999 V2000
   -6.5691    4.7720  -36.1037 C   0  0  0  0  0  0  0  0  0  0  0  0
   -5.5257    8.4150  -37.9705 C   0  0  0  0  0  0  0  0  0  0  0  0
   -6.0321    8.4161  -36.6708 C   0  0  0  0  0  0  0  0  0  0  0  0
   -5.3635    7.2104  -38.6549 C   0  0  0  0  0  0  0  0  0  0  0  0
   -6.2141    6.0079  -36.7398 C   0  0  0  0  0  0  0  0  0  0  0  0
   -6.3763    7.2125  -36.0555 C   0  0  0  0  0  0  0  0  0  0  0  0
   -5.7077    6.0069  -38.0395 C   0  0  0  0  0  0  0  0  0  0  0  0
   -6.9148    7.2562  -34.6609 C   0  0  0  0  0  0  0  0  0  0  0  0
   -6.8564    3.7723  -35.5891 N   0  0  0  0  0  0  0  0  0  0  0  0
   -5.5318    4.8024  -38.7592 N   0  0  0  0  0  0  0  0  0  0  0  0
   -5.2569    9.3524  -38.4488 H   0  0  0  0  0  0  0  0  0  0  0  0
   -6.1542    9.3602  -36.1464 H   0  0  0  0  0  0  0  0  0  0  0  0
   -4.9678    7.2232  -39.6674 H   0  0  0  0  0  0  0  0  0  0  0  0
   -8.0060    7.3505  -34.6801 H   0  0  0  0  0  0  0  0  0  0  0  0
   -6.6503    6.3477  -34.1074 H   0  0  0  0  0  0  0  0  0  0  0  0
   -6.4986    8.1039  -34.1040 H   0  0  0  0  0  0  0  0  0  0  0  0
   -5.7316    3.9350  -38.3077 H   0  0  0  0  0  0  0  0  0  0  0  0
   -5.1229    4.8377  -39.6691 H   0  0  0  0  0  0  0  0  0  0  0  0
  1  5  1  0  0  0  0
  1  9  3  0  0  0  0
  2  3  1  0  0  0  0
  2  4  2  0  0  0  0
  3  6  2  0  0  0  0
  4  7  1  0  0  0  0
  5  6  1  0  0  0  0
  5  7  2  0  0  0  0
  6  8  1  0  0  0  0
  7 10  1  0  0  0  0
  2 11  1  0  0  0  0
  3 12  1  0  0  0  0
  4 13  1  0  0  0  0
  8 14  1  0  0  0  0
  8 15  1  0  0  0  0
  8 16  1  0  0  0  0
 10 17  1  0  0  0  0
 10 18  1  0  0  0  0
M  END
> <id>
EN300-91530

> <smiles>
CC=1C=CC=C(N)C1C#N

> <MDLNUMBER>
MFCD00058686

> <IUPAC Name>
2-amino-6-methylbenzonitrile

> <CAS>
56043-01-7

> <Purity>
95

> <URL>
https://www.enaminestore.com/catalog/EN300-91530

> <MP>
127-130

> <ROCS_ShapeQuery>
_hit0

> <ROCS_TanimotoCombo>
0.996 

> <ROCS_ShapeTanimoto>
0.399 

> <ROCS_ColorTanimoto>
0.597 

> <ROCS_RefTversky>
1.235 

> <ROCS_RefColorTversky>
0.748 

> <ROCS_RefTverskyCombo>
1.982 

> <ROCS_FitTversky>
0.371 

> <ROCS_FitColorTversky>
0.748 

> <ROCS_FitTverskyCombo>
1.118 

> <ROCS_ColorScore>
-2.991

> <ROCS_Overlap>
153.822

> <ROCS_Rank>
428                 

$$$$
untitled-dbase-2390_0
  -OEChem-06232314393D

 16 16  0     0  0  0  0  0  0999 V2000
   -6.3773    3.1922  -37.4703 C   0  0  0  0  0  0  0  0  0  0  0  0
   -6.8854    2.8742  -36.2211 C   0  0  0  0  0  0  0  0  0  0  0  0
   -6.0860    5.4433  -36.6753 C   0  0  0  0  0  0  0  0  0  0  0  0
   -5.9722    4.5034  -37.6936 C   0  0  0  0  0  0  0  0  0  0  0  0
   -6.6073    5.0246  -35.4617 C   0  0  0  0  0  0  0  0  0  0  0  0
   -5.6569    6.8568  -36.8937 C   0  0  0  0  0  0  0  0  0  0  0  0
   -7.0113    3.7597  -35.2075 N   0  0  0  0  0  0  0  0  0  0  0  0
   -5.4498    4.8595  -38.9558 N   0  0  0  0  0  0  0  0  0  0  0  0
   -6.7993    6.0900  -34.1242 Cl  0  0  0  0  0  0  0  0  0  0  0  0
   -6.3024    2.4335  -38.2425 H   0  0  0  0  0  0  0  0  0  0  0  0
   -7.2152    1.8652  -35.9960 H   0  0  0  0  0  0  0  0  0  0  0  0
   -6.4940    7.4538  -37.2739 H   0  0  0  0  0  0  0  0  0  0  0  0
   -5.2987    7.3110  -35.9615 H   0  0  0  0  0  0  0  0  0  0  0  0
   -4.8313    6.9137  -37.6141 H   0  0  0  0  0  0  0  0  0  0  0  0
   -5.2034    5.8123  -39.1293 H   0  0  0  0  0  0  0  0  0  0  0  0
   -5.4238    4.1738  -39.6824 H   0  0  0  0  0  0  0  0  0  0  0  0
  1  2  2  0  0  0  0
  1  4  1  0  0  0  0
  2  7  1  0  0  0  0
  3  4  2  0  0  0  0
  3  5  1  0  0  0  0
  3  6  1  0  0  0  0
  4  8  1  0  0  0  0
  5  7  2  0  0  0  0
  5  9  1  0  0  0  0
  1 10  1  0  0  0  0
  2 11  1  0  0  0  0
  6 12  1  0  0  0  0
  6 13  1  0  0  0  0
  6 14  1  0  0  0  0
  8 15  1  0  0  0  0
  8 16  1  0  0  0  0
M  END
> <id>
EN300-112734

> <smiles>
CC=1C(N)=CC=NC1Cl

> <MDLNUMBER>
MFCD18415428

> <IUPAC Name>
2-chloro-3-methylpyridin-4-amine

> <CAS>
79055-64-4

> <Purity>
95

> <URL>
https://www.enaminestore.com/catalog/EN300-112734

> <ROCS_ShapeQuery>
_hit0

> <ROCS_TanimotoCombo>
0.996 

> <ROCS_ShapeTanimoto>
0.451 

> <ROCS_ColorTanimoto>
0.544 

> <ROCS_RefTversky>
1.248 

> <ROCS_RefColorTversky>
0.705 

> <ROCS_RefTverskyCombo>
1.953 

> <ROCS_FitTversky>
0.414 

> <ROCS_FitColorTversky>
0.705 

> <ROCS_FitTverskyCombo>
1.119 

> <ROCS_ColorScore>
-2.820

> <ROCS_Overlap>
152.354

> <ROCS_Rank>
429                 

$$$$
untitled-dbase-6017_0
  -OEChem-06232314393D

 17 18  0     0  0  0  0  0  0999 V2000
   -6.0925    5.6406  -36.6139 C   0  0  0  0  0  0  0  0  0  0  0  0
   -6.6297    5.0747  -35.4374 C   0  0  0  0  0  0  0  0  0  0  0  0
   -5.9623    4.6981  -37.5967 C   0  0  0  0  0  0  0  0  0  0  0  0
   -5.8223    7.0864  -36.4477 C   0  0  0  0  0  0  0  0  0  0  0  0
   -6.7786    6.0752  -34.3567 C   0  0  0  0  0  0  0  0  0  0  0  0
   -6.5988    7.4176  -35.1336 C   0  0  0  0  0  0  0  0  0  0  0  0
   -6.9246    3.7857  -35.4238 N   0  0  0  0  0  0  0  0  0  0  0  0
   -5.4918    4.8340  -38.8572 N   0  0  0  0  0  0  0  0  0  0  0  0
   -6.5279    3.1983  -36.9467 S   0  0  0  0  0  0  0  0  0  0  0  0
   -4.7501    7.2631  -36.3125 H   0  0  0  0  0  0  0  0  0  0  0  0
   -6.1876    7.6880  -37.2842 H   0  0  0  0  0  0  0  0  0  0  0  0
   -7.7536    6.0323  -33.8637 H   0  0  0  0  0  0  0  0  0  0  0  0
   -5.9859    5.9563  -33.6111 H   0  0  0  0  0  0  0  0  0  0  0  0
   -6.0929    8.1803  -34.5331 H   0  0  0  0  0  0  0  0  0  0  0  0
   -7.5904    7.8098  -35.3963 H   0  0  0  0  0  0  0  0  0  0  0  0
   -5.3989    4.0311  -39.4949 H   0  0  0  0  0  0  0  0  0  0  0  0
   -5.1167    5.7270  -39.2063 H   0  0  0  0  0  0  0  0  0  0  0  0
  1  2  1  0  0  0  0
  1  3  2  0  0  0  0
  1  4  1  0  0  0  0
  2  5  1  0  0  0  0
  2  7  2  0  0  0  0
  3  8  1  0  0  0  0
  3  9  1  0  0  0  0
  4  6  1  0  0  0  0
  5  6  1  0  0  0  0
  7  9  1  0  0  0  0
  4 10  1  0  0  0  0
  4 11  1  0  0  0  0
  5 12  1  0  0  0  0
  5 13  1  0  0  0  0
  6 14  1  0  0  0  0
  6 15  1  0  0  0  0
  8 16  1  0  0  0  0
  8 17  1  0  0  0  0
M  END
> <id>
EN300-242562

> <smiles>
NC=1SN=C2CCCC12

> <MDLNUMBER>
MFCD09035121

> <IUPAC Name>
4H,5H,6H-cyclopenta[c][1,2]thiazol-3-amine

> <CAS>
937667-84-0

> <URL>
https://www.enaminestore.com/catalog/EN300-242562

> <ROCS_ShapeQuery>
_hit0

> <ROCS_TanimotoCombo>
0.995 

> <ROCS_ShapeTanimoto>
0.505 

> <ROCS_ColorTanimoto>
0.491 

> <ROCS_RefTversky>
1.356 

> <ROCS_RefColorTversky>
0.735 

> <ROCS_RefTverskyCombo>
2.090 

> <ROCS_FitTversky>
0.446 

> <ROCS_FitColorTversky>
0.596 

> <ROCS_FitTverskyCombo>
1.042 

> <ROCS_ColorScore>
-2.976

> <ROCS_Overlap>
165.859

> <ROCS_Rank>
430                 

$$$$
untitled-dbase-44185_0
  -OEChem-06232314393D

 17 18  0     0  0  0  0  0  0999 V2000
   -6.0925    5.6406  -36.6139 C   0  0  0  0  0  0  0  0  0  0  0  0
   -6.6297    5.0747  -35.4374 C   0  0  0  0  0  0  0  0  0  0  0  0
   -5.9623    4.6981  -37.5967 C   0  0  0  0  0  0  0  0  0  0  0  0
   -5.8223    7.0864  -36.4477 C   0  0  0  0  0  0  0  0  0  0  0  0
   -6.7786    6.0752  -34.3567 C   0  0  0  0  0  0  0  0  0  0  0  0
   -6.5988    7.4176  -35.1336 C   0  0  0  0  0  0  0  0  0  0  0  0
   -6.9246    3.7857  -35.4238 N   0  0  0  0  0  0  0  0  0  0  0  0
   -5.4918    4.8340  -38.8572 N   0  0  0  0  0  0  0  0  0  0  0  0
   -6.5279    3.1983  -36.9467 S   0  0  0  0  0  0  0  0  0  0  0  0
   -4.7501    7.2631  -36.3125 H   0  0  0  0  0  0  0  0  0  0  0  0
   -6.1876    7.6880  -37.2842 H   0  0  0  0  0  0  0  0  0  0  0  0
   -7.7536    6.0323  -33.8637 H   0  0  0  0  0  0  0  0  0  0  0  0
   -5.9859    5.9563  -33.6111 H   0  0  0  0  0  0  0  0  0  0  0  0
   -6.0929    8.1803  -34.5331 H   0  0  0  0  0  0  0  0  0  0  0  0
   -7.5904    7.8098  -35.3963 H   0  0  0  0  0  0  0  0  0  0  0  0
   -5.3989    4.0311  -39.4949 H   0  0  0  0  0  0  0  0  0  0  0  0
   -5.1167    5.7270  -39.2063 H   0  0  0  0  0  0  0  0  0  0  0  0
  1  2  1  0  0  0  0
  1  3  2  0  0  0  0
  1  4  1  0  0  0  0
  2  5  1  0  0  0  0
  2  7  2  0  0  0  0
  3  8  1  0  0  0  0
  3  9  1  0  0  0  0
  4  6  1  0  0  0  0
  5  6  1  0  0  0  0
  7  9  1  0  0  0  0
  4 10  1  0  0  0  0
  4 11  1  0  0  0  0
  5 12  1  0  0  0  0
  5 13  1  0  0  0  0
  6 14  1  0  0  0  0
  6 15  1  0  0  0  0
  8 16  1  0  0  0  0
  8 17  1  0  0  0  0
M  END
> <id>
EN300-239696

> <smiles>
Cl.NC=1SN=C2CCCC12

> <MDLNUMBER>
MFCD22587882

> <IUPAC Name>
4H,5H,6H-cyclopenta[c][1,2]thiazol-3-amine hydrochloride

> <CAS>
1365965-56-5

> <URL>
https://www.enaminestore.com/catalog/EN300-239696

> <Saltdate>
Cl

> <ROCS_ShapeQuery>
_hit0

> <ROCS_TanimotoCombo>
0.995 

> <ROCS_ShapeTanimoto>
0.505 

> <ROCS_ColorTanimoto>
0.491 

> <ROCS_RefTversky>
1.356 

> <ROCS_RefColorTversky>
0.735 

> <ROCS_RefTverskyCombo>
2.090 

> <ROCS_FitTversky>
0.446 

> <ROCS_FitColorTversky>
0.596 

> <ROCS_FitTverskyCombo>
1.042 

> <ROCS_ColorScore>
-2.976

> <ROCS_Overlap>
165.859

> <ROCS_Rank>
431                 

$$$$
untitled-dbase-12228_0
  -OEChem-06232314393D

 15 15  0     0  0  0  0  0  0999 V2000
   -6.3569    3.2106  -37.4933 C   0  0  0  0  0  0  0  0  0  0  0  0
   -6.8645    2.8895  -36.2446 C   0  0  0  0  0  0  0  0  0  0  0  0
   -5.9572    4.5236  -37.7154 C   0  0  0  0  0  0  0  0  0  0  0  0
   -6.0756    5.4623  -36.6965 C   0  0  0  0  0  0  0  0  0  0  0  0
   -6.5960    5.0405  -35.4836 C   0  0  0  0  0  0  0  0  0  0  0  0
   -6.7536    5.9908  -34.3410 C   0  0  0  0  0  0  0  0  0  0  0  0
   -6.9948    3.7738  -35.2304 N   0  0  0  0  0  0  0  0  0  0  0  0
   -5.4555    4.8593  -38.9371 O   0  0  0  0  0  0  0  0  0  0  0  0
   -5.5872    7.0971  -36.9483 Cl  0  0  0  0  0  0  0  0  0  0  0  0
   -6.2767    2.4565  -38.2687 H   0  0  0  0  0  0  0  0  0  0  0  0
   -7.1907    1.8792  -36.0207 H   0  0  0  0  0  0  0  0  0  0  0  0
   -7.7406    6.4655  -34.3763 H   0  0  0  0  0  0  0  0  0  0  0  0
   -6.6474    5.4742  -33.3795 H   0  0  0  0  0  0  0  0  0  0  0  0
   -5.9867    6.7743  -34.3697 H   0  0  0  0  0  0  0  0  0  0  0  0
   -5.2179    5.7995  -38.9545 H   0  0  0  0  0  0  0  0  0  0  0  0
  1  2  2  0  0  0  0
  1  3  1  0  0  0  0
  2  7  1  0  0  0  0
  3  4  2  0  0  0  0
  3  8  1  0  0  0  0
  4  5  1  0  0  0  0
  4  9  1  0  0  0  0
  5  6  1  0  0  0  0
  5  7  2  0  0  0  0
  1 10  1  0  0  0  0
  2 11  1  0  0  0  0
  6 12  1  0  0  0  0
  6 13  1  0  0  0  0
  6 14  1  0  0  0  0
  8 15  1  0  0  0  0
M  END
> <id>
EN300-719459

> <smiles>
CC=1N=CC=C(O)C1Cl

> <MDLNUMBER>
MFCD16610475

> <IUPAC Name>
3-chloro-2-methylpyridin-4-ol

> <CAS>
1227499-23-1

> <Purity>
95

> <URL>
https://www.enaminestore.com/catalog/EN300-719459

> <ROCS_ShapeQuery>
_hit0

> <ROCS_TanimotoCombo>
0.995 

> <ROCS_ShapeTanimoto>
0.442 

> <ROCS_ColorTanimoto>
0.553 

> <ROCS_RefTversky>
1.233 

> <ROCS_RefColorTversky>
0.712 

> <ROCS_RefTverskyCombo>
1.945 

> <ROCS_FitTversky>
0.408 

> <ROCS_FitColorTversky>
0.712 

> <ROCS_FitTverskyCombo>
1.120 

> <ROCS_ColorScore>
-2.849

> <ROCS_Overlap>
150.595

> <ROCS_Rank>
432                 

$$$$
untitled-dbase-18113_0
  -OEChem-06232314393D

 17 17  0     0  0  0  0  0  0999 V2000
   -6.4311    4.5641  -36.5108 C   0  0  0  0  0  0  0  0  0  0  0  0
   -6.7956    7.6333  -36.7575 C   0  0  0  0  0  0  0  0  0  0  0  0
   -5.3760    7.4622  -36.2140 C   0  0  0  0  0  0  0  0  0  0  0  0
   -6.9562    6.5888  -37.8597 C   0  0  0  0  0  0  0  0  0  0  0  0
   -4.7501    6.3219  -37.0142 C   0  0  0  0  0  0  0  0  0  0  0  0
   -5.9335    5.5045  -37.5267 C   0  0  0  0  0  0  0  0  0  0  0  0
   -6.8234    3.8223  -35.7095 N   0  0  0  0  0  0  0  0  0  0  0  0
   -5.5575    4.7903  -38.6943 O   0  0  0  0  0  0  0  0  0  0  0  0
   -7.5243    7.4626  -35.9566 H   0  0  0  0  0  0  0  0  0  0  0  0
   -6.9638    8.6445  -37.1419 H   0  0  0  0  0  0  0  0  0  0  0  0
   -4.7907    8.3823  -36.3110 H   0  0  0  0  0  0  0  0  0  0  0  0
   -5.4130    7.2092  -35.1481 H   0  0  0  0  0  0  0  0  0  0  0  0
   -7.9837    6.2123  -37.9171 H   0  0  0  0  0  0  0  0  0  0  0  0
   -6.7325    7.0430  -38.8337 H   0  0  0  0  0  0  0  0  0  0  0  0
   -4.1739    6.7331  -37.8532 H   0  0  0  0  0  0  0  0  0  0  0  0
   -4.0491    5.7367  -36.4086 H   0  0  0  0  0  0  0  0  0  0  0  0
   -6.3521    4.3305  -39.0128 H   0  0  0  0  0  0  0  0  0  0  0  0
  1  6  1  0  0  0  0
  1  7  3  0  0  0  0
  2  3  1  0  0  0  0
  2  4  1  0  0  0  0
  3  5  1  0  0  0  0
  4  6  1  0  0  0  0
  5  6  1  0  0  0  0
  6  8  1  0  0  0  0
  2  9  1  0  0  0  0
  2 10  1  0  0  0  0
  3 11  1  0  0  0  0
  3 12  1  0  0  0  0
  4 13  1  0  0  0  0
  4 14  1  0  0  0  0
  5 15  1  0  0  0  0
  5 16  1  0  0  0  0
  8 17  1  0  0  0  0
M  END
> <id>
EN300-54139

> <smiles>
OC1(CCCC1)C#N

> <MDLNUMBER>
MFCD00043764

> <IUPAC Name>
1-hydroxycyclopentane-1-carbonitrile

> <CAS>
5117-85-1

> <Purity>
95

> <URL>
https://www.enaminestore.com/catalog/EN300-54139

> <ROCS_ShapeQuery>
_hit0

> <ROCS_TanimotoCombo>
0.995 

> <ROCS_ShapeTanimoto>
0.414 

> <ROCS_ColorTanimoto>
0.581 

> <ROCS_RefTversky>
1.076 

> <ROCS_RefColorTversky>
0.735 

> <ROCS_RefTverskyCombo>
1.811 

> <ROCS_FitTversky>
0.402 

> <ROCS_FitColorTversky>
0.735 

> <ROCS_FitTverskyCombo>
1.137 

> <ROCS_ColorScore>
-2.940

> <ROCS_Overlap>
128.679

> <ROCS_Rank>
433                 

$$$$
untitled-dbase-1603_0
  -OEChem-06232314393D

 14 14  0     0  0  0  0  0  0999 V2000
   -6.5478    4.7776  -36.1296 C   0  0  0  0  0  0  0  0  0  0  0  0
   -5.4408    8.3773  -38.0430 C   0  0  0  0  0  0  0  0  0  0  0  0
   -5.3099    7.1579  -38.7073 C   0  0  0  0  0  0  0  0  0  0  0  0
   -5.9385    8.4121  -36.7403 C   0  0  0  0  0  0  0  0  0  0  0  0
   -6.1744    6.0078  -36.7664 C   0  0  0  0  0  0  0  0  0  0  0  0
   -5.6768    5.9731  -38.0690 C   0  0  0  0  0  0  0  0  0  0  0  0
   -6.3053    7.2273  -36.1020 C   0  0  0  0  0  0  0  0  0  0  0  0
   -6.8498    3.7824  -35.6146 N   0  0  0  0  0  0  0  0  0  0  0  0
   -5.5362    4.7969  -38.7453 O   0  0  0  0  0  0  0  0  0  0  0  0
   -6.9162    7.3333  -34.4866 Cl  0  0  0  0  0  0  0  0  0  0  0  0
   -5.1558    9.2998  -38.5403 H   0  0  0  0  0  0  0  0  0  0  0  0
   -4.9212    7.1387  -39.7217 H   0  0  0  0  0  0  0  0  0  0  0  0
   -6.0333    9.3712  -36.2378 H   0  0  0  0  0  0  0  0  0  0  0  0
   -5.1781    4.9622  -39.6309 H   0  0  0  0  0  0  0  0  0  0  0  0
  1  5  1  0  0  0  0
  1  8  3  0  0  0  0
  2  3  1  0  0  0  0
  2  4  2  0  0  0  0
  3  6  2  0  0  0  0
  4  7  1  0  0  0  0
  5  6  1  0  0  0  0
  5  7  2  0  0  0  0
  6  9  1  0  0  0  0
  7 10  1  0  0  0  0
  2 11  1  0  0  0  0
  3 12  1  0  0  0  0
  4 13  1  0  0  0  0
  9 14  1  0  0  0  0
M  END
> <id>
EN300-93775

> <smiles>
OC=1C=CC=C(Cl)C1C#N

> <MDLNUMBER>
MFCD01646165

> <IUPAC Name>
2-chloro-6-hydroxybenzonitrile

> <CAS>
89999-90-6

> <Purity>
95

> <URL>
https://www.enaminestore.com/catalog/EN300-93775

> <MP>
163-165

> <ROCS_ShapeQuery>
_hit0

> <ROCS_TanimotoCombo>
0.995 

> <ROCS_ShapeTanimoto>
0.399 

> <ROCS_ColorTanimoto>
0.595 

> <ROCS_RefTversky>
1.227 

> <ROCS_RefColorTversky>
0.746 

> <ROCS_RefTverskyCombo>
1.973 

> <ROCS_FitTversky>
0.372 

> <ROCS_FitColorTversky>
0.746 

> <ROCS_FitTverskyCombo>
1.118 

> <ROCS_ColorScore>
-2.985

> <ROCS_Overlap>
152.566

> <ROCS_Rank>
434                 

$$$$
untitled-dbase-28304_4
  -OEChem-06232314393D

 13 12  0     0  0  0  0  0  0999 V2000
   -6.1996    5.2893  -36.3910 C   0  0  0  0  0  0  0  0  0  0  0  0
   -5.7347    4.0990  -38.5761 C   0  0  0  0  0  0  0  0  0  0  0  0
   -6.5201    6.6990  -34.4564 N   0  0  0  0  0  0  0  0  0  0  0  0
   -5.7477    5.2541  -37.6991 N   0  0  0  0  0  0  0  0  0  0  0  0
   -6.1061    6.5174  -35.7634 N   0  0  0  0  0  0  0  0  0  0  0  0
   -6.8334    3.9847  -35.5422 S   0  0  0  0  0  0  0  0  0  0  0  0
   -4.7829    3.5600  -38.4593 H   0  0  0  0  0  0  0  0  0  0  0  0
   -6.5686    3.4310  -38.3148 H   0  0  0  0  0  0  0  0  0  0  0  0
   -5.8430    4.4298  -39.6196 H   0  0  0  0  0  0  0  0  0  0  0  0
   -5.8993    7.3940  -34.0436 H   0  0  0  0  0  0  0  0  0  0  0  0
   -6.3332    5.8264  -33.9643 H   0  0  0  0  0  0  0  0  0  0  0  0
   -5.3854    6.1222  -38.0817 H   0  0  0  0  0  0  0  0  0  0  0  0
   -5.7262    7.3212  -36.2532 H   0  0  0  0  0  0  0  0  0  0  0  0
  1  4  1  0  0  0  0
  1  5  1  0  0  0  0
  1  6  2  0  0  0  0
  2  4  1  0  0  0  0
  3  5  1  0  0  0  0
  2  7  1  0  0  0  0
  2  8  1  0  0  0  0
  2  9  1  0  0  0  0
  3 10  1  0  0  0  0
  3 11  1  0  0  0  0
  4 12  1  0  0  0  0
  5 13  1  0  0  0  0
M  END
> <id>
EN300-20028

> <smiles>
CNC(=S)NN

> <MDLNUMBER>
MFCD00007617

> <IUPAC Name>
3-amino-1-methylthiourea

> <CAS>
6610-29-3

> <Purity>
95

> <URL>
https://www.enaminestore.com/catalog/EN300-20028

> <MP>
135-138

> <ROCS_ShapeQuery>
_hit0

> <ROCS_TanimotoCombo>
0.995 

> <ROCS_ShapeTanimoto>
0.627 

> <ROCS_ColorTanimoto>
0.367 

> <ROCS_RefTversky>
1.108 

> <ROCS_RefColorTversky>
0.556 

> <ROCS_RefTverskyCombo>
1.664 

> <ROCS_FitTversky>
0.591 

> <ROCS_FitColorTversky>
0.520 

> <ROCS_FitTverskyCombo>
1.111 

> <ROCS_ColorScore>
-2.232

> <ROCS_Overlap>
126.335

> <ROCS_Rank>
435                 

$$$$
untitled-dbase-29973_4
  -OEChem-06232314393D

 17 17  0     1  0  0  0  0  0999 V2000
   -5.4887    3.2538  -37.1226 C   0  0  0  0  0  0  0  0  0  0  0  0
   -5.7396    3.1782  -35.6183 C   0  0  0  0  0  0  0  0  0  0  0  0
   -7.0372    5.1703  -35.5092 C   0  0  0  0  0  0  0  0  0  0  0  0
   -6.1846    4.4556  -37.7608 C   0  0  1  0  0  0  0  0  0  0  0  0
   -6.2865    5.6012  -36.7666 C   0  0  2  0  0  0  0  0  0  0  0  0
   -7.0008    3.7542  -35.2930 O   0  0  0  0  0  0  0  0  0  0  0  0
   -5.4670    4.8598  -38.9185 O   0  0  0  0  0  0  0  0  0  0  0  0
   -5.0179    5.9524  -36.3949 F   0  0  0  0  0  0  0  0  0  0  0  0
   -4.4026    3.3246  -37.3139 H   0  0  0  0  0  0  0  0  0  0  0  0
   -5.8126    2.3207  -37.6155 H   0  0  0  0  0  0  0  0  0  0  0  0
   -5.7062    2.1433  -35.2618 H   0  0  0  0  0  0  0  0  0  0  0  0
   -4.9666    3.7397  -35.0866 H   0  0  0  0  0  0  0  0  0  0  0  0
   -6.5789    5.6400  -34.6238 H   0  0  0  0  0  0  0  0  0  0  0  0
   -8.0906    5.5000  -35.5423 H   0  0  0  0  0  0  0  0  0  0  0  0
   -7.1914    4.1540  -38.0820 H   0  0  0  0  0  0  0  0  0  0  0  0
   -6.7400    6.4830  -37.2203 H   0  0  0  0  0  0  0  0  0  0  0  0
   -4.5718    5.0957  -38.6257 H   0  0  0  0  0  0  0  0  0  0  0  0
  1  2  1  0  0  0  0
  1  4  1  0  0  0  0
  2  6  1  0  0  0  0
  3  5  1  0  0  0  0
  3  6  1  0  0  0  0
  4  5  1  0  0  0  0
  4  7  1  0  0  0  0
  5  8  1  0  0  0  0
  1  9  1  0  0  0  0
  1 10  1  0  0  0  0
  2 11  1  0  0  0  0
  2 12  1  0  0  0  0
  3 13  1  0  0  0  0
  3 14  1  0  0  0  0
  4 15  1  0  0  0  0
  5 16  1  0  0  0  0
  7 17  1  0  0  0  0
M  END
> <id>
EN300-2934050

> <smiles>
OC1CCOCC1F

> <MDLNUMBER>
MFCD28501374

> <IUPAC Name>
3-fluorooxan-4-ol

> <CAS>
1481690-51-0

> <Purity>
95

> <URL>
https://www.enaminestore.com/catalog/EN300-2934050

> <ROCS_ShapeQuery>
_hit0

> <ROCS_TanimotoCombo>
0.994 

> <ROCS_ShapeTanimoto>
0.429 

> <ROCS_ColorTanimoto>
0.566 

> <ROCS_RefTversky>
1.110 

> <ROCS_RefColorTversky>
0.722 

> <ROCS_RefTverskyCombo>
1.833 

> <ROCS_FitTversky>
0.411 

> <ROCS_FitColorTversky>
0.722 

> <ROCS_FitTverskyCombo>
1.134 

> <ROCS_ColorScore>
-2.890

> <ROCS_Overlap>
132.936

> <ROCS_Rank>
436                 

$$$$
untitled-dbase-32387_0
  -OEChem-06232314393D

 13 13  0     0  0  0  0  0  0999 V2000
   -6.3952    3.1961  -37.4706 C   0  0  0  0  0  0  0  0  0  0  0  0
   -6.0564    5.4420  -36.6799 C   0  0  0  0  0  0  0  0  0  0  0  0
   -6.9003    2.8887  -36.2176 C   0  0  0  0  0  0  0  0  0  0  0  0
   -5.9673    4.4993  -37.6980 C   0  0  0  0  0  0  0  0  0  0  0  0
   -6.5769    5.0341  -35.4623 C   0  0  0  0  0  0  0  0  0  0  0  0
   -7.0026    3.7773  -35.2039 N   0  0  0  0  0  0  0  0  0  0  0  0
   -5.4469    4.8630  -38.9565 N   0  0  0  0  0  0  0  0  0  0  0  0
   -6.7250    6.1289  -34.1494 Cl  0  0  0  0  0  0  0  0  0  0  0  0
   -6.3390    2.4359  -38.2429 H   0  0  0  0  0  0  0  0  0  0  0  0
   -5.7302    6.4654  -36.8375 H   0  0  0  0  0  0  0  0  0  0  0  0
   -7.2478    1.8864  -35.9891 H   0  0  0  0  0  0  0  0  0  0  0  0
   -5.3461    4.1634  -39.6644 H   0  0  0  0  0  0  0  0  0  0  0  0
   -5.0992    5.7913  -39.0916 H   0  0  0  0  0  0  0  0  0  0  0  0
  1  3  1  0  0  0  0
  1  4  2  0  0  0  0
  2  4  1  0  0  0  0
  2  5  2  0  0  0  0
  3  6  2  0  0  0  0
  4  7  1  0  0  0  0
  5  6  1  0  0  0  0
  5  8  1  0  0  0  0
  1  9  1  0  0  0  0
  2 10  1  0  0  0  0
  3 11  1  0  0  0  0
  7 12  1  0  0  0  0
  7 13  1  0  0  0  0
M  END
> <id>
EN300-25778

> <smiles>
NC=1C=CN=C(Cl)C1

> <MDLNUMBER>
MFCD00060089

> <IUPAC Name>
2-chloropyridin-4-amine

> <CAS>
14432-12-3

> <Purity>
95

> <URL>
https://www.enaminestore.com/catalog/EN300-25778

> <MP>
90-94

> <ROCS_ShapeQuery>
_hit0

> <ROCS_TanimotoCombo>
0.994 

> <ROCS_ShapeTanimoto>
0.450 

> <ROCS_ColorTanimoto>
0.544 

> <ROCS_RefTversky>
1.154 

> <ROCS_RefColorTversky>
0.705 

> <ROCS_RefTverskyCombo>
1.859 

> <ROCS_FitTversky>
0.425 

> <ROCS_FitColorTversky>
0.705 

> <ROCS_FitTverskyCombo>
1.129 

> <ROCS_ColorScore>
-2.819

> <ROCS_Overlap>
138.427

> <ROCS_Rank>
437                 

$$$$
untitled-dbase-34156_0
  -OEChem-06232314393D

 13 13  0     0  0  0  0  0  0999 V2000
   -6.4261    3.7984  -36.8099 C   0  0  0  0  0  0  0  0  0  0  0  0
   -6.8641    4.9891  -34.8945 C   0  0  0  0  0  0  0  0  0  0  0  0
   -5.9645    4.9259  -37.4697 C   0  0  0  0  0  0  0  0  0  0  0  0
   -6.4228    6.1724  -35.4646 C   0  0  0  0  0  0  0  0  0  0  0  0
   -5.9661    6.1316  -36.7772 C   0  0  0  0  0  0  0  0  0  0  0  0
   -6.8775    3.7989  -35.5356 N   0  0  0  0  0  0  0  0  0  0  0  0
   -5.5148    4.8179  -38.7986 N   0  0  0  0  0  0  0  0  0  0  0  0
   -6.4435    7.3089  -34.7567 F   0  0  0  0  0  0  0  0  0  0  0  0
   -5.3562    7.7382  -37.5825 Br  0  0  0  0  0  0  0  0  0  0  0  0
   -6.4490    2.8280  -37.2970 H   0  0  0  0  0  0  0  0  0  0  0  0
   -7.2298    4.9674  -33.8733 H   0  0  0  0  0  0  0  0  0  0  0  0
   -5.2262    5.6427  -39.2881 H   0  0  0  0  0  0  0  0  0  0  0  0
   -5.5777    3.9353  -39.2680 H   0  0  0  0  0  0  0  0  0  0  0  0
  1  3  2  0  0  0  0
  1  6  1  0  0  0  0
  2  4  1  0  0  0  0
  2  6  2  0  0  0  0
  3  5  1  0  0  0  0
  3  7  1  0  0  0  0
  4  5  2  0  0  0  0
  4  8  1  0  0  0  0
  5  9  1  0  0  0  0
  1 10  1  0  0  0  0
  2 11  1  0  0  0  0
  7 12  1  0  0  0  0
  7 13  1  0  0  0  0
M  END
> <id>
EN300-26681735

> <smiles>
NC=1C=NC=C(F)C1Br.OC(=O)C(F)(F)F

> <MDLNUMBER>
MFCD32678849

> <IUPAC Name>
4-bromo-5-fluoropyridin-3-amine; trifluoroacetic acid

> <CAS>
2418642-23-4

> <Purity>
95

> <URL>
https://www.enaminestore.com/catalog/EN300-26681735

> <Saltdate>
OC(=O)C(F)(F)F

> <ROCS_ShapeQuery>
_hit0

> <ROCS_TanimotoCombo>
0.993 

> <ROCS_ShapeTanimoto>
0.494 

> <ROCS_ColorTanimoto>
0.500 

> <ROCS_RefTversky>
1.326 

> <ROCS_RefColorTversky>
0.741 

> <ROCS_RefTverskyCombo>
2.066 

> <ROCS_FitTversky>
0.440 

> <ROCS_FitColorTversky>
0.606 

> <ROCS_FitTverskyCombo>
1.046 

> <ROCS_ColorScore>
-3.000

> <ROCS_Overlap>
161.876

> <ROCS_Rank>
438                 

$$$$
untitled-dbase-17552_0
  -OEChem-06232314393D

 17 17  0     0  0  0  0  0  0999 V2000
   -6.5256    4.7622  -36.1097 C   0  0  0  0  0  0  0  0  0  0  0  0
   -5.3070    8.3563  -37.9626 C   0  0  0  0  0  0  0  0  0  0  0  0
   -5.7922    8.3770  -36.6550 C   0  0  0  0  0  0  0  0  0  0  0  0
   -5.2255    7.1495  -38.6572 C   0  0  0  0  0  0  0  0  0  0  0  0
   -6.1142    5.9840  -36.7366 C   0  0  0  0  0  0  0  0  0  0  0  0
   -6.1958    7.1909  -36.0420 C   0  0  0  0  0  0  0  0  0  0  0  0
   -5.6291    5.9633  -38.0443 C   0  0  0  0  0  0  0  0  0  0  0  0
   -6.7114    7.2544  -34.6397 C   0  0  0  0  0  0  0  0  0  0  0  0
   -6.8587    3.7731  -35.6021 N   0  0  0  0  0  0  0  0  0  0  0  0
   -5.5372    4.7987  -38.7481 O   0  0  0  0  0  0  0  0  0  0  0  0
   -4.9934    9.2802  -38.4399 H   0  0  0  0  0  0  0  0  0  0  0  0
   -5.8512    9.3226  -36.1222 H   0  0  0  0  0  0  0  0  0  0  0  0
   -4.8453    7.1409  -39.6749 H   0  0  0  0  0  0  0  0  0  0  0  0
   -7.7957    7.4106  -34.6425 H   0  0  0  0  0  0  0  0  0  0  0  0
   -6.4913    6.3282  -34.0962 H   0  0  0  0  0  0  0  0  0  0  0  0
   -6.2400    8.0729  -34.0830 H   0  0  0  0  0  0  0  0  0  0  0  0
   -5.1810    4.9711  -39.6332 H   0  0  0  0  0  0  0  0  0  0  0  0
  1  5  1  0  0  0  0
  1  9  3  0  0  0  0
  2  3  1  0  0  0  0
  2  4  2  0  0  0  0
  3  6  2  0  0  0  0
  4  7  1  0  0  0  0
  5  6  1  0  0  0  0
  5  7  2  0  0  0  0
  6  8  1  0  0  0  0
  7 10  1  0  0  0  0
  2 11  1  0  0  0  0
  3 12  1  0  0  0  0
  4 13  1  0  0  0  0
  8 14  1  0  0  0  0
  8 15  1  0  0  0  0
  8 16  1  0  0  0  0
 10 17  1  0  0  0  0
M  END
> <id>
EN300-306220

> <smiles>
CC=1C=CC=C(O)C1C#N

> <MDLNUMBER>
MFCD02261940

> <IUPAC Name>
2-hydroxy-6-methylbenzonitrile

> <CAS>
73289-66-4

> <Purity>
95

> <URL>
https://www.enaminestore.com/catalog/EN300-306220

> <MP>
109-111

> <ROCS_ShapeQuery>
_hit0

> <ROCS_TanimotoCombo>
0.993 

> <ROCS_ShapeTanimoto>
0.397 

> <ROCS_ColorTanimoto>
0.596 

> <ROCS_RefTversky>
1.235 

> <ROCS_RefColorTversky>
0.747 

> <ROCS_RefTverskyCombo>
1.982 

> <ROCS_FitTversky>
0.370 

> <ROCS_FitColorTversky>
0.747 

> <ROCS_FitTverskyCombo>
1.116 

> <ROCS_ColorScore>
-2.987

> <ROCS_Overlap>
154.011

> <ROCS_Rank>
439                 

$$$$
untitled-dbase-43272_0
  -OEChem-06232314393D

 17 17  0     1  0  0  0  0  0999 V2000
   -4.8855    6.2006  -36.5921 C   0  0  0  0  0  0  0  0  0  0  0  0
   -6.4729    4.8041  -36.2755 C   0  0  0  0  0  0  0  0  0  0  0  0
   -5.6835    5.7626  -35.3437 C   0  0  2  0  0  0  0  0  0  0  0  0
   -5.2590    4.8507  -37.2428 C   0  0  1  0  0  0  0  0  0  0  0  0
   -6.8226    3.4449  -35.7021 C   0  0  0  0  0  0  0  0  0  0  0  0
   -6.4609    6.7845  -34.6971 O   0  0  0  0  0  0  0  0  0  0  0  0
   -5.5728    4.8943  -38.6451 O   0  0  0  0  0  0  0  0  0  0  0  0
   -5.2958    7.0782  -37.1051 H   0  0  0  0  0  0  0  0  0  0  0  0
   -3.8156    6.3563  -36.4278 H   0  0  0  0  0  0  0  0  0  0  0  0
   -7.3682    5.2782  -36.7036 H   0  0  0  0  0  0  0  0  0  0  0  0
   -5.0549    5.2401  -34.6109 H   0  0  0  0  0  0  0  0  0  0  0  0
   -4.5100    4.0731  -37.0435 H   0  0  0  0  0  0  0  0  0  0  0  0
   -5.9346    2.9718  -35.2761 H   0  0  0  0  0  0  0  0  0  0  0  0
   -7.2223    2.7940  -36.4834 H   0  0  0  0  0  0  0  0  0  0  0  0
   -7.5741    3.5459  -34.9154 H   0  0  0  0  0  0  0  0  0  0  0  0
   -6.8914    6.3535  -33.9470 H   0  0  0  0  0  0  0  0  0  0  0  0
   -5.7817    3.9852  -38.8971 H   0  0  0  0  0  0  0  0  0  0  0  0
  1  3  1  0  0  0  0
  1  4  1  0  0  0  0
  2  3  1  0  0  0  0
  2  4  1  0  0  0  0
  2  5  1  0  0  0  0
  3  6  1  0  0  0  0
  4  7  1  0  0  0  0
  1  8  1  0  0  0  0
  1  9  1  0  0  0  0
  2 10  1  0  0  0  0
  3 11  1  0  0  0  0
  4 12  1  0  0  0  0
  5 13  1  0  0  0  0
  5 14  1  0  0  0  0
  5 15  1  0  0  0  0
  6 16  1  0  0  0  0
  7 17  1  0  0  0  0
M  END
> <id>
EN300-27735950

> <smiles>
CC1C(O)CC1O

> <MDLNUMBER>
MFCD33032136

> <IUPAC Name>
2-methylcyclobutane-1,3-diol

> <CAS>
2613388-71-7

> <Purity>
95

> <URL>
https://www.enaminestore.com/catalog/EN300-27735950

> <ROCS_ShapeQuery>
_hit0

> <ROCS_TanimotoCombo>
0.993 

> <ROCS_ShapeTanimoto>
0.543 

> <ROCS_ColorTanimoto>
0.450 

> <ROCS_RefTversky>
1.160 

> <ROCS_RefColorTversky>
0.690 

> <ROCS_RefTverskyCombo>
1.849 

> <ROCS_FitTversky>
0.505 

> <ROCS_FitColorTversky>
0.564 

> <ROCS_FitTverskyCombo>
1.069 

> <ROCS_ColorScore>
-2.793

> <ROCS_Overlap>
135.553

> <ROCS_Rank>
440                 

$$$$
untitled-dbase-46985_0
  -OEChem-06232314393D

 18 18  0     0  0  0  0  0  0999 V2000
   -5.9756    5.8860  -36.7130 C   0  0  0  0  0  0  0  0  0  0  0  0
   -5.9710    4.7589  -37.5158 C   0  0  0  0  0  0  0  0  0  0  0  0
   -6.4499    5.7583  -35.4230 C   0  0  0  0  0  0  0  0  0  0  0  0
   -6.4406    3.5787  -36.9753 C   0  0  0  0  0  0  0  0  0  0  0  0
   -6.4776    6.9418  -34.5176 C   0  0  0  0  0  0  0  0  0  0  0  0
   -6.4655    2.3207  -37.7776 C   0  0  0  0  0  0  0  0  0  0  0  0
   -6.9036    4.5906  -34.9203 N   0  0  0  0  0  0  0  0  0  0  0  0
   -6.8987    3.4828  -35.7092 N   0  0  0  0  0  0  0  0  0  0  0  0
   -5.4979    4.8336  -38.8380 N   0  0  0  0  0  0  0  0  0  0  0  0
   -5.6181    6.8412  -37.0849 H   0  0  0  0  0  0  0  0  0  0  0  0
   -7.4330    7.4733  -34.6110 H   0  0  0  0  0  0  0  0  0  0  0  0
   -6.3466    6.6454  -33.4684 H   0  0  0  0  0  0  0  0  0  0  0  0
   -5.6658    7.6433  -34.7522 H   0  0  0  0  0  0  0  0  0  0  0  0
   -5.5240    1.7721  -37.6554 H   0  0  0  0  0  0  0  0  0  0  0  0
   -7.2919    1.6682  -37.4684 H   0  0  0  0  0  0  0  0  0  0  0  0
   -6.6096    2.5326  -38.8448 H   0  0  0  0  0  0  0  0  0  0  0  0
   -5.4558    4.0007  -39.3933 H   0  0  0  0  0  0  0  0  0  0  0  0
   -5.1211    5.6978  -39.1774 H   0  0  0  0  0  0  0  0  0  0  0  0
  1  2  1  0  0  0  0
  1  3  2  0  0  0  0
  2  4  2  0  0  0  0
  2  9  1  0  0  0  0
  3  5  1  0  0  0  0
  3  7  1  0  0  0  0
  4  6  1  0  0  0  0
  4  8  1  0  0  0  0
  7  8  2  0  0  0  0
  1 10  1  0  0  0  0
  5 11  1  0  0  0  0
  5 12  1  0  0  0  0
  5 13  1  0  0  0  0
  6 14  1  0  0  0  0
  6 15  1  0  0  0  0
  6 16  1  0  0  0  0
  9 17  1  0  0  0  0
  9 18  1  0  0  0  0
M  END
> <id>
EN300-94776

> <smiles>
CC=1C=C(N)C(C)=NN1

> <MDLNUMBER>
MFCD19204960

> <IUPAC Name>
3,6-dimethylpyridazin-4-amine

> <CAS>
1073-36-5

> <URL>
https://www.enaminestore.com/catalog/EN300-94776

> <ROCS_ShapeQuery>
_hit0

> <ROCS_TanimotoCombo>
0.993 

> <ROCS_ShapeTanimoto>
0.460 

> <ROCS_ColorTanimoto>
0.533 

> <ROCS_RefTversky>
1.281 

> <ROCS_RefColorTversky>
0.797 

> <ROCS_RefTverskyCombo>
2.078 

> <ROCS_FitTversky>
0.418 

> <ROCS_FitColorTversky>
0.617 

> <ROCS_FitTverskyCombo>
1.035 

> <ROCS_ColorScore>
-3.239

> <ROCS_Overlap>
156.951

> <ROCS_Rank>
441                 

$$$$
untitled-dbase-38693_0
  -OEChem-06232314393D

 18 18  0     0  0  0  0  0  0999 V2000
   -5.9756    5.8860  -36.7130 C   0  0  0  0  0  0  0  0  0  0  0  0
   -5.9710    4.7589  -37.5158 C   0  0  0  0  0  0  0  0  0  0  0  0
   -6.4499    5.7583  -35.4230 C   0  0  0  0  0  0  0  0  0  0  0  0
   -6.4406    3.5787  -36.9753 C   0  0  0  0  0  0  0  0  0  0  0  0
   -6.4776    6.9418  -34.5176 C   0  0  0  0  0  0  0  0  0  0  0  0
   -6.4655    2.3207  -37.7776 C   0  0  0  0  0  0  0  0  0  0  0  0
   -6.9036    4.5906  -34.9203 N   0  0  0  0  0  0  0  0  0  0  0  0
   -6.8987    3.4828  -35.7092 N   0  0  0  0  0  0  0  0  0  0  0  0
   -5.4979    4.8336  -38.8380 N   0  0  0  0  0  0  0  0  0  0  0  0
   -5.6181    6.8412  -37.0849 H   0  0  0  0  0  0  0  0  0  0  0  0
   -7.4330    7.4733  -34.6110 H   0  0  0  0  0  0  0  0  0  0  0  0
   -6.3466    6.6454  -33.4684 H   0  0  0  0  0  0  0  0  0  0  0  0
   -5.6658    7.6433  -34.7522 H   0  0  0  0  0  0  0  0  0  0  0  0
   -5.5240    1.7721  -37.6554 H   0  0  0  0  0  0  0  0  0  0  0  0
   -7.2919    1.6682  -37.4684 H   0  0  0  0  0  0  0  0  0  0  0  0
   -6.6096    2.5326  -38.8448 H   0  0  0  0  0  0  0  0  0  0  0  0
   -5.4558    4.0007  -39.3933 H   0  0  0  0  0  0  0  0  0  0  0  0
   -5.1211    5.6978  -39.1774 H   0  0  0  0  0  0  0  0  0  0  0  0
  1  2  1  0  0  0  0
  1  3  2  0  0  0  0
  2  4  2  0  0  0  0
  2  9  1  0  0  0  0
  3  5  1  0  0  0  0
  3  7  1  0  0  0  0
  4  6  1  0  0  0  0
  4  8  1  0  0  0  0
  7  8  2  0  0  0  0
  1 10  1  0  0  0  0
  5 11  1  0  0  0  0
  5 12  1  0  0  0  0
  5 13  1  0  0  0  0
  6 14  1  0  0  0  0
  6 15  1  0  0  0  0
  6 16  1  0  0  0  0
  9 17  1  0  0  0  0
  9 18  1  0  0  0  0
M  END
> <id>
EN300-141639

> <smiles>
Cl.CC=1C=C(N)C(C)=NN1

> <MDLNUMBER>
MFCD26936202

> <IUPAC Name>
3,6-dimethylpyridazin-4-amine hydrochloride

> <CAS>
1803610-59-4

> <Purity>
95

> <URL>
https://www.enaminestore.com/catalog/EN300-141639

> <Saltdate>
Cl

> <ROCS_ShapeQuery>
_hit0

> <ROCS_TanimotoCombo>
0.993 

> <ROCS_ShapeTanimoto>
0.460 

> <ROCS_ColorTanimoto>
0.533 

> <ROCS_RefTversky>
1.281 

> <ROCS_RefColorTversky>
0.797 

> <ROCS_RefTverskyCombo>
2.078 

> <ROCS_FitTversky>
0.418 

> <ROCS_FitColorTversky>
0.617 

> <ROCS_FitTverskyCombo>
1.035 

> <ROCS_ColorScore>
-3.239

> <ROCS_Overlap>
156.951

> <ROCS_Rank>
442                 

$$$$
untitled-dbase-49744_0
  -OEChem-06232314393D

 17 17  0     0  0  0  0  0  0999 V2000
   -5.9587    5.8728  -36.7397 C   0  0  0  0  0  0  0  0  0  0  0  0
   -5.9609    4.7502  -37.5489 C   0  0  0  0  0  0  0  0  0  0  0  0
   -6.4353    5.7411  -35.4509 C   0  0  0  0  0  0  0  0  0  0  0  0
   -6.4391    3.5702  -37.0156 C   0  0  0  0  0  0  0  0  0  0  0  0
   -6.4566    6.9199  -34.5392 C   0  0  0  0  0  0  0  0  0  0  0  0
   -6.4659    2.3221  -37.8316 C   0  0  0  0  0  0  0  0  0  0  0  0
   -6.8975    4.5736  -34.9553 N   0  0  0  0  0  0  0  0  0  0  0  0
   -6.8992    3.4703  -35.7505 N   0  0  0  0  0  0  0  0  0  0  0  0
   -5.5020    4.8255  -38.8241 O   0  0  0  0  0  0  0  0  0  0  0  0
   -5.5936    6.8252  -37.1101 H   0  0  0  0  0  0  0  0  0  0  0  0
   -7.4085    7.4578  -34.6309 H   0  0  0  0  0  0  0  0  0  0  0  0
   -6.3286    6.6170  -33.4915 H   0  0  0  0  0  0  0  0  0  0  0  0
   -5.6401    7.6175  -34.7692 H   0  0  0  0  0  0  0  0  0  0  0  0
   -5.5271    1.7676  -37.7123 H   0  0  0  0  0  0  0  0  0  0  0  0
   -7.2962    1.6689  -37.5334 H   0  0  0  0  0  0  0  0  0  0  0  0
   -6.6050    2.5459  -38.8974 H   0  0  0  0  0  0  0  0  0  0  0  0
   -5.2059    5.7287  -39.0263 H   0  0  0  0  0  0  0  0  0  0  0  0
  1  2  1  0  0  0  0
  1  3  2  0  0  0  0
  2  4  2  0  0  0  0
  2  9  1  0  0  0  0
  3  5  1  0  0  0  0
  3  7  1  0  0  0  0
  4  6  1  0  0  0  0
  4  8  1  0  0  0  0
  7  8  2  0  0  0  0
  1 10  1  0  0  0  0
  5 11  1  0  0  0  0
  5 12  1  0  0  0  0
  5 13  1  0  0  0  0
  6 14  1  0  0  0  0
  6 15  1  0  0  0  0
  6 16  1  0  0  0  0
  9 17  1  0  0  0  0
M  END
> <id>
EN300-4274919

> <smiles>
CC=1C=C(O)C(C)=NN1

> <MDLNUMBER>
MFCD00234220

> <IUPAC Name>
3,6-dimethylpyridazin-4-ol

> <CAS>
952569-13-0

> <URL>
https://www.enaminestore.com/catalog/EN300-4274919

> <ROCS_ShapeQuery>
_hit0

> <ROCS_TanimotoCombo>
0.993 

> <ROCS_ShapeTanimoto>
0.458 

> <ROCS_ColorTanimoto>
0.535 

> <ROCS_RefTversky>
1.281 

> <ROCS_RefColorTversky>
0.799 

> <ROCS_RefTverskyCombo>
2.079 

> <ROCS_FitTversky>
0.416 

> <ROCS_FitColorTversky>
0.619 

> <ROCS_FitTverskyCombo>
1.034 

> <ROCS_ColorScore>
-3.247

> <ROCS_Overlap>
157.027

> <ROCS_Rank>
443                 

$$$$
untitled-dbase-24931_0
  -OEChem-06232314393D

 17 17  0     0  0  0  0  0  0999 V2000
   -5.9587    5.8728  -36.7397 C   0  0  0  0  0  0  0  0  0  0  0  0
   -5.9609    4.7502  -37.5489 C   0  0  0  0  0  0  0  0  0  0  0  0
   -6.4353    5.7411  -35.4509 C   0  0  0  0  0  0  0  0  0  0  0  0
   -6.4391    3.5702  -37.0156 C   0  0  0  0  0  0  0  0  0  0  0  0
   -6.4566    6.9199  -34.5392 C   0  0  0  0  0  0  0  0  0  0  0  0
   -6.4659    2.3221  -37.8316 C   0  0  0  0  0  0  0  0  0  0  0  0
   -6.8975    4.5736  -34.9553 N   0  0  0  0  0  0  0  0  0  0  0  0
   -6.8992    3.4703  -35.7505 N   0  0  0  0  0  0  0  0  0  0  0  0
   -5.5020    4.8255  -38.8241 O   0  0  0  0  0  0  0  0  0  0  0  0
   -5.5936    6.8252  -37.1101 H   0  0  0  0  0  0  0  0  0  0  0  0
   -7.4085    7.4578  -34.6309 H   0  0  0  0  0  0  0  0  0  0  0  0
   -6.3286    6.6170  -33.4915 H   0  0  0  0  0  0  0  0  0  0  0  0
   -5.6401    7.6175  -34.7692 H   0  0  0  0  0  0  0  0  0  0  0  0
   -5.5271    1.7676  -37.7123 H   0  0  0  0  0  0  0  0  0  0  0  0
   -7.2962    1.6689  -37.5334 H   0  0  0  0  0  0  0  0  0  0  0  0
   -6.6050    2.5459  -38.8974 H   0  0  0  0  0  0  0  0  0  0  0  0
   -5.2059    5.7287  -39.0263 H   0  0  0  0  0  0  0  0  0  0  0  0
  1  2  1  0  0  0  0
  1  3  2  0  0  0  0
  2  4  2  0  0  0  0
  2  9  1  0  0  0  0
  3  5  1  0  0  0  0
  3  7  1  0  0  0  0
  4  6  1  0  0  0  0
  4  8  1  0  0  0  0
  7  8  2  0  0  0  0
  1 10  1  0  0  0  0
  5 11  1  0  0  0  0
  5 12  1  0  0  0  0
  5 13  1  0  0  0  0
  6 14  1  0  0  0  0
  6 15  1  0  0  0  0
  6 16  1  0  0  0  0
  9 17  1  0  0  0  0
M  END
> <id>
EN300-6489814

> <smiles>
Cl.CC=1C=C(O)C(C)=NN1

> <MDLNUMBER>
MFCD31668674

> <IUPAC Name>
3,6-dimethylpyridazin-4-ol hydrochloride

> <CAS>
2243507-80-2

> <Purity>
95

> <URL>
https://www.enaminestore.com/catalog/EN300-6489814

> <Saltdate>
Cl

> <ROCS_ShapeQuery>
_hit0

> <ROCS_TanimotoCombo>
0.993 

> <ROCS_ShapeTanimoto>
0.458 

> <ROCS_ColorTanimoto>
0.535 

> <ROCS_RefTversky>
1.281 

> <ROCS_RefColorTversky>
0.799 

> <ROCS_RefTverskyCombo>
2.079 

> <ROCS_FitTversky>
0.416 

> <ROCS_FitColorTversky>
0.619 

> <ROCS_FitTverskyCombo>
1.034 

> <ROCS_ColorScore>
-3.247

> <ROCS_Overlap>
157.027

> <ROCS_Rank>
444                 

$$$$
untitled-dbase-30054_0
  -OEChem-06232314393D

 13 13  0     0  0  0  0  0  0999 V2000
   -5.9391    6.1124  -36.7903 C   0  0  0  0  0  0  0  0  0  0  0  0
   -6.4341    3.7862  -36.8085 C   0  0  0  0  0  0  0  0  0  0  0  0
   -5.9583    4.9031  -37.4763 C   0  0  0  0  0  0  0  0  0  0  0  0
   -6.3899    6.1670  -35.4761 C   0  0  0  0  0  0  0  0  0  0  0  0
   -6.8465    4.9936  -34.8979 C   0  0  0  0  0  0  0  0  0  0  0  0
   -6.8803    3.8003  -35.5324 N   0  0  0  0  0  0  0  0  0  0  0  0
   -5.5098    4.8167  -38.8043 N   0  0  0  0  0  0  0  0  0  0  0  0
   -6.3502    7.6848  -34.6601 Cl  0  0  0  0  0  0  0  0  0  0  0  0
   -7.4884    4.9592  -33.0998 Br  0  0  0  0  0  0  0  0  0  0  0  0
   -5.5710    7.0082  -37.2857 H   0  0  0  0  0  0  0  0  0  0  0  0
   -6.4736    2.8142  -37.2912 H   0  0  0  0  0  0  0  0  0  0  0  0
   -5.4896    3.9245  -39.2617 H   0  0  0  0  0  0  0  0  0  0  0  0
   -5.1265    5.6295  -39.2497 H   0  0  0  0  0  0  0  0  0  0  0  0
  1  3  1  0  0  0  0
  1  4  2  0  0  0  0
  2  3  2  0  0  0  0
  2  6  1  0  0  0  0
  3  7  1  0  0  0  0
  4  5  1  0  0  0  0
  4  8  1  0  0  0  0
  5  6  2  0  0  0  0
  5  9  1  0  0  0  0
  1 10  1  0  0  0  0
  2 11  1  0  0  0  0
  7 12  1  0  0  0  0
  7 13  1  0  0  0  0
M  END
> <id>
EN300-248763

> <smiles>
NC=1C=NC(Br)=C(Cl)C1

> <MDLNUMBER>
MFCD09835243

> <IUPAC Name>
6-bromo-5-chloropyridin-3-amine

> <CAS>
130284-52-5

> <Purity>
95

> <URL>
https://www.enaminestore.com/catalog/EN300-248763

> <ROCS_ShapeQuery>
_hit0

> <ROCS_TanimotoCombo>
0.993 

> <ROCS_ShapeTanimoto>
0.493 

> <ROCS_ColorTanimoto>
0.500 

> <ROCS_RefTversky>
1.297 

> <ROCS_RefColorTversky>
0.741 

> <ROCS_RefTverskyCombo>
2.038 

> <ROCS_FitTversky>
0.443 

> <ROCS_FitColorTversky>
0.606 

> <ROCS_FitTverskyCombo>
1.049 

> <ROCS_ColorScore>
-3.000

> <ROCS_Overlap>
157.602

> <ROCS_Rank>
445                 

$$$$
untitled-dbase-12259_159
  -OEChem-06232314393D

 25 25  0     1  0  0  0  0  0999 V2000
   -4.9141    6.5887  -35.9376 C   0  0  0  0  0  0  0  0  0  0  0  0
   -7.4765    6.7235  -36.4102 C   0  0  0  0  0  0  0  0  0  0  0  0
   -4.7493    5.0693  -35.9105 C   0  0  0  0  0  0  0  0  0  0  0  0
   -7.0921    6.2090  -37.7935 C   0  0  0  0  0  0  0  0  0  0  0  0
   -6.2821    7.1625  -35.5426 C   0  0  0  0  0  0  0  0  0  0  0  0
   -5.8565    4.2317  -36.5544 C   0  0  2  0  0  0  0  0  0  0  0  0
   -6.4844    4.7945  -37.8370 C   0  0  2  0  0  0  0  0  0  0  0  0
   -6.5846    6.9195  -34.1302 N   0  0  0  0  0  0  0  0  0  0  0  0
   -6.8573    3.9610  -35.5751 O   0  0  0  0  0  0  0  0  0  0  0  0
   -5.5023    4.7513  -38.8738 O   0  0  0  0  0  0  0  0  0  0  0  0
   -4.0969    7.0781  -35.3445 H   0  0  0  0  0  0  0  0  0  0  0  0
   -4.6982    6.9136  -36.9874 H   0  0  0  0  0  0  0  0  0  0  0  0
   -8.1367    7.5841  -36.5431 H   0  0  0  0  0  0  0  0  0  0  0  0
   -8.0577    5.9597  -35.8893 H   0  0  0  0  0  0  0  0  0  0  0  0
   -3.7791    4.7993  -36.3689 H   0  0  0  0  0  0  0  0  0  0  0  0
   -4.6607    4.7611  -34.8510 H   0  0  0  0  0  0  0  0  0  0  0  0
   -8.0118    6.2084  -38.4172 H   0  0  0  0  0  0  0  0  0  0  0  0
   -6.4251    6.9311  -38.3126 H   0  0  0  0  0  0  0  0  0  0  0  0
   -6.2145    8.2900  -35.6459 H   0  0  0  0  0  0  0  0  0  0  0  0
   -5.3984    3.2314  -36.7865 H   0  0  0  0  0  0  0  0  0  0  0  0
   -7.2865    4.0775  -38.1970 H   0  0  0  0  0  0  0  0  0  0  0  0
   -5.8462    7.3016  -33.5929 H   0  0  0  0  0  0  0  0  0  0  0  0
   -7.4438    7.3662  -33.9245 H   0  0  0  0  0  0  0  0  0  0  0  0
   -6.4131    3.4753  -34.8665 H   0  0  0  0  0  0  0  0  0  0  0  0
   -5.9702    4.9622  -39.6935 H   0  0  0  0  0  0  0  0  0  0  0  0
  1  3  1  0  0  0  0
  1  5  1  0  0  0  0
  2  4  1  0  0  0  0
  2  5  1  0  0  0  0
  3  6  1  0  0  0  0
  4  7  1  0  0  0  0
  5  8  1  0  0  0  0
  6  7  1  0  0  0  0
  6  9  1  0  0  0  0
  7 10  1  0  0  0  0
  1 11  1  0  0  0  0
  1 12  1  0  0  0  0
  2 13  1  0  0  0  0
  2 14  1  0  0  0  0
  3 15  1  0  0  0  0
  3 16  1  0  0  0  0
  4 17  1  0  0  0  0
  4 18  1  0  0  0  0
  5 19  1  0  0  0  0
  6 20  1  0  0  0  0
  7 21  1  0  0  0  0
  8 22  1  0  0  0  0
  8 23  1  0  0  0  0
  9 24  1  0  0  0  0
 10 25  1  0  0  0  0
M  END
> <id>
EN300-370946

> <smiles>
NC1CCC(O)C(O)CC1

> <MDLNUMBER>
MFCD31421223

> <IUPAC Name>
5-aminocycloheptane-1,2-diol

> <CAS>
25979-87-7

> <URL>
https://www.enaminestore.com/catalog/EN300-370946

> <ROCS_ShapeQuery>
_hit0

> <ROCS_TanimotoCombo>
0.993 

> <ROCS_ShapeTanimoto>
0.441 

> <ROCS_ColorTanimoto>
0.551 

> <ROCS_RefTversky>
1.269 

> <ROCS_RefColorTversky>
0.942 

> <ROCS_RefTverskyCombo>
2.210 

> <ROCS_FitTversky>
0.404 

> <ROCS_FitColorTversky>
0.571 

> <ROCS_FitTverskyCombo>
0.974 

> <ROCS_ColorScore>
-3.909

> <ROCS_Overlap>
156.172

> <ROCS_Rank>
446                 

$$$$
untitled-dbase-12224_159
  -OEChem-06232314393D

 25 25  0     1  0  0  0  0  0999 V2000
   -4.9141    6.5887  -35.9376 C   0  0  0  0  0  0  0  0  0  0  0  0
   -7.4765    6.7235  -36.4102 C   0  0  0  0  0  0  0  0  0  0  0  0
   -4.7493    5.0693  -35.9105 C   0  0  0  0  0  0  0  0  0  0  0  0
   -7.0921    6.2090  -37.7935 C   0  0  0  0  0  0  0  0  0  0  0  0
   -6.2821    7.1625  -35.5426 C   0  0  0  0  0  0  0  0  0  0  0  0
   -5.8565    4.2317  -36.5544 C   0  0  2  0  0  0  0  0  0  0  0  0
   -6.4844    4.7945  -37.8370 C   0  0  2  0  0  0  0  0  0  0  0  0
   -6.5846    6.9195  -34.1302 N   0  0  0  0  0  0  0  0  0  0  0  0
   -6.8573    3.9610  -35.5751 O   0  0  0  0  0  0  0  0  0  0  0  0
   -5.5023    4.7513  -38.8738 O   0  0  0  0  0  0  0  0  0  0  0  0
   -4.0969    7.0781  -35.3445 H   0  0  0  0  0  0  0  0  0  0  0  0
   -4.6982    6.9136  -36.9874 H   0  0  0  0  0  0  0  0  0  0  0  0
   -8.1367    7.5841  -36.5431 H   0  0  0  0  0  0  0  0  0  0  0  0
   -8.0577    5.9597  -35.8893 H   0  0  0  0  0  0  0  0  0  0  0  0
   -3.7791    4.7993  -36.3689 H   0  0  0  0  0  0  0  0  0  0  0  0
   -4.6607    4.7611  -34.8510 H   0  0  0  0  0  0  0  0  0  0  0  0
   -8.0118    6.2084  -38.4172 H   0  0  0  0  0  0  0  0  0  0  0  0
   -6.4251    6.9311  -38.3126 H   0  0  0  0  0  0  0  0  0  0  0  0
   -6.2145    8.2900  -35.6459 H   0  0  0  0  0  0  0  0  0  0  0  0
   -5.3984    3.2314  -36.7865 H   0  0  0  0  0  0  0  0  0  0  0  0
   -7.2865    4.0775  -38.1970 H   0  0  0  0  0  0  0  0  0  0  0  0
   -5.8462    7.3016  -33.5929 H   0  0  0  0  0  0  0  0  0  0  0  0
   -7.4438    7.3662  -33.9245 H   0  0  0  0  0  0  0  0  0  0  0  0
   -6.4131    3.4753  -34.8665 H   0  0  0  0  0  0  0  0  0  0  0  0
   -5.9702    4.9622  -39.6935 H   0  0  0  0  0  0  0  0  0  0  0  0
  1  3  1  0  0  0  0
  1  5  1  0  0  0  0
  2  4  1  0  0  0  0
  2  5  1  0  0  0  0
  3  6  1  0  0  0  0
  4  7  1  0  0  0  0
  5  8  1  0  0  0  0
  6  7  1  0  0  0  0
  6  9  1  0  0  0  0
  7 10  1  0  0  0  0
  1 11  1  0  0  0  0
  1 12  1  0  0  0  0
  2 13  1  0  0  0  0
  2 14  1  0  0  0  0
  3 15  1  0  0  0  0
  3 16  1  0  0  0  0
  4 17  1  0  0  0  0
  4 18  1  0  0  0  0
  5 19  1  0  0  0  0
  6 20  1  0  0  0  0
  7 21  1  0  0  0  0
  8 22  1  0  0  0  0
  8 23  1  0  0  0  0
  9 24  1  0  0  0  0
 10 25  1  0  0  0  0
M  END
> <id>
EN300-719161

> <smiles>
Cl.NC1CCC(O)C(O)CC1

> <MDLNUMBER>
MFCD31440512

> <IUPAC Name>
5-aminocycloheptane-1,2-diol hydrochloride

> <CAS>
2137463-65-9

> <URL>
https://www.enaminestore.com/catalog/EN300-719161

> <Saltdate>
Cl

> <ROCS_ShapeQuery>
_hit0

> <ROCS_TanimotoCombo>
0.993 

> <ROCS_ShapeTanimoto>
0.441 

> <ROCS_ColorTanimoto>
0.551 

> <ROCS_RefTversky>
1.269 

> <ROCS_RefColorTversky>
0.942 

> <ROCS_RefTverskyCombo>
2.210 

> <ROCS_FitTversky>
0.404 

> <ROCS_FitColorTversky>
0.571 

> <ROCS_FitTverskyCombo>
0.974 

> <ROCS_ColorScore>
-3.909

> <ROCS_Overlap>
156.172

> <ROCS_Rank>
447                 

$$$$
untitled-dbase-46848_0
  -OEChem-06232314393D

 13 13  0     0  0  0  0  0  0999 V2000
   -6.3786    3.2029  -37.4693 C   0  0  0  0  0  0  0  0  0  0  0  0
   -6.8858    2.8792  -36.2212 C   0  0  0  0  0  0  0  0  0  0  0  0
   -5.9719    4.5146  -37.6863 C   0  0  0  0  0  0  0  0  0  0  0  0
   -6.0833    5.4494  -36.6630 C   0  0  0  0  0  0  0  0  0  0  0  0
   -6.6039    5.0252  -35.4511 C   0  0  0  0  0  0  0  0  0  0  0  0
   -7.0094    3.7597  -35.2029 N   0  0  0  0  0  0  0  0  0  0  0  0
   -5.4517    4.8615  -38.9534 N   0  0  0  0  0  0  0  0  0  0  0  0
   -5.5818    7.0858  -36.9108 Cl  0  0  0  0  0  0  0  0  0  0  0  0
   -6.8048    6.0647  -34.0915 Cl  0  0  0  0  0  0  0  0  0  0  0  0
   -6.3045    2.4476  -38.2447 H   0  0  0  0  0  0  0  0  0  0  0  0
   -7.2150    1.8691  -36.0004 H   0  0  0  0  0  0  0  0  0  0  0  0
   -5.2016    5.8118  -39.1317 H   0  0  0  0  0  0  0  0  0  0  0  0
   -5.4321    4.1715  -39.6752 H   0  0  0  0  0  0  0  0  0  0  0  0
  1  2  1  0  0  0  0
  1  3  2  0  0  0  0
  2  6  2  0  0  0  0
  3  4  1  0  0  0  0
  3  7  1  0  0  0  0
  4  5  2  0  0  0  0
  4  8  1  0  0  0  0
  5  6  1  0  0  0  0
  5  9  1  0  0  0  0
  1 10  1  0  0  0  0
  2 11  1  0  0  0  0
  7 12  1  0  0  0  0
  7 13  1  0  0  0  0
M  END
> <id>
EN300-6488199

> <smiles>
NC=1C=CN=C(Cl)C1Cl

> <MDLNUMBER>
MFCD01646113

> <IUPAC Name>
2,3-dichloropyridin-4-amine

> <CAS>
184416-83-9

> <URL>
https://www.enaminestore.com/catalog/EN300-6488199

> <ROCS_ShapeQuery>
_hit0

> <ROCS_TanimotoCombo>
0.992 

> <ROCS_ShapeTanimoto>
0.448 

> <ROCS_ColorTanimoto>
0.544 

> <ROCS_RefTversky>
1.227 

> <ROCS_RefColorTversky>
0.705 

> <ROCS_RefTverskyCombo>
1.931 

> <ROCS_FitTversky>
0.414 

> <ROCS_FitColorTversky>
0.705 

> <ROCS_FitTverskyCombo>
1.119 

> <ROCS_ColorScore>
-2.819

> <ROCS_Overlap>
149.333

> <ROCS_Rank>
448                 

$$$$
untitled-dbase-46854_0
  -OEChem-06232314393D

 13 13  0     0  0  0  0  0  0999 V2000
   -6.3786    3.2029  -37.4693 C   0  0  0  0  0  0  0  0  0  0  0  0
   -6.8858    2.8792  -36.2212 C   0  0  0  0  0  0  0  0  0  0  0  0
   -5.9719    4.5146  -37.6863 C   0  0  0  0  0  0  0  0  0  0  0  0
   -6.0833    5.4494  -36.6630 C   0  0  0  0  0  0  0  0  0  0  0  0
   -6.6039    5.0252  -35.4511 C   0  0  0  0  0  0  0  0  0  0  0  0
   -7.0094    3.7597  -35.2029 N   0  0  0  0  0  0  0  0  0  0  0  0
   -5.4517    4.8615  -38.9534 N   0  0  0  0  0  0  0  0  0  0  0  0
   -5.5818    7.0858  -36.9108 Cl  0  0  0  0  0  0  0  0  0  0  0  0
   -6.8048    6.0647  -34.0915 Cl  0  0  0  0  0  0  0  0  0  0  0  0
   -6.3045    2.4476  -38.2447 H   0  0  0  0  0  0  0  0  0  0  0  0
   -7.2150    1.8691  -36.0004 H   0  0  0  0  0  0  0  0  0  0  0  0
   -5.2016    5.8118  -39.1317 H   0  0  0  0  0  0  0  0  0  0  0  0
   -5.4321    4.1715  -39.6752 H   0  0  0  0  0  0  0  0  0  0  0  0
  1  2  1  0  0  0  0
  1  3  2  0  0  0  0
  2  6  2  0  0  0  0
  3  4  1  0  0  0  0
  3  7  1  0  0  0  0
  4  5  2  0  0  0  0
  4  8  1  0  0  0  0
  5  6  1  0  0  0  0
  5  9  1  0  0  0  0
  1 10  1  0  0  0  0
  2 11  1  0  0  0  0
  7 12  1  0  0  0  0
  7 13  1  0  0  0  0
M  END
> <id>
EN300-6488198

> <smiles>
Cl.NC=1C=CN=C(Cl)C1Cl

> <MDLNUMBER>
MFCD34551308

> <IUPAC Name>
2,3-dichloropyridin-4-amine hydrochloride

> <CAS>
2703780-75-8

> <Purity>
95

> <URL>
https://www.enaminestore.com/catalog/EN300-6488198

> <Saltdate>
Cl

> <ROCS_ShapeQuery>
_hit0

> <ROCS_TanimotoCombo>
0.992 

> <ROCS_ShapeTanimoto>
0.448 

> <ROCS_ColorTanimoto>
0.544 

> <ROCS_RefTversky>
1.227 

> <ROCS_RefColorTversky>
0.705 

> <ROCS_RefTverskyCombo>
1.931 

> <ROCS_FitTversky>
0.414 

> <ROCS_FitColorTversky>
0.705 

> <ROCS_FitTverskyCombo>
1.119 

> <ROCS_ColorScore>
-2.819

> <ROCS_Overlap>
149.333

> <ROCS_Rank>
449                 

$$$$
untitled-dbase-52853_11
  -OEChem-06232314393D

 20 21  0     1  0  0  0  0  0999 V2000
   -5.7327    6.7417  -37.0007 C   0  0  0  0  0  0  0  0  0  0  0  0
   -7.7451    5.9799  -34.6476 C   0  0  0  0  0  0  0  0  0  0  0  0
   -7.5225    4.4977  -34.4235 C   0  0  0  0  0  0  0  0  0  0  0  0
   -5.4870    6.1307  -35.6119 C   0  0  2  0  0  0  0  0  0  0  0  0
   -5.8279    4.7326  -36.1623 C   0  0  2  0  0  0  0  0  0  0  0  0
   -6.2271    5.3774  -37.5156 C   0  0  2  0  0  0  0  0  0  0  0  0
   -6.4581    6.6616  -34.6506 N   0  0  0  0  0  0  0  0  0  0  0  0
   -6.8583    3.9328  -35.5436 O   0  0  0  0  0  0  0  0  0  0  0  0
   -5.5472    4.8574  -38.6730 O   0  0  0  0  0  0  0  0  0  0  0  0
   -6.4558    7.5714  -37.0685 H   0  0  0  0  0  0  0  0  0  0  0  0
   -4.8061    7.0867  -37.4932 H   0  0  0  0  0  0  0  0  0  0  0  0
   -8.2425    6.1425  -35.6127 H   0  0  0  0  0  0  0  0  0  0  0  0
   -8.3967    6.4048  -33.8701 H   0  0  0  0  0  0  0  0  0  0  0  0
   -6.8882    4.3421  -33.5458 H   0  0  0  0  0  0  0  0  0  0  0  0
   -8.4622    3.9612  -34.2537 H   0  0  0  0  0  0  0  0  0  0  0  0
   -4.4150    6.2400  -35.2452 H   0  0  0  0  0  0  0  0  0  0  0  0
   -4.9358    4.1027  -36.2861 H   0  0  0  0  0  0  0  0  0  0  0  0
   -7.3194    5.3577  -37.7058 H   0  0  0  0  0  0  0  0  0  0  0  0
   -6.6307    7.6876  -34.7335 H   0  0  0  0  0  0  0  0  0  0  0  0
   -5.9684    4.0099  -38.8666 H   0  0  0  0  0  0  0  0  0  0  0  0
  1  4  1  1  0  0  0
  1  6  1  0  0  0  0
  2  3  1  0  0  0  0
  2  7  1  0  0  0  0
  3  8  1  0  0  0  0
  4  5  1  0  0  0  0
  4  7  1  0  0  0  0
  5  6  1  0  0  0  0
  5  8  1  1  0  0  0
  6  9  1  6  0  0  0
  1 10  1  0  0  0  0
  1 11  1  0  0  0  0
  2 12  1  0  0  0  0
  2 13  1  0  0  0  0
  3 14  1  0  0  0  0
  3 15  1  0  0  0  0
  4 16  1  0  0  0  0
  5 17  1  0  0  0  0
  6 18  1  0  0  0  0
  7 19  1  0  0  0  0
  9 20  1  0  0  0  0
M  END
> <id>
EN300-44795053

> <smiles>
O[C@@H]1C[C@H]2NCCO[C@@H]12 |&1:1,3,8,r|

> <IUPAC Name>
rac-(1R,6R,8R)-2-oxa-5-azabicyclo[4.2.0]octan-8-ol

> <URL>
https://www.enaminestore.com/catalog/EN300-44795053

> <ROCS_ShapeQuery>
_hit0

> <ROCS_TanimotoCombo>
0.992 

> <ROCS_ShapeTanimoto>
0.473 

> <ROCS_ColorTanimoto>
0.518 

> <ROCS_RefTversky>
1.303 

> <ROCS_RefColorTversky>
0.912 

> <ROCS_RefTverskyCombo>
2.215 

> <ROCS_FitTversky>
0.426 

> <ROCS_FitColorTversky>
0.546 

> <ROCS_FitTverskyCombo>
0.972 

> <ROCS_ColorScore>
-3.791

> <ROCS_Overlap>
159.500

> <ROCS_Rank>
450                 

$$$$
untitled-dbase-52023_11
  -OEChem-06232314393D

 20 21  0     1  0  0  0  0  0999 V2000
   -5.7327    6.7417  -37.0007 C   0  0  0  0  0  0  0  0  0  0  0  0
   -7.7451    5.9799  -34.6476 C   0  0  0  0  0  0  0  0  0  0  0  0
   -7.5225    4.4977  -34.4235 C   0  0  0  0  0  0  0  0  0  0  0  0
   -5.4870    6.1307  -35.6119 C   0  0  2  0  0  0  0  0  0  0  0  0
   -5.8279    4.7326  -36.1623 C   0  0  2  0  0  0  0  0  0  0  0  0
   -6.2271    5.3774  -37.5156 C   0  0  2  0  0  0  0  0  0  0  0  0
   -6.4581    6.6616  -34.6506 N   0  0  0  0  0  0  0  0  0  0  0  0
   -6.8583    3.9328  -35.5436 O   0  0  0  0  0  0  0  0  0  0  0  0
   -5.5472    4.8574  -38.6730 O   0  0  0  0  0  0  0  0  0  0  0  0
   -6.4558    7.5714  -37.0685 H   0  0  0  0  0  0  0  0  0  0  0  0
   -4.8061    7.0867  -37.4932 H   0  0  0  0  0  0  0  0  0  0  0  0
   -8.2425    6.1425  -35.6127 H   0  0  0  0  0  0  0  0  0  0  0  0
   -8.3967    6.4048  -33.8701 H   0  0  0  0  0  0  0  0  0  0  0  0
   -6.8882    4.3421  -33.5458 H   0  0  0  0  0  0  0  0  0  0  0  0
   -8.4622    3.9612  -34.2537 H   0  0  0  0  0  0  0  0  0  0  0  0
   -4.4150    6.2400  -35.2452 H   0  0  0  0  0  0  0  0  0  0  0  0
   -4.9358    4.1027  -36.2861 H   0  0  0  0  0  0  0  0  0  0  0  0
   -7.3194    5.3577  -37.7058 H   0  0  0  0  0  0  0  0  0  0  0  0
   -6.6307    7.6876  -34.7335 H   0  0  0  0  0  0  0  0  0  0  0  0
   -5.9684    4.0099  -38.8666 H   0  0  0  0  0  0  0  0  0  0  0  0
  1  4  1  1  0  0  0
  1  6  1  0  0  0  0
  2  3  1  0  0  0  0
  2  7  1  0  0  0  0
  3  8  1  0  0  0  0
  4  5  1  0  0  0  0
  4  7  1  0  0  0  0
  5  6  1  0  0  0  0
  5  8  1  1  0  0  0
  6  9  1  6  0  0  0
  1 10  1  0  0  0  0
  1 11  1  0  0  0  0
  2 12  1  0  0  0  0
  2 13  1  0  0  0  0
  3 14  1  0  0  0  0
  3 15  1  0  0  0  0
  4 16  1  0  0  0  0
  5 17  1  0  0  0  0
  6 18  1  0  0  0  0
  7 19  1  0  0  0  0
  9 20  1  0  0  0  0
M  END
> <id>
EN300-44829545

> <smiles>
Cl.O[C@@H]1C[C@H]2NCCO[C@@H]12 |&1:2,4,9,r|

> <IUPAC Name>
rac-(1R,6R,8R)-2-oxa-5-azabicyclo[4.2.0]octan-8-ol hydrochloride

> <Purity>
95

> <URL>
https://www.enaminestore.com/catalog/EN300-44829545

> <ROCS_ShapeQuery>
_hit0

> <ROCS_TanimotoCombo>
0.992 

> <ROCS_ShapeTanimoto>
0.473 

> <ROCS_ColorTanimoto>
0.518 

> <ROCS_RefTversky>
1.303 

> <ROCS_RefColorTversky>
0.912 

> <ROCS_RefTverskyCombo>
2.215 

> <ROCS_FitTversky>
0.426 

> <ROCS_FitColorTversky>
0.546 

> <ROCS_FitTverskyCombo>
0.972 

> <ROCS_ColorScore>
-3.791

> <ROCS_Overlap>
159.500

> <ROCS_Rank>
451                 

$$$$
untitled-dbase-37687_0
  -OEChem-06232314393D

 13 13  0     0  0  0  0  0  0999 V2000
   -6.0482    5.8244  -36.5614 C   0  0  0  0  0  0  0  0  0  0  0  0
   -6.5974    5.1920  -35.4326 C   0  0  0  0  0  0  0  0  0  0  0  0
   -5.9708    4.8215  -37.4912 C   0  0  0  0  0  0  0  0  0  0  0  0
   -6.9071    5.7907  -34.1248 C   0  0  0  0  0  0  0  0  0  0  0  0
   -6.8419    3.8960  -35.6460 N   0  0  0  0  0  0  0  0  0  0  0  0
   -5.5331    4.7929  -38.7654 N   0  0  0  0  0  0  0  0  0  0  0  0
   -6.4416    3.6657  -36.9567 O   0  0  0  0  0  0  0  0  0  0  0  0
   -6.6120    7.1295  -34.0293 F   0  0  0  0  0  0  0  0  0  0  0  0
   -8.2304    5.7102  -33.7636 F   0  0  0  0  0  0  0  0  0  0  0  0
   -6.2263    5.2094  -33.0841 F   0  0  0  0  0  0  0  0  0  0  0  0
   -5.7525    6.8563  -36.6815 H   0  0  0  0  0  0  0  0  0  0  0  0
   -5.2054    5.6407  -39.2542 H   0  0  0  0  0  0  0  0  0  0  0  0
   -5.5909    3.9431  -39.3483 H   0  0  0  0  0  0  0  0  0  0  0  0
  1  2  1  0  0  0  0
  1  3  2  0  0  0  0
  2  4  1  0  0  0  0
  2  5  2  0  0  0  0
  3  6  1  0  0  0  0
  3  7  1  0  0  0  0
  4  8  1  0  0  0  0
  4  9  1  0  0  0  0
  4 10  1  0  0  0  0
  5  7  1  0  0  0  0
  1 11  1  0  0  0  0
  6 12  1  0  0  0  0
  6 13  1  0  0  0  0
M  END
> <id>
EN300-50317

> <smiles>
NC1=CC(=NO1)C(F)(F)F

> <MDLNUMBER>
MFCD04972407

> <IUPAC Name>
3-(trifluoromethyl)-1,2-oxazol-5-amine

> <CAS>
108655-63-6

> <Purity>
95

> <URL>
https://www.enaminestore.com/catalog/EN300-50317

> <MP>
51-52

> <ROCS_ShapeQuery>
_hit0

> <ROCS_TanimotoCombo>
0.992 

> <ROCS_ShapeTanimoto>
0.400 

> <ROCS_ColorTanimoto>
0.592 

> <ROCS_RefTversky>
1.276 

> <ROCS_RefColorTversky>
0.744 

> <ROCS_RefTverskyCombo>
2.020 

> <ROCS_FitTversky>
0.368 

> <ROCS_FitColorTversky>
0.744 

> <ROCS_FitTverskyCombo>
1.112 

> <ROCS_ColorScore>
-2.975

> <ROCS_Overlap>
160.354

> <ROCS_Rank>
452                 

$$$$
untitled-dbase-33739_0
  -OEChem-06232314393D

 13 13  0     0  0  0  0  0  0999 V2000
   -5.9638    6.0938  -36.8036 C   0  0  0  0  0  0  0  0  0  0  0  0
   -6.8668    4.9952  -34.8972 C   0  0  0  0  0  0  0  0  0  0  0  0
   -5.9744    4.8751  -37.4731 C   0  0  0  0  0  0  0  0  0  0  0  0
   -6.4169    6.1634  -35.4909 C   0  0  0  0  0  0  0  0  0  0  0  0
   -6.4439    3.7645  -36.7906 C   0  0  0  0  0  0  0  0  0  0  0  0
   -6.8921    3.7932  -35.5154 N   0  0  0  0  0  0  0  0  0  0  0  0
   -5.5125    4.8203  -38.8016 N   0  0  0  0  0  0  0  0  0  0  0  0
   -6.4199    7.6488  -34.6338 Cl  0  0  0  0  0  0  0  0  0  0  0  0
   -6.5044    1.8648  -37.7083 I   0  0  0  0  0  0  0  0  0  0  0  0
   -5.6025    6.9885  -37.3055 H   0  0  0  0  0  0  0  0  0  0  0  0
   -7.2334    4.9830  -33.8750 H   0  0  0  0  0  0  0  0  0  0  0  0
   -5.2289    5.6654  -39.2577 H   0  0  0  0  0  0  0  0  0  0  0  0
   -5.5623    3.9549  -39.3028 H   0  0  0  0  0  0  0  0  0  0  0  0
  1  3  2  0  0  0  0
  1  4  1  0  0  0  0
  2  4  2  0  0  0  0
  2  6  1  0  0  0  0
  3  5  1  0  0  0  0
  3  7  1  0  0  0  0
  4  8  1  0  0  0  0
  5  6  2  0  0  0  0
  5  9  1  0  0  0  0
  1 10  1  0  0  0  0
  2 11  1  0  0  0  0
  7 12  1  0  0  0  0
  7 13  1  0  0  0  0
M  END
> <id>
EN300-1073082

> <smiles>
NC=1C=C(Cl)C=NC1I

> <MDLNUMBER>
MFCD16556271

> <IUPAC Name>
5-chloro-2-iodopyridin-3-amine

> <CAS>
1057322-74-3

> <Purity>
95

> <URL>
https://www.enaminestore.com/catalog/EN300-1073082

> <ROCS_ShapeQuery>
_hit0

> <ROCS_TanimotoCombo>
0.992 

> <ROCS_ShapeTanimoto>
0.492 

> <ROCS_ColorTanimoto>
0.500 

> <ROCS_RefTversky>
1.288 

> <ROCS_RefColorTversky>
0.741 

> <ROCS_RefTverskyCombo>
2.029 

> <ROCS_FitTversky>
0.443 

> <ROCS_FitColorTversky>
0.606 

> <ROCS_FitTverskyCombo>
1.049 

> <ROCS_ColorScore>
-2.999

> <ROCS_Overlap>
156.283

> <ROCS_Rank>
453                 

$$$$
untitled-dbase-51256_0
  -OEChem-06232314393D

  6  5  0     0  0  0  0  0  0999 V2000
   -5.4257    5.7128  -37.7057 C   0  0  0  0  0  0  0  0  0  0  0  0
   -5.5341    4.8090  -38.7894 O   0  0  0  0  0  0  0  0  0  0  0  0
   -6.0706    4.9537  -36.2440 Cl  0  0  0  0  0  0  0  0  0  0  0  0
   -4.3751    5.9647  -37.5397 H   0  0  0  0  0  0  0  0  0  0  0  0
   -6.0036    6.6156  -37.9192 H   0  0  0  0  0  0  0  0  0  0  0  0
   -5.0174    4.0195  -38.5547 H   0  0  0  0  0  0  0  0  0  0  0  0
  1  2  1  0  0  0  0
  1  3  1  0  0  0  0
  1  4  1  0  0  0  0
  1  5  1  0  0  0  0
  2  6  1  0  0  0  0
M  END
> <id>
EN300-7565753

> <smiles>
OCCl

> <MDLNUMBER>
MFCD19231984

> <IUPAC Name>
chloromethanol

> <CAS>
15454-33-8

> <URL>
https://www.enaminestore.com/catalog/EN300-7565753

> <ROCS_ShapeQuery>
_hit0

> <ROCS_TanimotoCombo>
0.992 

> <ROCS_ShapeTanimoto>
0.492 

> <ROCS_ColorTanimoto>
0.500 

> <ROCS_RefTversky>
0.608 

> <ROCS_RefColorTversky>
0.513 

> <ROCS_RefTverskyCombo>
1.121 

> <ROCS_FitTversky>
0.720 

> <ROCS_FitColorTversky>
0.952 

> <ROCS_FitTverskyCombo>
1.672 

> <ROCS_ColorScore>
-1.999

> <ROCS_Overlap>
65.416

> <ROCS_Rank>
454                 

$$$$
untitled-dbase-26451_0
  -OEChem-06232314393D

 16 16  0     0  0  0  0  0  0999 V2000
   -6.9109    3.4386  -35.6384 C   0  0  0  0  0  0  0  0  0  0  0  0
   -6.9156    4.5592  -34.8079 C   0  0  0  0  0  0  0  0  0  0  0  0
   -6.4458    3.5439  -36.9493 C   0  0  0  0  0  0  0  0  0  0  0  0
   -6.4552    5.7852  -35.2882 C   0  0  0  0  0  0  0  0  0  0  0  0
   -5.9855    4.7699  -37.4296 C   0  0  0  0  0  0  0  0  0  0  0  0
   -5.9901    5.8905  -36.5991 C   0  0  0  0  0  0  0  0  0  0  0  0
   -6.4747    6.8998  -34.4191 N   0  0  0  0  0  0  0  0  0  0  0  0
   -5.5208    4.8400  -38.7628 N   0  0  0  0  0  0  0  0  0  0  0  0
   -5.4172    7.4156  -37.1963 Cl  0  0  0  0  0  0  0  0  0  0  0  0
   -7.2690    2.4840  -35.2637 H   0  0  0  0  0  0  0  0  0  0  0  0
   -7.2813    4.4642  -33.7887 H   0  0  0  0  0  0  0  0  0  0  0  0
   -6.4458    2.6630  -37.5862 H   0  0  0  0  0  0  0  0  0  0  0  0
   -6.1036    7.7700  -34.7384 H   0  0  0  0  0  0  0  0  0  0  0  0
   -6.7713    6.7723  -33.4743 H   0  0  0  0  0  0  0  0  0  0  0  0
   -5.2336    5.7228  -39.1302 H   0  0  0  0  0  0  0  0  0  0  0  0
   -5.5774    4.0266  -39.3389 H   0  0  0  0  0  0  0  0  0  0  0  0
  1  2  1  0  0  0  0
  1  3  2  0  0  0  0
  2  4  2  0  0  0  0
  3  5  1  0  0  0  0
  4  6  1  0  0  0  0
  4  7  1  0  0  0  0
  5  6  2  0  0  0  0
  5  8  1  0  0  0  0
  6  9  1  0  0  0  0
  1 10  1  0  0  0  0
  2 11  1  0  0  0  0
  3 12  1  0  0  0  0
  7 13  1  0  0  0  0
  7 14  1  0  0  0  0
  8 15  1  0  0  0  0
  8 16  1  0  0  0  0
M  END
> <id>
EN300-157947

> <smiles>
NC=1C=CC=C(N)C1Cl

> <MDLNUMBER>
MFCD19203555

> <IUPAC Name>
2-chlorobenzene-1,3-diamine

> <CAS>
6400-14-2

> <Purity>
95

> <URL>
https://www.enaminestore.com/catalog/EN300-157947

> <ROCS_ShapeQuery>
_hit0

> <ROCS_TanimotoCombo>
0.991 

> <ROCS_ShapeTanimoto>
0.495 

> <ROCS_ColorTanimoto>
0.497 

> <ROCS_RefTversky>
1.321 

> <ROCS_RefColorTversky>
0.738 

> <ROCS_RefTverskyCombo>
2.059 

> <ROCS_FitTversky>
0.442 

> <ROCS_FitColorTversky>
0.603 

> <ROCS_FitTverskyCombo>
1.045 

> <ROCS_ColorScore>
-2.987

> <ROCS_Overlap>
161.158

> <ROCS_Rank>
455                 

$$$$
untitled-dbase-2102_0
  -OEChem-06232314393D

 22 22  0     0  0  0  0  0  0999 V2000
   -6.3984    6.1969  -35.4904 C   0  0  0  0  0  0  0  0  0  0  0  0
   -5.9453    6.1287  -36.8032 C   0  0  0  0  0  0  0  0  0  0  0  0
   -5.9617    4.9121  -37.4761 C   0  0  0  0  0  0  0  0  0  0  0  0
   -6.8543    5.0291  -34.9002 C   0  0  0  0  0  0  0  0  0  0  0  0
   -6.4369    3.8018  -36.7969 C   0  0  0  0  0  0  0  0  0  0  0  0
   -5.4474    7.3733  -37.4622 C   0  0  0  0  0  0  0  0  0  0  0  0
   -7.3482    5.0648  -33.4924 C   0  0  0  0  0  0  0  0  0  0  0  0
   -6.4784    2.4655  -37.4648 C   0  0  0  0  0  0  0  0  0  0  0  0
   -6.8853    3.8291  -35.5218 N   0  0  0  0  0  0  0  0  0  0  0  0
   -5.5091    4.8147  -38.8060 N   0  0  0  0  0  0  0  0  0  0  0  0
   -6.3946    7.1362  -34.9468 H   0  0  0  0  0  0  0  0  0  0  0  0
   -4.3709    7.4887  -37.2914 H   0  0  0  0  0  0  0  0  0  0  0  0
   -5.6294    7.3489  -38.5436 H   0  0  0  0  0  0  0  0  0  0  0  0
   -5.9607    8.2607  -37.0718 H   0  0  0  0  0  0  0  0  0  0  0  0
   -8.4245    5.2738  -33.4714 H   0  0  0  0  0  0  0  0  0  0  0  0
   -7.1686    4.1092  -32.9837 H   0  0  0  0  0  0  0  0  0  0  0  0
   -6.8314    5.8378  -32.9093 H   0  0  0  0  0  0  0  0  0  0  0  0
   -5.5389    1.9277  -37.2949 H   0  0  0  0  0  0  0  0  0  0  0  0
   -7.3053    1.8567  -37.0800 H   0  0  0  0  0  0  0  0  0  0  0  0
   -6.6328    2.5685  -38.5457 H   0  0  0  0  0  0  0  0  0  0  0  0
   -5.4872    3.9187  -39.2519 H   0  0  0  0  0  0  0  0  0  0  0  0
   -5.1279    5.6246  -39.2542 H   0  0  0  0  0  0  0  0  0  0  0  0
  1  2  1  0  0  0  0
  1  4  2  0  0  0  0
  2  3  2  0  0  0  0
  2  6  1  0  0  0  0
  3  5  1  0  0  0  0
  3 10  1  0  0  0  0
  4  7  1  0  0  0  0
  4  9  1  0  0  0  0
  5  8  1  0  0  0  0
  5  9  2  0  0  0  0
  1 11  1  0  0  0  0
  6 12  1  0  0  0  0
  6 13  1  0  0  0  0
  6 14  1  0  0  0  0
  7 15  1  0  0  0  0
  7 16  1  0  0  0  0
  7 17  1  0  0  0  0
  8 18  1  0  0  0  0
  8 19  1  0  0  0  0
  8 20  1  0  0  0  0
 10 21  1  0  0  0  0
 10 22  1  0  0  0  0
M  END
> <id>
EN300-27375

> <smiles>
Cl.CC=1C=C(C)C(N)=C(C)N1

> <MDLNUMBER>
MFCD09054663

> <IUPAC Name>
2,4,6-trimethylpyridin-3-amine hydrochloride

> <CAS>
71595-27-2

> <URL>
https://www.enaminestore.com/catalog/EN300-27375

> <Saltdate>
Cl

> <ROCS_ShapeQuery>
_hit0

> <ROCS_TanimotoCombo>
0.991 

> <ROCS_ShapeTanimoto>
0.392 

> <ROCS_ColorTanimoto>
0.600 

> <ROCS_RefTversky>
1.219 

> <ROCS_RefColorTversky>
0.750 

> <ROCS_RefTverskyCombo>
1.969 

> <ROCS_FitTversky>
0.366 

> <ROCS_FitColorTversky>
0.750 

> <ROCS_FitTverskyCombo>
1.116 

> <ROCS_ColorScore>
-2.999

> <ROCS_Overlap>
151.939

> <ROCS_Rank>
456                 

$$$$
untitled-dbase-38256_0
  -OEChem-06232314393D

 22 22  0     0  0  0  0  0  0999 V2000
   -6.3984    6.1969  -35.4904 C   0  0  0  0  0  0  0  0  0  0  0  0
   -5.9453    6.1287  -36.8032 C   0  0  0  0  0  0  0  0  0  0  0  0
   -5.9617    4.9121  -37.4761 C   0  0  0  0  0  0  0  0  0  0  0  0
   -6.8543    5.0291  -34.9002 C   0  0  0  0  0  0  0  0  0  0  0  0
   -6.4369    3.8018  -36.7969 C   0  0  0  0  0  0  0  0  0  0  0  0
   -5.4474    7.3733  -37.4622 C   0  0  0  0  0  0  0  0  0  0  0  0
   -7.3482    5.0648  -33.4924 C   0  0  0  0  0  0  0  0  0  0  0  0
   -6.4784    2.4655  -37.4648 C   0  0  0  0  0  0  0  0  0  0  0  0
   -6.8853    3.8291  -35.5218 N   0  0  0  0  0  0  0  0  0  0  0  0
   -5.5091    4.8147  -38.8060 N   0  0  0  0  0  0  0  0  0  0  0  0
   -6.3946    7.1362  -34.9468 H   0  0  0  0  0  0  0  0  0  0  0  0
   -4.3709    7.4887  -37.2914 H   0  0  0  0  0  0  0  0  0  0  0  0
   -5.6294    7.3489  -38.5436 H   0  0  0  0  0  0  0  0  0  0  0  0
   -5.9607    8.2607  -37.0718 H   0  0  0  0  0  0  0  0  0  0  0  0
   -8.4245    5.2738  -33.4714 H   0  0  0  0  0  0  0  0  0  0  0  0
   -7.1686    4.1092  -32.9837 H   0  0  0  0  0  0  0  0  0  0  0  0
   -6.8314    5.8378  -32.9093 H   0  0  0  0  0  0  0  0  0  0  0  0
   -5.5389    1.9277  -37.2949 H   0  0  0  0  0  0  0  0  0  0  0  0
   -7.3053    1.8567  -37.0800 H   0  0  0  0  0  0  0  0  0  0  0  0
   -6.6328    2.5685  -38.5457 H   0  0  0  0  0  0  0  0  0  0  0  0
   -5.4872    3.9187  -39.2519 H   0  0  0  0  0  0  0  0  0  0  0  0
   -5.1279    5.6246  -39.2542 H   0  0  0  0  0  0  0  0  0  0  0  0
  1  2  1  0  0  0  0
  1  4  2  0  0  0  0
  2  3  2  0  0  0  0
  2  6  1  0  0  0  0
  3  5  1  0  0  0  0
  3 10  1  0  0  0  0
  4  7  1  0  0  0  0
  4  9  1  0  0  0  0
  5  8  1  0  0  0  0
  5  9  2  0  0  0  0
  1 11  1  0  0  0  0
  6 12  1  0  0  0  0
  6 13  1  0  0  0  0
  6 14  1  0  0  0  0
  7 15  1  0  0  0  0
  7 16  1  0  0  0  0
  7 17  1  0  0  0  0
  8 18  1  0  0  0  0
  8 19  1  0  0  0  0
  8 20  1  0  0  0  0
 10 21  1  0  0  0  0
 10 22  1  0  0  0  0
M  END
> <id>
EN300-40798

> <smiles>
CC=1C=C(C)C(N)=C(C)N1

> <MDLNUMBER>
MFCD05257015

> <IUPAC Name>
2,4,6-trimethylpyridin-3-amine

> <CAS>
51467-70-0

> <Purity>
95

> <URL>
https://www.enaminestore.com/catalog/EN300-40798

> <MP>
66-68

> <ROCS_ShapeQuery>
_hit0

> <ROCS_TanimotoCombo>
0.991 

> <ROCS_ShapeTanimoto>
0.392 

> <ROCS_ColorTanimoto>
0.600 

> <ROCS_RefTversky>
1.219 

> <ROCS_RefColorTversky>
0.750 

> <ROCS_RefTverskyCombo>
1.969 

> <ROCS_FitTversky>
0.366 

> <ROCS_FitColorTversky>
0.750 

> <ROCS_FitTverskyCombo>
1.116 

> <ROCS_ColorScore>
-2.999

> <ROCS_Overlap>
151.939

> <ROCS_Rank>
457                 

$$$$
untitled-dbase-41066_0
  -OEChem-06232314393D

 12 12  0     0  0  0  0  0  0999 V2000
   -6.3864    3.1932  -37.5086 C   0  0  0  0  0  0  0  0  0  0  0  0
   -6.8943    2.8779  -36.2586 C   0  0  0  0  0  0  0  0  0  0  0  0
   -5.9635    4.4993  -37.7287 C   0  0  0  0  0  0  0  0  0  0  0  0
   -6.0600    5.4370  -36.7066 C   0  0  0  0  0  0  0  0  0  0  0  0
   -6.5826    5.0213  -35.4926 C   0  0  0  0  0  0  0  0  0  0  0  0
   -7.0037    3.7614  -35.2413 N   0  0  0  0  0  0  0  0  0  0  0  0
   -5.4574    4.8572  -38.9397 O   0  0  0  0  0  0  0  0  0  0  0  0
   -5.6620    6.7022  -36.8852 F   0  0  0  0  0  0  0  0  0  0  0  0
   -6.6815    5.9164  -34.4976 F   0  0  0  0  0  0  0  0  0  0  0  0
   -6.3230    2.4409  -38.2872 H   0  0  0  0  0  0  0  0  0  0  0  0
   -7.2376    1.8729  -36.0361 H   0  0  0  0  0  0  0  0  0  0  0  0
   -5.2082    5.7954  -38.9369 H   0  0  0  0  0  0  0  0  0  0  0  0
  1  2  1  0  0  0  0
  1  3  2  0  0  0  0
  2  6  2  0  0  0  0
  3  4  1  0  0  0  0
  3  7  1  0  0  0  0
  4  5  2  0  0  0  0
  4  8  1  0  0  0  0
  5  6  1  0  0  0  0
  5  9  1  0  0  0  0
  1 10  1  0  0  0  0
  2 11  1  0  0  0  0
  7 12  1  0  0  0  0
M  END
> <id>
EN300-6946420

> <smiles>
OC=1C=CN=C(F)C1F

> <MDLNUMBER>
MFCD16610798

> <IUPAC Name>
2,3-difluoropyridin-4-ol

> <CAS>
1227579-00-1

> <Purity>
95

> <URL>
https://www.enaminestore.com/catalog/EN300-6946420

> <ROCS_ShapeQuery>
_hit0

> <ROCS_TanimotoCombo>
0.991 

> <ROCS_ShapeTanimoto>
0.437 

> <ROCS_ColorTanimoto>
0.554 

> <ROCS_RefTversky>
1.260 

> <ROCS_RefColorTversky>
0.713 

> <ROCS_RefTverskyCombo>
1.973 

> <ROCS_FitTversky>
0.401 

> <ROCS_FitColorTversky>
0.713 

> <ROCS_FitTverskyCombo>
1.114 

> <ROCS_ColorScore>
-2.852

> <ROCS_Overlap>
155.174

> <ROCS_Rank>
458                 

$$$$
untitled-dbase-53085_3
  -OEChem-06232314393D

 26 27  0     1  0  0  0  0  0999 V2000
   -5.5381    6.9112  -36.5299 C   0  0  0  0  0  0  0  0  0  0  0  0
   -5.4073    3.1124  -37.2228 C   0  0  0  0  0  0  0  0  0  0  0  0
   -6.3842    7.7377  -35.5607 C   0  0  0  0  0  0  0  0  0  0  0  0
   -7.1110    5.7638  -34.3767 C   0  0  0  0  0  0  0  0  0  0  0  0
   -6.7811    2.8687  -36.6081 C   0  0  0  0  0  0  0  0  0  0  0  0
   -6.1034    5.4940  -36.6758 C   0  0  2  0  0  0  0  0  0  0  0  0
   -6.3054    4.8474  -35.3010 C   0  0  2  0  0  0  0  0  0  0  0  0
   -5.2028    4.5981  -37.5405 C   0  0  2  0  0  0  0  0  0  0  0  0
   -6.5049    7.0900  -34.2522 N   0  0  0  0  0  0  0  0  0  0  0  0
   -6.9911    3.5936  -35.3944 O   0  0  0  0  0  0  0  0  0  0  0  0
   -5.4812    4.8422  -38.9180 O   0  0  0  0  0  0  0  0  0  0  0  0
   -5.5157    7.4169  -37.5033 H   0  0  0  0  0  0  0  0  0  0  0  0
   -4.5009    6.8666  -36.1702 H   0  0  0  0  0  0  0  0  0  0  0  0
   -4.6162    2.7537  -36.5574 H   0  0  0  0  0  0  0  0  0  0  0  0
   -5.3164    2.5367  -38.1516 H   0  0  0  0  0  0  0  0  0  0  0  0
   -5.9277    8.7240  -35.4268 H   0  0  0  0  0  0  0  0  0  0  0  0
   -7.3826    7.9080  -35.9792 H   0  0  0  0  0  0  0  0  0  0  0  0
   -8.1517    5.8502  -34.7275 H   0  0  0  0  0  0  0  0  0  0  0  0
   -7.1856    5.3047  -33.3795 H   0  0  0  0  0  0  0  0  0  0  0  0
   -7.5658    3.1782  -37.3184 H   0  0  0  0  0  0  0  0  0  0  0  0
   -6.9423    1.7922  -36.4173 H   0  0  0  0  0  0  0  0  0  0  0  0
   -7.0701    5.5716  -37.1907 H   0  0  0  0  0  0  0  0  0  0  0  0
   -5.3244    4.6586  -34.8152 H   0  0  0  0  0  0  0  0  0  0  0  0
   -4.1403    4.8656  -37.3729 H   0  0  0  0  0  0  0  0  0  0  0  0
   -5.5768    6.9915  -33.8480 H   0  0  0  0  0  0  0  0  0  0  0  0
   -4.8635    4.2948  -39.4284 H   0  0  0  0  0  0  0  0  0  0  0  0
  1  3  1  0  0  0  0
  1  6  1  0  0  0  0
  2  5  1  0  0  0  0
  2  8  1  0  0  0  0
  3  9  1  0  0  0  0
  4  7  1  0  0  0  0
  4  9  1  0  0  0  0
  5 10  1  0  0  0  0
  6  7  1  0  0  0  0
  6  8  1  0  0  0  0
  7 10  1  0  0  0  0
  8 11  1  0  0  0  0
  1 12  1  0  0  0  0
  1 13  1  0  0  0  0
  2 14  1  0  0  0  0
  2 15  1  0  0  0  0
  3 16  1  0  0  0  0
  3 17  1  0  0  0  0
  4 18  1  0  0  0  0
  4 19  1  0  0  0  0
  5 20  1  0  0  0  0
  5 21  1  0  0  0  0
  6 22  1  0  0  0  0
  7 23  1  0  0  0  0
  8 24  1  0  0  0  0
  9 25  1  0  0  0  0
 11 26  1  0  0  0  0
M  END
> <id>
EN300-6503668

> <smiles>
OC1CCOC2CNCCC12

> <MDLNUMBER>
MFCD31810845

> <IUPAC Name>
octahydro-2H-pyrano[2,3-c]pyridin-4-ol

> <CAS>
2305253-26-1

> <Purity>
95

> <URL>
https://www.enaminestore.com/catalog/EN300-6503668

> <ROCS_ShapeQuery>
_hit0

> <ROCS_TanimotoCombo>
0.991 

> <ROCS_ShapeTanimoto>
0.451 

> <ROCS_ColorTanimoto>
0.540 

> <ROCS_RefTversky>
1.423 

> <ROCS_RefColorTversky>
0.930 

> <ROCS_RefTverskyCombo>
2.352 

> <ROCS_FitTversky>
0.398 

> <ROCS_FitColorTversky>
0.563 

> <ROCS_FitTverskyCombo>
0.961 

> <ROCS_ColorScore>
-3.858

> <ROCS_Overlap>
180.067

> <ROCS_Rank>
459                 

$$$$
untitled-dbase-19067_0
  -OEChem-06232314393D

 10 10  0     0  0  0  0  0  0999 V2000
   -6.4145    5.6103  -35.5678 C   0  0  0  0  0  0  0  0  0  0  0  0
   -5.9277    4.9664  -37.4725 C   0  0  0  0  0  0  0  0  0  0  0  0
   -5.8975    6.0569  -36.7490 N   0  0  0  0  0  0  0  0  0  0  0  0
   -6.7542    4.3183  -35.5339 N   0  0  0  0  0  0  0  0  0  0  0  0
   -6.5415    6.4898  -34.5414 N   0  0  0  0  0  0  0  0  0  0  0  0
   -6.4252    3.8814  -36.8232 O   0  0  0  0  0  0  0  0  0  0  0  0
   -5.5427    4.8011  -38.7228 O   0  0  0  0  0  0  0  0  0  0  0  0
   -6.9675    6.2194  -33.6472 H   0  0  0  0  0  0  0  0  0  0  0  0
   -6.3042    7.4831  -34.6484 H   0  0  0  0  0  0  0  0  0  0  0  0
   -5.1941    5.6312  -39.1248 H   0  0  0  0  0  0  0  0  0  0  0  0
  1  3  1  0  0  0  0
  1  4  2  0  0  0  0
  1  5  1  0  0  0  0
  2  3  2  0  0  0  0
  2  6  1  0  0  0  0
  2  7  1  0  0  0  0
  4  6  1  0  0  0  0
  5  8  1  0  0  0  0
  5  9  1  0  0  0  0
  7 10  1  0  0  0  0
M  END
> <id>
EN300-1600531

> <smiles>
NC1=NOC(O)=N1

> <MDLNUMBER>
MFCD18872671

> <IUPAC Name>
3-amino-1,2,4-oxadiazol-5-ol

> <CAS>
154020-18-5

> <Purity>
95

> <URL>
https://www.enaminestore.com/catalog/EN300-1600531

> <MP>
195-196

> <ROCS_ShapeQuery>
_hit0

> <ROCS_TanimotoCombo>
0.991 

> <ROCS_ShapeTanimoto>
0.518 

> <ROCS_ColorTanimoto>
0.473 

> <ROCS_RefTversky>
1.218 

> <ROCS_RefColorTversky>
0.854 

> <ROCS_RefTverskyCombo>
2.071 

> <ROCS_FitTversky>
0.474 

> <ROCS_FitColorTversky>
0.515 

> <ROCS_FitTverskyCombo>
0.989 

> <ROCS_ColorScore>
-3.544

> <ROCS_Overlap>
144.690

> <ROCS_Rank>
460                 

$$$$
untitled-dbase-1702_3
  -OEChem-06232314393D

 19 18  0     1  0  0  0  0  0999 V2000
   -6.1695    4.4404  -36.4346 C   0  0  0  0  0  0  0  0  0  0  0  0
   -4.1816    7.5110  -37.5735 C   0  0  0  0  0  0  0  0  0  0  0  0
   -6.6177    7.2622  -38.1187 C   0  0  0  0  0  0  0  0  0  0  0  0
   -5.8347    7.0951  -35.7523 C   0  0  0  0  0  0  0  0  0  0  0  0
   -5.3163    5.2110  -37.3555 C   0  0  2  0  0  0  0  0  0  0  0  0
   -5.4761    6.7543  -37.2149 C   0  0  0  0  0  0  0  0  0  0  0  0
   -6.8396    3.8300  -35.7103 N   0  0  0  0  0  0  0  0  0  0  0  0
   -5.5734    4.7886  -38.6951 O   0  0  0  0  0  0  0  0  0  0  0  0
   -3.3374    7.1850  -36.9567 H   0  0  0  0  0  0  0  0  0  0  0  0
   -3.9072    7.3678  -38.6240 H   0  0  0  0  0  0  0  0  0  0  0  0
   -4.3023    8.5891  -37.4139 H   0  0  0  0  0  0  0  0  0  0  0  0
   -7.5584    6.7466  -37.8936 H   0  0  0  0  0  0  0  0  0  0  0  0
   -6.7958    8.3347  -37.9847 H   0  0  0  0  0  0  0  0  0  0  0  0
   -6.3900    7.0879  -39.1764 H   0  0  0  0  0  0  0  0  0  0  0  0
   -6.7518    6.5826  -35.4397 H   0  0  0  0  0  0  0  0  0  0  0  0
   -5.9978    8.1698  -35.6164 H   0  0  0  0  0  0  0  0  0  0  0  0
   -5.0348    6.7881  -35.0692 H   0  0  0  0  0  0  0  0  0  0  0  0
   -4.2715    4.9463  -37.1513 H   0  0  0  0  0  0  0  0  0  0  0  0
   -5.3609    3.8438  -38.7295 H   0  0  0  0  0  0  0  0  0  0  0  0
  1  5  1  0  0  0  0
  1  7  3  0  0  0  0
  2  6  1  0  0  0  0
  3  6  1  0  0  0  0
  4  6  1  0  0  0  0
  5  6  1  0  0  0  0
  5  8  1  0  0  0  0
  2  9  1  0  0  0  0
  2 10  1  0  0  0  0
  2 11  1  0  0  0  0
  3 12  1  0  0  0  0
  3 13  1  0  0  0  0
  3 14  1  0  0  0  0
  4 15  1  0  0  0  0
  4 16  1  0  0  0  0
  4 17  1  0  0  0  0
  5 18  1  0  0  0  0
  8 19  1  0  0  0  0
M  END
> <id>
EN300-101058

> <smiles>
CC(C)(C)C(O)C#N

> <MDLNUMBER>
MFCD01108432

> <IUPAC Name>
2-hydroxy-3,3-dimethylbutanenitrile

> <CAS>
33350-17-3

> <Purity>
95

> <URL>
https://www.enaminestore.com/catalog/EN300-101058

> <ROCS_ShapeQuery>
_hit0

> <ROCS_TanimotoCombo>
0.991 

> <ROCS_ShapeTanimoto>
0.410 

> <ROCS_ColorTanimoto>
0.581 

> <ROCS_RefTversky>
1.024 

> <ROCS_RefColorTversky>
0.735 

> <ROCS_RefTverskyCombo>
1.759 

> <ROCS_FitTversky>
0.406 

> <ROCS_FitColorTversky>
0.735 

> <ROCS_FitTverskyCombo>
1.141 

> <ROCS_ColorScore>
-2.939

> <ROCS_Overlap>
121.360

> <ROCS_Rank>
461                 

$$$$
untitled-dbase-52182_0
  -OEChem-06232314393D

 13 13  0     0  0  0  0  0  0999 V2000
   -6.3624    2.7832  -37.7810 C   0  0  0  0  0  0  0  0  0  0  0  0
   -6.0485    4.1246  -37.7458 C   0  0  0  0  0  0  0  0  0  0  0  0
   -6.3591    4.6663  -36.4658 C   0  0  0  0  0  0  0  0  0  0  0  0
   -6.1570    6.0748  -36.0590 C   0  0  0  0  0  0  0  0  0  0  0  0
   -6.8740    3.8363  -35.5617 N   0  0  0  0  0  0  0  0  0  0  0  0
   -5.5222    4.8128  -38.7838 N   0  0  0  0  0  0  0  0  0  0  0  0
   -5.6243    6.8692  -37.0408 F   0  0  0  0  0  0  0  0  0  0  0  0
   -7.3071    6.7172  -35.6809 F   0  0  0  0  0  0  0  0  0  0  0  0
   -5.3077    6.2089  -34.9933 F   0  0  0  0  0  0  0  0  0  0  0  0
   -6.9996    2.3319  -36.2565 S   0  0  0  0  0  0  0  0  0  0  0  0
   -6.2546    2.0747  -38.5906 H   0  0  0  0  0  0  0  0  0  0  0  0
   -5.3451    5.8259  -38.7337 H   0  0  0  0  0  0  0  0  0  0  0  0
   -5.3620    4.3769  -39.7028 H   0  0  0  0  0  0  0  0  0  0  0  0
  1  2  2  0  0  0  0
  1 10  1  0  0  0  0
  2  3  1  0  0  0  0
  2  6  1  0  0  0  0
  3  4  1  0  0  0  0
  3  5  2  0  0  0  0
  4  7  1  0  0  0  0
  4  8  1  0  0  0  0
  4  9  1  0  0  0  0
  5 10  1  0  0  0  0
  1 11  1  0  0  0  0
  6 12  1  0  0  0  0
  6 13  1  0  0  0  0
M  END
> <id>
EN300-44825932

> <smiles>
Cl.NC1=CSN=C1C(F)(F)F

> <IUPAC Name>
3-(trifluoromethyl)-1,2-thiazol-4-amine hydrochloride

> <Purity>
95

> <URL>
https://www.enaminestore.com/catalog/EN300-44825932

> <ROCS_ShapeQuery>
_hit0

> <ROCS_TanimotoCombo>
0.991 

> <ROCS_ShapeTanimoto>
0.392 

> <ROCS_ColorTanimoto>
0.599 

> <ROCS_RefTversky>
1.226 

> <ROCS_RefColorTversky>
0.749 

> <ROCS_RefTverskyCombo>
1.975 

> <ROCS_FitTversky>
0.365 

> <ROCS_FitColorTversky>
0.749 

> <ROCS_FitTverskyCombo>
1.115 

> <ROCS_ColorScore>
-2.998

> <ROCS_Overlap>
152.952

> <ROCS_Rank>
462                 

$$$$
untitled-dbase-52212_0
  -OEChem-06232314393D

 13 13  0     0  0  0  0  0  0999 V2000
   -6.3624    2.7832  -37.7810 C   0  0  0  0  0  0  0  0  0  0  0  0
   -6.0485    4.1246  -37.7458 C   0  0  0  0  0  0  0  0  0  0  0  0
   -6.3591    4.6663  -36.4658 C   0  0  0  0  0  0  0  0  0  0  0  0
   -6.1570    6.0748  -36.0590 C   0  0  0  0  0  0  0  0  0  0  0  0
   -6.8740    3.8363  -35.5617 N   0  0  0  0  0  0  0  0  0  0  0  0
   -5.5222    4.8128  -38.7838 N   0  0  0  0  0  0  0  0  0  0  0  0
   -5.6243    6.8692  -37.0408 F   0  0  0  0  0  0  0  0  0  0  0  0
   -7.3071    6.7172  -35.6809 F   0  0  0  0  0  0  0  0  0  0  0  0
   -5.3077    6.2089  -34.9933 F   0  0  0  0  0  0  0  0  0  0  0  0
   -6.9996    2.3319  -36.2565 S   0  0  0  0  0  0  0  0  0  0  0  0
   -6.2546    2.0747  -38.5906 H   0  0  0  0  0  0  0  0  0  0  0  0
   -5.3451    5.8259  -38.7337 H   0  0  0  0  0  0  0  0  0  0  0  0
   -5.3620    4.3769  -39.7028 H   0  0  0  0  0  0  0  0  0  0  0  0
  1  2  2  0  0  0  0
  1 10  1  0  0  0  0
  2  3  1  0  0  0  0
  2  6  1  0  0  0  0
  3  4  1  0  0  0  0
  3  5  2  0  0  0  0
  4  7  1  0  0  0  0
  4  8  1  0  0  0  0
  4  9  1  0  0  0  0
  5 10  1  0  0  0  0
  1 11  1  0  0  0  0
  6 12  1  0  0  0  0
  6 13  1  0  0  0  0
M  END
> <id>
EN300-7338287

> <smiles>
NC1=CSN=C1C(F)(F)F

> <IUPAC Name>
3-(trifluoromethyl)-1,2-thiazol-4-amine

> <CAS>
1541876-67-8

> <URL>
https://www.enaminestore.com/catalog/EN300-7338287

> <ROCS_ShapeQuery>
_hit0

> <ROCS_TanimotoCombo>
0.991 

> <ROCS_ShapeTanimoto>
0.392 

> <ROCS_ColorTanimoto>
0.599 

> <ROCS_RefTversky>
1.226 

> <ROCS_RefColorTversky>
0.749 

> <ROCS_RefTverskyCombo>
1.975 

> <ROCS_FitTversky>
0.365 

> <ROCS_FitColorTversky>
0.749 

> <ROCS_FitTverskyCombo>
1.115 

> <ROCS_ColorScore>
-2.998

> <ROCS_Overlap>
152.952

> <ROCS_Rank>
463                 

$$$$
untitled-dbase-8213_0
  -OEChem-06232314393D

 16 16  0     0  0  0  0  0  0999 V2000
   -6.4417    3.7875  -36.8291 C   0  0  0  0  0  0  0  0  0  0  0  0
   -6.8370    4.9281  -34.9287 C   0  0  0  0  0  0  0  0  0  0  0  0
   -5.9599    4.8390  -37.5095 C   0  0  0  0  0  0  0  0  0  0  0  0
   -5.9042    6.1526  -36.7929 C   0  0  0  0  0  0  0  0  0  0  0  0
   -6.3757    7.3067  -34.6566 C   0  0  0  0  0  0  0  0  0  0  0  0
   -6.8921    3.7893  -35.5362 N   0  0  0  0  0  0  0  0  0  0  0  0
   -6.3687    6.1074  -35.4799 N   0  0  0  0  0  0  0  0  0  0  0  0
   -5.5161    4.8173  -38.7976 N   0  0  0  0  0  0  0  0  0  0  0  0
   -5.4771    7.1552  -37.3620 O   0  0  0  0  0  0  0  0  0  0  0  0
   -6.4969    2.8185  -37.3174 H   0  0  0  0  0  0  0  0  0  0  0  0
   -7.1792    5.0218  -33.8858 H   0  0  0  0  0  0  0  0  0  0  0  0
   -5.4215    7.3858  -34.1150 H   0  0  0  0  0  0  0  0  0  0  0  0
   -6.5075    8.1907  -35.2978 H   0  0  0  0  0  0  0  0  0  0  0  0
   -7.2035    7.2507  -33.9345 H   0  0  0  0  0  0  0  0  0  0  0  0
   -5.1781    5.6642  -39.2020 H   0  0  0  0  0  0  0  0  0  0  0  0
   -5.5421    3.9552  -39.2988 H   0  0  0  0  0  0  0  0  0  0  0  0
  1  3  2  0  0  0  0
  1  6  1  0  0  0  0
  2  6  2  0  0  0  0
  2  7  1  0  0  0  0
  3  4  1  0  0  0  0
  3  8  1  0  0  0  0
  4  7  1  0  0  0  0
  4  9  2  0  0  0  0
  5  7  1  0  0  0  0
  1 10  1  0  0  0  0
  2 11  1  0  0  0  0
  5 12  1  0  0  0  0
  5 13  1  0  0  0  0
  5 14  1  0  0  0  0
  8 15  1  0  0  0  0
  8 16  1  0  0  0  0
M  END
> <id>
EN300-269972

> <smiles>
CN1C=NC=C(N)C1=O

> <MDLNUMBER>
MFCD28654200

> <IUPAC Name>
5-amino-3-methyl-3,4-dihydropyrimidin-4-one

> <CAS>
73922-41-5

> <Purity>
95

> <URL>
https://www.enaminestore.com/catalog/EN300-269972

> <ROCS_ShapeQuery>
_hit0

> <ROCS_TanimotoCombo>
0.991 

> <ROCS_ShapeTanimoto>
0.491 

> <ROCS_ColorTanimoto>
0.500 

> <ROCS_RefTversky>
1.357 

> <ROCS_RefColorTversky>
0.741 

> <ROCS_RefTverskyCombo>
2.098 

> <ROCS_FitTversky>
0.435 

> <ROCS_FitColorTversky>
0.606 

> <ROCS_FitTverskyCombo>
1.041 

> <ROCS_ColorScore>
-3.000

> <ROCS_Overlap>
166.858

> <ROCS_Rank>
464                 

$$$$
untitled-dbase-47791_6
  -OEChem-06232314393D

 14 14  0     1  0  0  0  0  0999 V2000
   -6.8390    6.0865  -36.9520 C   0  0  0  0  0  0  0  0  0  0  0  0
   -4.8969    5.4127  -36.3389 C   0  0  0  0  0  0  0  0  0  0  0  0
   -5.5160    5.8107  -37.6942 C   0  0  1  0  0  0  0  0  0  0  0  0
   -6.3233    5.2216  -35.7845 C   0  0  2  0  0  0  0  0  0  0  0  0
   -5.5667    4.7731  -38.6922 O   0  0  0  0  0  0  0  0  0  0  0  0
   -6.8097    3.8661  -35.7516 O   0  0  0  0  0  0  0  0  0  0  0  0
   -7.0231    7.1390  -36.7055 H   0  0  0  0  0  0  0  0  0  0  0  0
   -7.7312    5.6857  -37.4528 H   0  0  0  0  0  0  0  0  0  0  0  0
   -4.2956    4.4939  -36.3682 H   0  0  0  0  0  0  0  0  0  0  0  0
   -4.3092    6.1970  -35.8485 H   0  0  0  0  0  0  0  0  0  0  0  0
   -5.0701    6.7216  -38.1158 H   0  0  0  0  0  0  0  0  0  0  0  0
   -6.4690    5.7010  -34.8069 H   0  0  0  0  0  0  0  0  0  0  0  0
   -4.6758    4.7192  -39.0628 H   0  0  0  0  0  0  0  0  0  0  0  0
   -6.5219    3.4618  -36.5808 H   0  0  0  0  0  0  0  0  0  0  0  0
  1  3  1  0  0  0  0
  1  4  1  0  0  0  0
  2  3  1  0  0  0  0
  2  4  1  0  0  0  0
  3  5  1  1  0  0  0
  4  6  1  1  0  0  0
  1  7  1  0  0  0  0
  1  8  1  0  0  0  0
  2  9  1  0  0  0  0
  2 10  1  0  0  0  0
  3 11  1  0  0  0  0
  4 12  1  0  0  0  0
  5 13  1  0  0  0  0
  6 14  1  0  0  0  0
M  END
> <id>
EN300-215283

> <smiles>
O[C@H]1C[C@@H](O)C1

> <MDLNUMBER>
MFCD28506109

> <IUPAC Name>
(1s,3s)-cyclobutane-1,3-diol

> <CAS>
1332482-73-1

> <Purity>
95

> <URL>
https://www.enaminestore.com/catalog/EN300-215283

> <MP>
46-50

> <ROCS_ShapeQuery>
_hit0

> <ROCS_TanimotoCombo>
0.991 

> <ROCS_ShapeTanimoto>
0.512 

> <ROCS_ColorTanimoto>
0.479 

> <ROCS_RefTversky>
1.016 

> <ROCS_RefColorTversky>
0.720 

> <ROCS_RefTverskyCombo>
1.736 

> <ROCS_FitTversky>
0.508 

> <ROCS_FitColorTversky>
0.589 

> <ROCS_FitTverskyCombo>
1.097 

> <ROCS_ColorScore>
-2.915

> <ROCS_Overlap>
116.715

> <ROCS_Rank>
465                 

$$$$
untitled-dbase-44082_0
  -OEChem-06232314393D

 12 12  0     0  0  0  0  0  0999 V2000
   -6.4191    3.7904  -36.8369 C   0  0  0  0  0  0  0  0  0  0  0  0
   -6.8553    4.9825  -34.9220 C   0  0  0  0  0  0  0  0  0  0  0  0
   -5.9546    4.9168  -37.4967 C   0  0  0  0  0  0  0  0  0  0  0  0
   -6.4111    6.1646  -35.4920 C   0  0  0  0  0  0  0  0  0  0  0  0
   -5.9538    6.1226  -36.8044 C   0  0  0  0  0  0  0  0  0  0  0  0
   -6.8711    3.7922  -35.5628 N   0  0  0  0  0  0  0  0  0  0  0  0
   -5.5209    4.8128  -38.7795 O   0  0  0  0  0  0  0  0  0  0  0  0
   -6.4282    7.3017  -34.7851 F   0  0  0  0  0  0  0  0  0  0  0  0
   -5.3362    7.7157  -37.6235 Br  0  0  0  0  0  0  0  0  0  0  0  0
   -6.4437    2.8227  -37.3283 H   0  0  0  0  0  0  0  0  0  0  0  0
   -7.2221    4.9630  -33.9011 H   0  0  0  0  0  0  0  0  0  0  0  0
   -5.2268    5.6780  -39.1095 H   0  0  0  0  0  0  0  0  0  0  0  0
  1  3  2  0  0  0  0
  1  6  1  0  0  0  0
  2  4  1  0  0  0  0
  2  6  2  0  0  0  0
  3  5  1  0  0  0  0
  3  7  1  0  0  0  0
  4  5  2  0  0  0  0
  4  8  1  0  0  0  0
  5  9  1  0  0  0  0
  1 10  1  0  0  0  0
  2 11  1  0  0  0  0
  7 12  1  0  0  0  0
M  END
> <id>
EN300-7537734

> <smiles>
OC=1C=NC=C(F)C1Br

> <MDLNUMBER>
MFCD28739489

> <IUPAC Name>
4-bromo-5-fluoropyridin-3-ol

> <CAS>
1805936-65-5

> <Purity>
95

> <URL>
https://www.enaminestore.com/catalog/EN300-7537734

> <ROCS_ShapeQuery>
_hit0

> <ROCS_TanimotoCombo>
0.991 

> <ROCS_ShapeTanimoto>
0.491 

> <ROCS_ColorTanimoto>
0.499 

> <ROCS_RefTversky>
1.326 

> <ROCS_RefColorTversky>
0.740 

> <ROCS_RefTverskyCombo>
2.066 

> <ROCS_FitTversky>
0.438 

> <ROCS_FitColorTversky>
0.606 

> <ROCS_FitTverskyCombo>
1.044 

> <ROCS_ColorScore>
-2.998

> <ROCS_Overlap>
161.967

> <ROCS_Rank>
466                 

$$$$
untitled-dbase-6911_0
  -OEChem-06232314393D

 18 18  0     0  0  0  0  0  0999 V2000
   -5.9683    6.1247  -36.7807 C   0  0  0  0  0  0  0  0  0  0  0  0
   -6.4155    6.2181  -35.4745 C   0  0  0  0  0  0  0  0  0  0  0  0
   -6.8688    5.0666  -34.8629 C   0  0  0  0  0  0  0  0  0  0  0  0
   -6.0037    4.8859  -37.3887 C   0  0  0  0  0  0  0  0  0  0  0  0
   -6.3985    7.5317  -34.7725 C   0  0  0  0  0  0  0  0  0  0  0  0
   -7.3660    5.0910  -33.4568 C   0  0  0  0  0  0  0  0  0  0  0  0
   -6.8921    3.8674  -35.4821 N   0  0  0  0  0  0  0  0  0  0  0  0
   -6.4522    3.7755  -36.7658 N   0  0  0  0  0  0  0  0  0  0  0  0
   -5.5467    4.7903  -38.7238 N   0  0  0  0  0  0  0  0  0  0  0  0
   -5.6020    7.0012  -37.3068 H   0  0  0  0  0  0  0  0  0  0  0  0
   -7.3451    8.0640  -34.9311 H   0  0  0  0  0  0  0  0  0  0  0  0
   -6.2486    7.4061  -33.6916 H   0  0  0  0  0  0  0  0  0  0  0  0
   -5.5787    8.1678  -35.1333 H   0  0  0  0  0  0  0  0  0  0  0  0
   -8.4442    5.2911  -33.4366 H   0  0  0  0  0  0  0  0  0  0  0  0
   -7.1801    4.1342  -32.9520 H   0  0  0  0  0  0  0  0  0  0  0  0
   -6.8571    5.8651  -32.8678 H   0  0  0  0  0  0  0  0  0  0  0  0
   -5.2600    5.6205  -39.1977 H   0  0  0  0  0  0  0  0  0  0  0  0
   -5.6090    3.9125  -39.1947 H   0  0  0  0  0  0  0  0  0  0  0  0
  1  2  2  0  0  0  0
  1  4  1  0  0  0  0
  2  3  1  0  0  0  0
  2  5  1  0  0  0  0
  3  6  1  0  0  0  0
  3  7  2  0  0  0  0
  4  8  2  0  0  0  0
  4  9  1  0  0  0  0
  7  8  1  0  0  0  0
  1 10  1  0  0  0  0
  5 11  1  0  0  0  0
  5 12  1  0  0  0  0
  5 13  1  0  0  0  0
  6 14  1  0  0  0  0
  6 15  1  0  0  0  0
  6 16  1  0  0  0  0
  9 17  1  0  0  0  0
  9 18  1  0  0  0  0
M  END
> <id>
EN300-78057

> <smiles>
CC=1C=C(N)N=NC1C

> <MDLNUMBER>
MFCD16871484

> <IUPAC Name>
5,6-dimethylpyridazin-3-amine

> <CAS>
17551-35-8

> <Purity>
95

> <URL>
https://www.enaminestore.com/catalog/EN300-78057

> <MP>
220-223

> <ROCS_ShapeQuery>
_hit0

> <ROCS_TanimotoCombo>
0.991 

> <ROCS_ShapeTanimoto>
0.477 

> <ROCS_ColorTanimoto>
0.514 

> <ROCS_RefTversky>
1.313 

> <ROCS_RefColorTversky>
0.778 

> <ROCS_RefTverskyCombo>
2.091 

> <ROCS_FitTversky>
0.428 

> <ROCS_FitColorTversky>
0.602 

> <ROCS_FitTverskyCombo>
1.030 

> <ROCS_ColorScore>
-3.164

> <ROCS_Overlap>
160.802

> <ROCS_Rank>
467                 

$$$$
untitled-dbase-4203_0
  -OEChem-06232314393D

  9  9  0     0  0  0  0  0  0999 V2000
   -6.5394    5.0981  -35.5050 C   0  0  0  0  0  0  0  0  0  0  0  0
   -5.9607    4.7033  -37.5652 C   0  0  0  0  0  0  0  0  0  0  0  0
   -6.0035    5.6517  -36.6554 N   0  0  0  0  0  0  0  0  0  0  0  0
   -6.9018    3.8159  -35.4694 N   0  0  0  0  0  0  0  0  0  0  0  0
   -5.5018    4.8333  -38.8350 N   0  0  0  0  0  0  0  0  0  0  0  0
   -6.5636    3.2034  -36.9896 S   0  0  0  0  0  0  0  0  0  0  0  0
   -6.6698    5.7026  -34.6184 H   0  0  0  0  0  0  0  0  0  0  0  0
   -5.4548    4.0340  -39.4787 H   0  0  0  0  0  0  0  0  0  0  0  0
   -5.0947    5.7127  -39.1764 H   0  0  0  0  0  0  0  0  0  0  0  0
  1  3  1  0  0  0  0
  1  4  2  0  0  0  0
  2  3  2  0  0  0  0
  2  5  1  0  0  0  0
  2  6  1  0  0  0  0
  4  6  1  0  0  0  0
  1  7  1  0  0  0  0
  5  8  1  0  0  0  0
  5  9  1  0  0  0  0
M  END
> <id>
EN300-117714

> <smiles>
NC1=NC=NS1

> <MDLNUMBER>
MFCD01102171

> <IUPAC Name>
1,2,4-thiadiazol-5-amine

> <CAS>
7552-07-0

> <Purity>
95

> <URL>
https://www.enaminestore.com/catalog/EN300-117714

> <ROCS_ShapeQuery>
_hit0

> <ROCS_TanimotoCombo>
0.990 

> <ROCS_ShapeTanimoto>
0.492 

> <ROCS_ColorTanimoto>
0.499 

> <ROCS_RefTversky>
1.000 

> <ROCS_RefColorTversky>
0.740 

> <ROCS_RefTverskyCombo>
1.740 

> <ROCS_FitTversky>
0.490 

> <ROCS_FitColorTversky>
0.604 

> <ROCS_FitTverskyCombo>
1.094 

> <ROCS_ColorScore>
-2.999

> <ROCS_Overlap>
116.175

> <ROCS_Rank>
468                 

$$$$
untitled-dbase-37233_0
  -OEChem-06232314393D

  9  9  0     0  0  0  0  0  0999 V2000
   -6.5394    5.0981  -35.5050 C   0  0  0  0  0  0  0  0  0  0  0  0
   -5.9607    4.7033  -37.5652 C   0  0  0  0  0  0  0  0  0  0  0  0
   -6.0035    5.6517  -36.6554 N   0  0  0  0  0  0  0  0  0  0  0  0
   -6.9018    3.8159  -35.4694 N   0  0  0  0  0  0  0  0  0  0  0  0
   -5.5018    4.8333  -38.8350 N   0  0  0  0  0  0  0  0  0  0  0  0
   -6.5636    3.2034  -36.9896 S   0  0  0  0  0  0  0  0  0  0  0  0
   -6.6698    5.7026  -34.6184 H   0  0  0  0  0  0  0  0  0  0  0  0
   -5.4548    4.0340  -39.4787 H   0  0  0  0  0  0  0  0  0  0  0  0
   -5.0947    5.7127  -39.1764 H   0  0  0  0  0  0  0  0  0  0  0  0
  1  3  1  0  0  0  0
  1  4  2  0  0  0  0
  2  3  2  0  0  0  0
  2  5  1  0  0  0  0
  2  6  1  0  0  0  0
  4  6  1  0  0  0  0
  1  7  1  0  0  0  0
  5  8  1  0  0  0  0
  5  9  1  0  0  0  0
M  END
> <id>
EN300-174563

> <smiles>
Cl.NC1=NC=NS1

> <MDLNUMBER>
MFCD19441985

> <IUPAC Name>
1,2,4-thiadiazol-5-amine hydrochloride

> <CAS>
152513-91-2

> <Purity>
95

> <URL>
https://www.enaminestore.com/catalog/EN300-174563

> <Saltdate>
Cl

> <MP>
166-169

> <ROCS_ShapeQuery>
_hit0

> <ROCS_TanimotoCombo>
0.990 

> <ROCS_ShapeTanimoto>
0.492 

> <ROCS_ColorTanimoto>
0.499 

> <ROCS_RefTversky>
1.000 

> <ROCS_RefColorTversky>
0.740 

> <ROCS_RefTverskyCombo>
1.740 

> <ROCS_FitTversky>
0.490 

> <ROCS_FitColorTversky>
0.604 

> <ROCS_FitTverskyCombo>
1.094 

> <ROCS_ColorScore>
-2.999

> <ROCS_Overlap>
116.175

> <ROCS_Rank>
469                 

$$$$
untitled-dbase-20406_0
  -OEChem-06232314393D

  9  9  0     0  0  0  0  0  0999 V2000
   -6.5394    5.0981  -35.5050 C   0  0  0  0  0  0  0  0  0  0  0  0
   -5.9607    4.7033  -37.5652 C   0  0  0  0  0  0  0  0  0  0  0  0
   -6.0035    5.6517  -36.6554 N   0  0  0  0  0  0  0  0  0  0  0  0
   -6.9018    3.8159  -35.4694 N   0  0  0  0  0  0  0  0  0  0  0  0
   -5.5018    4.8333  -38.8350 N   0  0  0  0  0  0  0  0  0  0  0  0
   -6.5636    3.2034  -36.9896 S   0  0  0  0  0  0  0  0  0  0  0  0
   -6.6698    5.7026  -34.6184 H   0  0  0  0  0  0  0  0  0  0  0  0
   -5.4548    4.0340  -39.4787 H   0  0  0  0  0  0  0  0  0  0  0  0
   -5.0947    5.7127  -39.1764 H   0  0  0  0  0  0  0  0  0  0  0  0
  1  3  1  0  0  0  0
  1  4  2  0  0  0  0
  2  3  2  0  0  0  0
  2  5  1  0  0  0  0
  2  6  1  0  0  0  0
  4  6  1  0  0  0  0
  1  7  1  0  0  0  0
  5  8  1  0  0  0  0
  5  9  1  0  0  0  0
M  END
> <id>
EN300-175621

> <smiles>
Cl.Cl.NC1=NC=NS1

> <MDLNUMBER>
MFCD26967955

> <IUPAC Name>
1,2,4-thiadiazol-5-amine dihydrochloride

> <CAS>
1588440-88-3

> <URL>
https://www.enaminestore.com/catalog/EN300-175621

> <Saltdate>
Cl

> <ROCS_ShapeQuery>
_hit0

> <ROCS_TanimotoCombo>
0.990 

> <ROCS_ShapeTanimoto>
0.492 

> <ROCS_ColorTanimoto>
0.499 

> <ROCS_RefTversky>
1.000 

> <ROCS_RefColorTversky>
0.740 

> <ROCS_RefTverskyCombo>
1.740 

> <ROCS_FitTversky>
0.490 

> <ROCS_FitColorTversky>
0.604 

> <ROCS_FitTverskyCombo>
1.094 

> <ROCS_ColorScore>
-2.999

> <ROCS_Overlap>
116.175

> <ROCS_Rank>
470                 

$$$$
untitled-dbase-52235_0
  -OEChem-06232314393D

 11 11  0     0  0  0  0  0  0999 V2000
   -6.4152    3.5613  -37.0477 C   0  0  0  0  0  0  0  0  0  0  0  0
   -6.5124    5.7070  -35.4516 C   0  0  0  0  0  0  0  0  0  0  0  0
   -5.9713    4.7654  -37.5562 C   0  0  0  0  0  0  0  0  0  0  0  0
   -6.0214    5.8749  -36.7308 C   0  0  0  0  0  0  0  0  0  0  0  0
   -6.8907    3.4260  -35.7916 N   0  0  0  0  0  0  0  0  0  0  0  0
   -6.9403    4.5166  -34.9806 N   0  0  0  0  0  0  0  0  0  0  0  0
   -5.5033    4.8316  -38.8292 O   0  0  0  0  0  0  0  0  0  0  0  0
   -5.4967    7.4243  -37.2574 Cl  0  0  0  0  0  0  0  0  0  0  0  0
   -6.4044    2.6530  -37.6399 H   0  0  0  0  0  0  0  0  0  0  0  0
   -6.5851    6.5292  -34.7480 H   0  0  0  0  0  0  0  0  0  0  0  0
   -5.2291    5.7388  -39.0434 H   0  0  0  0  0  0  0  0  0  0  0  0
  1  3  2  0  0  0  0
  1  5  1  0  0  0  0
  2  4  2  0  0  0  0
  2  6  1  0  0  0  0
  3  4  1  0  0  0  0
  3  7  1  0  0  0  0
  4  8  1  0  0  0  0
  5  6  2  0  0  0  0
  1  9  1  0  0  0  0
  2 10  1  0  0  0  0
  7 11  1  0  0  0  0
M  END
> <id>
EN300-200378

> <smiles>
OC=1C=NN=CC1Cl

> <MDLNUMBER>
MFCD13190781

> <IUPAC Name>
5-chloropyridazin-4-ol

> <CAS>
1245643-70-2

> <Purity>
95

> <URL>
https://www.enaminestore.com/catalog/EN300-200378

> <ROCS_ShapeQuery>
_hit0

> <ROCS_TanimotoCombo>
0.990 

> <ROCS_ShapeTanimoto>
0.454 

> <ROCS_ColorTanimoto>
0.536 

> <ROCS_RefTversky>
1.170 

> <ROCS_RefColorTversky>
0.799 

> <ROCS_RefTverskyCombo>
1.969 

> <ROCS_FitTversky>
0.426 

> <ROCS_FitColorTversky>
0.619 

> <ROCS_FitTverskyCombo>
1.045 

> <ROCS_ColorScore>
-3.250

> <ROCS_Overlap>
140.539

> <ROCS_Rank>
471                 

$$$$
untitled-dbase-43061_0
  -OEChem-06232314393D

 19 19  0     0  0  0  0  0  0999 V2000
   -6.8926    3.4166  -35.6298 C   0  0  0  0  0  0  0  0  0  0  0  0
   -6.4304    3.5238  -36.9415 C   0  0  0  0  0  0  0  0  0  0  0  0
   -6.9101    4.5395  -34.8024 C   0  0  0  0  0  0  0  0  0  0  0  0
   -6.0031    5.8769  -36.5984 C   0  0  0  0  0  0  0  0  0  0  0  0
   -5.9856    4.7540  -37.4258 C   0  0  0  0  0  0  0  0  0  0  0  0
   -6.4653    5.7696  -35.2867 C   0  0  0  0  0  0  0  0  0  0  0  0
   -5.5230    7.1967  -37.1177 C   0  0  0  0  0  0  0  0  0  0  0  0
   -5.5208    4.8419  -38.7566 N   0  0  0  0  0  0  0  0  0  0  0  0
   -6.4919    6.8945  -34.4328 N   0  0  0  0  0  0  0  0  0  0  0  0
   -7.2389    2.4586  -35.2529 H   0  0  0  0  0  0  0  0  0  0  0  0
   -6.4208    2.6416  -37.5767 H   0  0  0  0  0  0  0  0  0  0  0  0
   -7.2725    4.4434  -33.7820 H   0  0  0  0  0  0  0  0  0  0  0  0
   -6.3545    7.7488  -37.5676 H   0  0  0  0  0  0  0  0  0  0  0  0
   -5.0923    7.8021  -36.3125 H   0  0  0  0  0  0  0  0  0  0  0  0
   -4.7405    7.0604  -37.8725 H   0  0  0  0  0  0  0  0  0  0  0  0
   -5.2468    5.7321  -39.1178 H   0  0  0  0  0  0  0  0  0  0  0  0
   -5.5634    4.0323  -39.3403 H   0  0  0  0  0  0  0  0  0  0  0  0
   -6.8724    6.7981  -33.5142 H   0  0  0  0  0  0  0  0  0  0  0  0
   -6.2179    7.7847  -34.7938 H   0  0  0  0  0  0  0  0  0  0  0  0
  1  2  2  0  0  0  0
  1  3  1  0  0  0  0
  2  5  1  0  0  0  0
  3  6  2  0  0  0  0
  4  5  2  0  0  0  0
  4  6  1  0  0  0  0
  4  7  1  0  0  0  0
  5  8  1  0  0  0  0
  6  9  1  0  0  0  0
  1 10  1  0  0  0  0
  2 11  1  0  0  0  0
  3 12  1  0  0  0  0
  7 13  1  0  0  0  0
  7 14  1  0  0  0  0
  7 15  1  0  0  0  0
  8 16  1  0  0  0  0
  8 17  1  0  0  0  0
  9 18  1  0  0  0  0
  9 19  1  0  0  0  0
M  END
> <id>
EN300-1663175

> <smiles>
CC=1C(N)=CC=CC1N

> <MDLNUMBER>
MFCD00007800

> <IUPAC Name>
2-methylbenzene-1,3-diamine

> <CAS>
823-40-5

> <URL>
https://www.enaminestore.com/catalog/EN300-1663175

> <MP>
104-106

> <ROCS_ShapeQuery>
_hit0

> <ROCS_TanimotoCombo>
0.990 

> <ROCS_ShapeTanimoto>
0.494 

> <ROCS_ColorTanimoto>
0.496 

> <ROCS_RefTversky>
1.337 

> <ROCS_RefColorTversky>
0.737 

> <ROCS_RefTverskyCombo>
2.074 

> <ROCS_FitTversky>
0.439 

> <ROCS_FitColorTversky>
0.603 

> <ROCS_FitTverskyCombo>
1.042 

> <ROCS_ColorScore>
-2.984

> <ROCS_Overlap>
163.529

> <ROCS_Rank>
472                 

$$$$
untitled-dbase-5460_0
  -OEChem-06232314393D

 18 18  0     1  0  0  0  0  0999 V2000
   -5.3591    6.5770  -37.3702 C   0  0  0  0  0  0  0  0  0  0  0  0
   -6.0445    7.1894  -36.3940 C   0  0  0  0  0  0  0  0  0  0  0  0
   -6.4128    4.3669  -36.7192 C   0  0  0  0  0  0  0  0  0  0  0  0
   -6.5084    4.9478  -35.3142 C   0  0  0  0  0  0  0  0  0  0  0  0
   -5.3337    5.0845  -37.5384 C   0  0  1  0  0  0  0  0  0  0  0  0
   -6.8348    6.4452  -35.3571 C   0  0  1  0  0  0  0  0  0  0  0  0
   -5.5001    4.7542  -38.9147 O   0  0  0  0  0  0  0  0  0  0  0  0
   -6.5633    7.0155  -34.0803 O   0  0  0  0  0  0  0  0  0  0  0  0
   -4.7899    7.1793  -38.0730 H   0  0  0  0  0  0  0  0  0  0  0  0
   -6.0361    8.2749  -36.3459 H   0  0  0  0  0  0  0  0  0  0  0  0
   -6.1869    3.2946  -36.6734 H   0  0  0  0  0  0  0  0  0  0  0  0
   -7.3857    4.4447  -37.2232 H   0  0  0  0  0  0  0  0  0  0  0  0
   -7.2778    4.4211  -34.7368 H   0  0  0  0  0  0  0  0  0  0  0  0
   -5.5660    4.7806  -34.7753 H   0  0  0  0  0  0  0  0  0  0  0  0
   -4.3378    4.7246  -37.2319 H   0  0  0  0  0  0  0  0  0  0  0  0
   -7.9006    6.5922  -35.5668 H   0  0  0  0  0  0  0  0  0  0  0  0
   -5.4770    3.7862  -38.9718 H   0  0  0  0  0  0  0  0  0  0  0  0
   -7.0870    6.5141  -33.4361 H   0  0  0  0  0  0  0  0  0  0  0  0
  1  2  2  0  0  0  0
  1  5  1  0  0  0  0
  2  6  1  0  0  0  0
  3  4  1  0  0  0  0
  3  5  1  0  0  0  0
  4  6  1  0  0  0  0
  5  7  1  0  0  0  0
  6  8  1  0  0  0  0
  1  9  1  0  0  0  0
  2 10  1  0  0  0  0
  3 11  1  0  0  0  0
  3 12  1  0  0  0  0
  4 13  1  0  0  0  0
  4 14  1  0  0  0  0
  5 15  1  0  0  0  0
  6 16  1  0  0  0  0
  7 17  1  0  0  0  0
  8 18  1  0  0  0  0
M  END
> <id>
EN300-201666

> <smiles>
OC1CCC(O)C=C1

> <MDLNUMBER>
MFCD24390196

> <IUPAC Name>
cyclohex-2-ene-1,4-diol

> <CAS>
45620-68-6

> <Purity>
95

> <URL>
https://www.enaminestore.com/catalog/EN300-201666

> <ROCS_ShapeQuery>
_hit0

> <ROCS_TanimotoCombo>
0.990 

> <ROCS_ShapeTanimoto>
0.517 

> <ROCS_ColorTanimoto>
0.474 

> <ROCS_RefTversky>
1.240 

> <ROCS_RefColorTversky>
0.714 

> <ROCS_RefTverskyCombo>
1.954 

> <ROCS_FitTversky>
0.470 

> <ROCS_FitColorTversky>
0.584 

> <ROCS_FitTverskyCombo>
1.054 

> <ROCS_ColorScore>
-2.892

> <ROCS_Overlap>
147.917

> <ROCS_Rank>
473                 

$$$$
untitled-dbase-3394_0
  -OEChem-06232314393D

 16 16  0     0  0  0  0  0  0999 V2000
   -5.9499    6.1162  -36.7960 C   0  0  0  0  0  0  0  0  0  0  0  0
   -6.4337    3.7876  -36.8084 C   0  0  0  0  0  0  0  0  0  0  0  0
   -6.4024    6.1723  -35.4824 C   0  0  0  0  0  0  0  0  0  0  0  0
   -5.9625    4.9050  -37.4786 C   0  0  0  0  0  0  0  0  0  0  0  0
   -6.8541    4.9982  -34.9016 C   0  0  0  0  0  0  0  0  0  0  0  0
   -6.3812    7.4800  -34.7666 C   0  0  0  0  0  0  0  0  0  0  0  0
   -6.8814    3.8031  -35.5329 N   0  0  0  0  0  0  0  0  0  0  0  0
   -5.5118    4.8173  -38.8058 N   0  0  0  0  0  0  0  0  0  0  0  0
   -7.4891    5.0003  -33.1044 Br  0  0  0  0  0  0  0  0  0  0  0  0
   -5.5874    7.0161  -37.2876 H   0  0  0  0  0  0  0  0  0  0  0  0
   -6.4679    2.8144  -37.2887 H   0  0  0  0  0  0  0  0  0  0  0  0
   -7.3268    8.0148  -34.9192 H   0  0  0  0  0  0  0  0  0  0  0  0
   -6.2302    7.3419  -33.6879 H   0  0  0  0  0  0  0  0  0  0  0  0
   -5.5605    8.1165  -35.1229 H   0  0  0  0  0  0  0  0  0  0  0  0
   -5.2198    5.6489  -39.2843 H   0  0  0  0  0  0  0  0  0  0  0  0
   -5.5750    3.9422  -39.2918 H   0  0  0  0  0  0  0  0  0  0  0  0
  1  3  2  0  0  0  0
  1  4  1  0  0  0  0
  2  4  2  0  0  0  0
  2  7  1  0  0  0  0
  3  5  1  0  0  0  0
  3  6  1  0  0  0  0
  4  8  1  0  0  0  0
  5  7  2  0  0  0  0
  5  9  1  0  0  0  0
  1 10  1  0  0  0  0
  2 11  1  0  0  0  0
  6 12  1  0  0  0  0
  6 13  1  0  0  0  0
  6 14  1  0  0  0  0
  8 15  1  0  0  0  0
  8 16  1  0  0  0  0
M  END
> <id>
EN300-131929

> <smiles>
CC=1C=C(N)C=NC1Br

> <MDLNUMBER>
MFCD03095085

> <IUPAC Name>
6-bromo-5-methylpyridin-3-amine

> <CAS>
38186-83-3

> <Purity>
95

> <URL>
https://www.enaminestore.com/catalog/EN300-131929

> <MP>
97-100

> <ROCS_ShapeQuery>
_hit0

> <ROCS_TanimotoCombo>
0.990 

> <ROCS_ShapeTanimoto>
0.490 

> <ROCS_ColorTanimoto>
0.500 

> <ROCS_RefTversky>
1.307 

> <ROCS_RefColorTversky>
0.741 

> <ROCS_RefTverskyCombo>
2.048 

> <ROCS_FitTversky>
0.439 

> <ROCS_FitColorTversky>
0.606 

> <ROCS_FitTverskyCombo>
1.045 

> <ROCS_ColorScore>
-3.000

> <ROCS_Overlap>
159.258

> <ROCS_Rank>
474                 

$$$$
untitled-dbase-10945_0
  -OEChem-06232314393D

  9  8  0     0  0  0  0  0  0999 V2000
   -6.2080    5.7909  -38.0329 C   0  0  0  0  0  0  0  0  0  0  0  0
   -5.9831    5.5293  -36.5664 C   0  0  0  0  0  0  0  0  0  0  0  0
   -5.5183    4.8084  -38.7906 O   0  0  0  0  0  0  0  0  0  0  0  0
   -6.4338    4.3015  -36.2277 F   0  0  0  0  0  0  0  0  0  0  0  0
   -6.6344    6.4316  -35.8025 F   0  0  0  0  0  0  0  0  0  0  0  0
   -4.6710    5.5854  -36.2546 F   0  0  0  0  0  0  0  0  0  0  0  0
   -7.2738    5.7371  -38.2737 H   0  0  0  0  0  0  0  0  0  0  0  0
   -5.8289    6.7792  -38.3095 H   0  0  0  0  0  0  0  0  0  0  0  0
   -5.8828    3.9459  -38.5320 H   0  0  0  0  0  0  0  0  0  0  0  0
  1  2  1  0  0  0  0
  1  3  1  0  0  0  0
  2  4  1  0  0  0  0
  2  5  1  0  0  0  0
  2  6  1  0  0  0  0
  1  7  1  0  0  0  0
  1  8  1  0  0  0  0
  3  9  1  0  0  0  0
M  END
> <id>
EN300-19568

> <smiles>
OCC(F)(F)F

> <MDLNUMBER>
MFCD00004672

> <IUPAC Name>
2,2,2-trifluoroethan-1-ol

> <CAS>
75-89-8

> <Purity>
95

> <URL>
https://www.enaminestore.com/catalog/EN300-19568

> <ROCS_ShapeQuery>
_hit0

> <ROCS_TanimotoCombo>
0.990 

> <ROCS_ShapeTanimoto>
0.490 

> <ROCS_ColorTanimoto>
0.500 

> <ROCS_RefTversky>
1.000 

> <ROCS_RefColorTversky>
0.513 

> <ROCS_RefTverskyCombo>
1.513 

> <ROCS_FitTversky>
0.489 

> <ROCS_FitColorTversky>
0.952 

> <ROCS_FitTverskyCombo>
1.441 

> <ROCS_ColorScore>
-2.000

> <ROCS_Overlap>
115.991

> <ROCS_Rank>
475                 

$$$$
untitled-dbase-41077_0
  -OEChem-06232314393D

 13 13  0     0  0  0  0  0  0999 V2000
   -6.4051    3.4335  -37.2214 C   0  0  0  0  0  0  0  0  0  0  0  0
   -6.8821    3.2896  -35.9285 C   0  0  0  0  0  0  0  0  0  0  0  0
   -5.9526    4.6887  -37.6122 C   0  0  0  0  0  0  0  0  0  0  0  0
   -5.9904    5.7469  -36.7110 C   0  0  0  0  0  0  0  0  0  0  0  0
   -6.4861    5.4996  -35.4410 C   0  0  0  0  0  0  0  0  0  0  0  0
   -6.9345    4.2939  -35.0250 N   0  0  0  0  0  0  0  0  0  0  0  0
   -5.4796    4.8507  -38.8798 O   0  0  0  0  0  0  0  0  0  0  0  0
   -6.5446    6.5089  -34.5155 O   0  0  0  0  0  0  0  0  0  0  0  0
   -5.4372    7.3153  -37.1649 Cl  0  0  0  0  0  0  0  0  0  0  0  0
   -6.3880    2.5896  -37.9023 H   0  0  0  0  0  0  0  0  0  0  0  0
   -7.2465    2.3310  -35.5742 H   0  0  0  0  0  0  0  0  0  0  0  0
   -5.1990    5.7689  -39.0177 H   0  0  0  0  0  0  0  0  0  0  0  0
   -6.9128    6.1717  -33.6871 H   0  0  0  0  0  0  0  0  0  0  0  0
  1  2  1  0  0  0  0
  1  3  2  0  0  0  0
  2  6  2  0  0  0  0
  3  4  1  0  0  0  0
  3  7  1  0  0  0  0
  4  5  2  0  0  0  0
  4  9  1  0  0  0  0
  5  6  1  0  0  0  0
  5  8  1  0  0  0  0
  1 10  1  0  0  0  0
  2 11  1  0  0  0  0
  7 12  1  0  0  0  0
  8 13  1  0  0  0  0
M  END
> <id>
EN300-103070

> <smiles>
OC=1C=CN=C(O)C1Cl

> <MDLNUMBER>
MFCD01646110

> <IUPAC Name>
3-chloropyridine-2,4-diol

> <CAS>
103792-81-0

> <Purity>
95

> <URL>
https://www.enaminestore.com/catalog/EN300-103070

> <ROCS_ShapeQuery>
_hit0

> <ROCS_TanimotoCombo>
0.990 

> <ROCS_ShapeTanimoto>
0.474 

> <ROCS_ColorTanimoto>
0.516 

> <ROCS_RefTversky>
1.303 

> <ROCS_RefColorTversky>
0.830 

> <ROCS_RefTverskyCombo>
2.133 

> <ROCS_FitTversky>
0.427 

> <ROCS_FitColorTversky>
0.576 

> <ROCS_FitTverskyCombo>
1.003 

> <ROCS_ColorScore>
-3.405

> <ROCS_Overlap>
159.474

> <ROCS_Rank>
476                 

$$$$
untitled-dbase-49712_0
  -OEChem-06232314393D

 11 11  0     0  0  0  0  0  0999 V2000
   -6.6177    5.1899  -35.2167 C   0  0  0  0  0  0  0  0  0  0  0  0
   -5.9822    4.7708  -37.4500 C   0  0  0  0  0  0  0  0  0  0  0  0
   -6.9031    5.7736  -33.8910 C   0  0  0  0  0  0  0  0  0  0  0  0
   -6.8448    3.9405  -35.5621 N   0  0  0  0  0  0  0  0  0  0  0  0
   -6.4711    3.6944  -36.8718 N   0  0  0  0  0  0  0  0  0  0  0  0
   -5.5584    4.7764  -38.7055 O   0  0  0  0  0  0  0  0  0  0  0  0
   -5.9360    6.1649  -36.4522 S   0  0  0  0  0  0  0  0  0  0  0  0
   -6.0368    5.6714  -33.2174 H   0  0  0  0  0  0  0  0  0  0  0  0
   -7.1523    6.8464  -33.9565 H   0  0  0  0  0  0  0  0  0  0  0  0
   -7.7663    5.2894  -33.4033 H   0  0  0  0  0  0  0  0  0  0  0  0
   -5.6546    3.8968  -39.1349 H   0  0  0  0  0  0  0  0  0  0  0  0
  1  3  1  0  0  0  0
  1  4  2  0  0  0  0
  1  7  1  0  0  0  0
  2  5  2  0  0  0  0
  2  6  1  0  0  0  0
  2  7  1  0  0  0  0
  4  5  1  0  0  0  0
  3  8  1  0  0  0  0
  3  9  1  0  0  0  0
  3 10  1  0  0  0  0
  6 11  1  0  0  0  0
M  END
> <id>
EN300-173415

> <smiles>
CC1=NN=C(O)S1

> <MDLNUMBER>
MFCD18917076

> <IUPAC Name>
5-methyl-1,3,4-thiadiazol-2-ol

> <CAS>
84352-65-8

> <Purity>
95

> <URL>
https://www.enaminestore.com/catalog/EN300-173415

> <MP>
101-103

> <ROCS_ShapeQuery>
_hit0

> <ROCS_TanimotoCombo>
0.990 

> <ROCS_ShapeTanimoto>
0.490 

> <ROCS_ColorTanimoto>
0.499 

> <ROCS_RefTversky>
1.106 

> <ROCS_RefColorTversky>
0.762 

> <ROCS_RefTverskyCombo>
1.869 

> <ROCS_FitTversky>
0.468 

> <ROCS_FitColorTversky>
0.592 

> <ROCS_FitTverskyCombo>
1.060 

> <ROCS_ColorScore>
-3.099

> <ROCS_Overlap>
129.819

> <ROCS_Rank>
477                 

$$$$
untitled-dbase-4068_0
  -OEChem-06232314393D

 11 11  0     0  0  0  0  0  0999 V2000
   -5.8429    6.1437  -36.7676 C   0  0  0  0  0  0  0  0  0  0  0  0
   -6.4301    3.8948  -36.7671 C   0  0  0  0  0  0  0  0  0  0  0  0
   -5.9139    4.9315  -37.5130 C   0  0  0  0  0  0  0  0  0  0  0  0
   -6.3080    5.9874  -35.4803 C   0  0  0  0  0  0  0  0  0  0  0  0
   -5.5213    4.8096  -38.8023 N   0  0  0  0  0  0  0  0  0  0  0  0
   -6.8269    4.3844  -35.1748 S   0  0  0  0  0  0  0  0  0  0  0  0
   -6.4067    7.1740  -34.2478 Cl  0  0  0  0  0  0  0  0  0  0  0  0
   -5.4701    7.0837  -37.1567 H   0  0  0  0  0  0  0  0  0  0  0  0
   -6.5960    2.8711  -37.0742 H   0  0  0  0  0  0  0  0  0  0  0  0
   -5.5428    3.9067  -39.2955 H   0  0  0  0  0  0  0  0  0  0  0  0
   -5.0957    5.5915  -39.3185 H   0  0  0  0  0  0  0  0  0  0  0  0
  1  3  1  0  0  0  0
  1  4  2  0  0  0  0
  2  3  2  0  0  0  0
  2  6  1  0  0  0  0
  3  5  1  0  0  0  0
  4  6  1  0  0  0  0
  4  7  1  0  0  0  0
  1  8  1  0  0  0  0
  2  9  1  0  0  0  0
  5 10  1  0  0  0  0
  5 11  1  0  0  0  0
M  END
> <id>
EN300-171213

> <smiles>
NC1=CSC(Cl)=C1

> <MDLNUMBER>
MFCD22378844

> <IUPAC Name>
5-chlorothiophen-3-amine

> <CAS>
123403-75-8

> <URL>
https://www.enaminestore.com/catalog/EN300-171213

> <ROCS_ShapeQuery>
_hit0

> <ROCS_TanimotoCombo>
0.990 

> <ROCS_ShapeTanimoto>
0.590 

> <ROCS_ColorTanimoto>
0.400 

> <ROCS_RefTversky>
1.214 

> <ROCS_RefColorTversky>
0.506 

> <ROCS_RefTverskyCombo>
1.721 

> <ROCS_FitTversky>
0.534 

> <ROCS_FitColorTversky>
0.656 

> <ROCS_FitTverskyCombo>
1.190 

> <ROCS_ColorScore>
-2.000

> <ROCS_Overlap>
141.735

> <ROCS_Rank>
478                 

$$$$
untitled-dbase-4067_0
  -OEChem-06232314393D

 11 11  0     0  0  0  0  0  0999 V2000
   -5.8429    6.1437  -36.7676 C   0  0  0  0  0  0  0  0  0  0  0  0
   -6.4301    3.8948  -36.7671 C   0  0  0  0  0  0  0  0  0  0  0  0
   -5.9139    4.9315  -37.5130 C   0  0  0  0  0  0  0  0  0  0  0  0
   -6.3080    5.9874  -35.4803 C   0  0  0  0  0  0  0  0  0  0  0  0
   -5.5213    4.8096  -38.8023 N   0  0  0  0  0  0  0  0  0  0  0  0
   -6.8269    4.3844  -35.1748 S   0  0  0  0  0  0  0  0  0  0  0  0
   -6.4067    7.1740  -34.2478 Cl  0  0  0  0  0  0  0  0  0  0  0  0
   -5.4701    7.0837  -37.1567 H   0  0  0  0  0  0  0  0  0  0  0  0
   -6.5960    2.8711  -37.0742 H   0  0  0  0  0  0  0  0  0  0  0  0
   -5.5428    3.9067  -39.2955 H   0  0  0  0  0  0  0  0  0  0  0  0
   -5.0957    5.5915  -39.3185 H   0  0  0  0  0  0  0  0  0  0  0  0
  1  3  1  0  0  0  0
  1  4  2  0  0  0  0
  2  3  2  0  0  0  0
  2  6  1  0  0  0  0
  3  5  1  0  0  0  0
  4  6  1  0  0  0  0
  4  7  1  0  0  0  0
  1  8  1  0  0  0  0
  2  9  1  0  0  0  0
  5 10  1  0  0  0  0
  5 11  1  0  0  0  0
M  END
> <id>
EN300-171212

> <smiles>
Cl.NC1=CSC(Cl)=C1

> <MDLNUMBER>
MFCD20926161

> <IUPAC Name>
5-chlorothiophen-3-amine hydrochloride

> <CAS>
1408076-06-1

> <Purity>
95

> <URL>
https://www.enaminestore.com/catalog/EN300-171212

> <Saltdate>
Cl

> <ROCS_ShapeQuery>
_hit0

> <ROCS_TanimotoCombo>
0.990 

> <ROCS_ShapeTanimoto>
0.590 

> <ROCS_ColorTanimoto>
0.400 

> <ROCS_RefTversky>
1.214 

> <ROCS_RefColorTversky>
0.506 

> <ROCS_RefTverskyCombo>
1.721 

> <ROCS_FitTversky>
0.534 

> <ROCS_FitColorTversky>
0.656 

> <ROCS_FitTverskyCombo>
1.190 

> <ROCS_ColorScore>
-2.000

> <ROCS_Overlap>
141.735

> <ROCS_Rank>
479                 

$$$$
untitled-dbase-9355_0
  -OEChem-06232314393D

 12 12  0     0  0  0  0  0  0999 V2000
   -5.8934    6.0865  -36.8249 C   0  0  0  0  0  0  0  0  0  0  0  0
   -6.8105    4.9974  -34.9198 C   0  0  0  0  0  0  0  0  0  0  0  0
   -5.9460    4.8749  -37.5050 C   0  0  0  0  0  0  0  0  0  0  0  0
   -6.3320    6.1574  -35.5074 C   0  0  0  0  0  0  0  0  0  0  0  0
   -6.4416    3.7723  -36.8280 C   0  0  0  0  0  0  0  0  0  0  0  0
   -6.8768    3.8024  -35.5484 N   0  0  0  0  0  0  0  0  0  0  0  0
   -5.5141    4.8207  -38.7918 O   0  0  0  0  0  0  0  0  0  0  0  0
   -6.2840    7.6344  -34.6377 Cl  0  0  0  0  0  0  0  0  0  0  0  0
   -6.5566    1.8993  -37.7783 I   0  0  0  0  0  0  0  0  0  0  0  0
   -5.5111    6.9716  -37.3274 H   0  0  0  0  0  0  0  0  0  0  0  0
   -7.1681    4.9871  -33.8946 H   0  0  0  0  0  0  0  0  0  0  0  0
   -5.6067    3.9196  -39.1428 H   0  0  0  0  0  0  0  0  0  0  0  0
  1  3  2  0  0  0  0
  1  4  1  0  0  0  0
  2  4  2  0  0  0  0
  2  6  1  0  0  0  0
  3  5  1  0  0  0  0
  3  7  1  0  0  0  0
  4  8  1  0  0  0  0
  5  6  2  0  0  0  0
  5  9  1  0  0  0  0
  1 10  1  0  0  0  0
  2 11  1  0  0  0  0
  7 12  1  0  0  0  0
M  END
> <id>
EN300-182613

> <smiles>
OC=1C=C(Cl)C=NC1I

> <MDLNUMBER>
MFCD11043603

> <IUPAC Name>
5-chloro-2-iodopyridin-3-ol

> <CAS>
188057-16-1

> <Purity>
95

> <URL>
https://www.enaminestore.com/catalog/EN300-182613

> <ROCS_ShapeQuery>
_hit0

> <ROCS_TanimotoCombo>
0.989 

> <ROCS_ShapeTanimoto>
0.490 

> <ROCS_ColorTanimoto>
0.500 

> <ROCS_RefTversky>
1.288 

> <ROCS_RefColorTversky>
0.741 

> <ROCS_RefTverskyCombo>
2.029 

> <ROCS_FitTversky>
0.441 

> <ROCS_FitColorTversky>
0.606 

> <ROCS_FitTverskyCombo>
1.047 

> <ROCS_ColorScore>
-2.999

> <ROCS_Overlap>
156.370

> <ROCS_Rank>
480                 

$$$$
untitled-dbase-28830_0
  -OEChem-06232314393D

 13 13  0     0  0  0  0  0  0999 V2000
   -5.9662    6.1202  -36.8002 C   0  0  0  0  0  0  0  0  0  0  0  0
   -6.4293    3.7873  -36.8092 C   0  0  0  0  0  0  0  0  0  0  0  0
   -5.9666    4.9076  -37.4806 C   0  0  0  0  0  0  0  0  0  0  0  0
   -6.4222    6.1747  -35.4877 C   0  0  0  0  0  0  0  0  0  0  0  0
   -6.8648    4.9977  -34.9057 C   0  0  0  0  0  0  0  0  0  0  0  0
   -6.8801    3.8012  -35.5348 N   0  0  0  0  0  0  0  0  0  0  0  0
   -5.5116    4.8208  -38.8064 N   0  0  0  0  0  0  0  0  0  0  0  0
   -7.4554    4.9038  -33.2901 Cl  0  0  0  0  0  0  0  0  0  0  0  0
   -6.4058    7.8399  -34.5888 Br  0  0  0  0  0  0  0  0  0  0  0  0
   -5.6089    7.0175  -37.3006 H   0  0  0  0  0  0  0  0  0  0  0  0
   -6.4543    2.8128  -37.2872 H   0  0  0  0  0  0  0  0  0  0  0  0
   -5.2255    5.6538  -39.2859 H   0  0  0  0  0  0  0  0  0  0  0  0
   -5.5661    3.9442  -39.2906 H   0  0  0  0  0  0  0  0  0  0  0  0
  1  3  1  0  0  0  0
  1  4  2  0  0  0  0
  2  3  2  0  0  0  0
  2  6  1  0  0  0  0
  3  7  1  0  0  0  0
  4  5  1  0  0  0  0
  4  9  1  0  0  0  0
  5  6  2  0  0  0  0
  5  8  1  0  0  0  0
  1 10  1  0  0  0  0
  2 11  1  0  0  0  0
  7 12  1  0  0  0  0
  7 13  1  0  0  0  0
M  END
> <id>
EN300-112006

> <smiles>
NC=1C=NC(Cl)=C(Br)C1

> <MDLNUMBER>
MFCD03840433

> <IUPAC Name>
5-bromo-6-chloropyridin-3-amine

> <CAS>
130284-53-6

> <Purity>
95

> <URL>
https://www.enaminestore.com/catalog/EN300-112006

> <MP>
118-123

> <ROCS_ShapeQuery>
_hit0

> <ROCS_TanimotoCombo>
0.989 

> <ROCS_ShapeTanimoto>
0.489 

> <ROCS_ColorTanimoto>
0.500 

> <ROCS_RefTversky>
1.293 

> <ROCS_RefColorTversky>
0.741 

> <ROCS_RefTverskyCombo>
2.033 

> <ROCS_FitTversky>
0.441 

> <ROCS_FitColorTversky>
0.606 

> <ROCS_FitTverskyCombo>
1.047 

> <ROCS_ColorScore>
-3.000

> <ROCS_Overlap>
157.070

> <ROCS_Rank>
481                 

$$$$
untitled-dbase-7787_0
  -OEChem-06232314393D

 13 13  0     0  0  0  0  0  0999 V2000
   -7.0491    6.3296  -35.8501 C   0  0  0  0  0  0  0  0  0  0  0  0
   -6.4145    6.1931  -37.0797 C   0  0  0  0  0  0  0  0  0  0  0  0
   -7.3188    5.1782  -35.1281 C   0  0  0  0  0  0  0  0  0  0  0  0
   -6.0738    4.9273  -37.5432 C   0  0  0  0  0  0  0  0  0  0  0  0
   -6.3870    3.8386  -36.7453 C   0  0  0  0  0  0  0  0  0  0  0  0
   -7.0030    3.9318  -35.5455 N   0  0  0  0  0  0  0  0  0  0  0  0
   -5.4328    4.7629  -38.7822 N   0  0  0  0  0  0  0  0  0  0  0  0
   -6.0693    2.6054  -37.1725 F   0  0  0  0  0  0  0  0  0  0  0  0
   -7.3254    7.3056  -35.4682 H   0  0  0  0  0  0  0  0  0  0  0  0
   -6.1903    7.0789  -37.6681 H   0  0  0  0  0  0  0  0  0  0  0  0
   -7.8125    5.2306  -34.1630 H   0  0  0  0  0  0  0  0  0  0  0  0
   -5.1537    3.8456  -39.0757 H   0  0  0  0  0  0  0  0  0  0  0  0
   -5.1766    5.5720  -39.3163 H   0  0  0  0  0  0  0  0  0  0  0  0
  1  2  1  0  0  0  0
  1  3  2  0  0  0  0
  2  4  2  0  0  0  0
  3  6  1  0  0  0  0
  4  5  1  0  0  0  0
  4  7  1  0  0  0  0
  5  6  2  0  0  0  0
  5  8  1  0  0  0  0
  1  9  1  0  0  0  0
  2 10  1  0  0  0  0
  3 11  1  0  0  0  0
  7 12  1  0  0  0  0
  7 13  1  0  0  0  0
M  END
> <id>
EN300-95260

> <smiles>
NC=1C=CC=NC1F

> <MDLNUMBER>
MFCD03095248

> <IUPAC Name>
2-fluoropyridin-3-amine

> <CAS>
1597-33-7

> <Purity>
95

> <URL>
https://www.enaminestore.com/catalog/EN300-95260

> <ROCS_ShapeQuery>
_hit0

> <ROCS_TanimotoCombo>
0.989 

> <ROCS_ShapeTanimoto>
0.405 

> <ROCS_ColorTanimoto>
0.585 

> <ROCS_RefTversky>
1.097 

> <ROCS_RefColorTversky>
0.738 

> <ROCS_RefTverskyCombo>
1.835 

> <ROCS_FitTversky>
0.391 

> <ROCS_FitColorTversky>
0.738 

> <ROCS_FitTverskyCombo>
1.129 

> <ROCS_ColorScore>
-2.951

> <ROCS_Overlap>
132.319

> <ROCS_Rank>
482                 

$$$$
untitled-dbase-8178_0
  -OEChem-06232314393D

 13 13  0     0  0  0  0  0  0999 V2000
   -7.0491    6.3296  -35.8501 C   0  0  0  0  0  0  0  0  0  0  0  0
   -6.4145    6.1931  -37.0797 C   0  0  0  0  0  0  0  0  0  0  0  0
   -7.3188    5.1782  -35.1281 C   0  0  0  0  0  0  0  0  0  0  0  0
   -6.0738    4.9273  -37.5432 C   0  0  0  0  0  0  0  0  0  0  0  0
   -6.3870    3.8386  -36.7453 C   0  0  0  0  0  0  0  0  0  0  0  0
   -7.0030    3.9318  -35.5455 N   0  0  0  0  0  0  0  0  0  0  0  0
   -5.4328    4.7629  -38.7822 N   0  0  0  0  0  0  0  0  0  0  0  0
   -6.0693    2.6054  -37.1725 F   0  0  0  0  0  0  0  0  0  0  0  0
   -7.3254    7.3056  -35.4682 H   0  0  0  0  0  0  0  0  0  0  0  0
   -6.1903    7.0789  -37.6681 H   0  0  0  0  0  0  0  0  0  0  0  0
   -7.8125    5.2306  -34.1630 H   0  0  0  0  0  0  0  0  0  0  0  0
   -5.1537    3.8456  -39.0757 H   0  0  0  0  0  0  0  0  0  0  0  0
   -5.1766    5.5720  -39.3163 H   0  0  0  0  0  0  0  0  0  0  0  0
  1  2  1  0  0  0  0
  1  3  2  0  0  0  0
  2  4  2  0  0  0  0
  3  6  1  0  0  0  0
  4  5  1  0  0  0  0
  4  7  1  0  0  0  0
  5  6  2  0  0  0  0
  5  8  1  0  0  0  0
  1  9  1  0  0  0  0
  2 10  1  0  0  0  0
  3 11  1  0  0  0  0
  7 12  1  0  0  0  0
  7 13  1  0  0  0  0
M  END
> <id>
EN300-262742

> <smiles>
Cl.NC=1C=CC=NC1F

> <MDLNUMBER>
MFCD04114142

> <IUPAC Name>
2-fluoropyridin-3-amine hydrochloride

> <CAS>
1827-26-5

> <URL>
https://www.enaminestore.com/catalog/EN300-262742

> <Saltdate>
Cl

> <ROCS_ShapeQuery>
_hit0

> <ROCS_TanimotoCombo>
0.989 

> <ROCS_ShapeTanimoto>
0.405 

> <ROCS_ColorTanimoto>
0.585 

> <ROCS_RefTversky>
1.097 

> <ROCS_RefColorTversky>
0.738 

> <ROCS_RefTverskyCombo>
1.835 

> <ROCS_FitTversky>
0.391 

> <ROCS_FitColorTversky>
0.738 

> <ROCS_FitTverskyCombo>
1.129 

> <ROCS_ColorScore>
-2.951

> <ROCS_Overlap>
132.319

> <ROCS_Rank>
483                 

$$$$
untitled-dbase-27030_6
  -OEChem-06232314393D

 17 17  0     1  0  0  0  0  0999 V2000
   -6.2049    6.2346  -35.3373 C   0  0  0  0  0  0  0  0  0  0  0  0
   -6.8139    4.9268  -34.8285 C   0  0  0  0  0  0  0  0  0  0  0  0
   -5.5284    3.7793  -36.4656 C   0  0  0  0  0  0  0  0  0  0  0  0
   -5.2553    5.0275  -37.3087 C   0  0  2  0  0  0  0  0  0  0  0  0
   -6.0843    6.2174  -36.8468 C   0  0  0  0  0  0  0  0  0  0  0  0
   -6.7899    3.8809  -35.8049 O   0  0  0  0  0  0  0  0  0  0  0  0
   -5.5733    4.7737  -38.6758 O   0  0  0  0  0  0  0  0  0  0  0  0
   -5.5274    7.3701  -37.2867 F   0  0  0  0  0  0  0  0  0  0  0  0
   -7.3318    6.1581  -37.3815 F   0  0  0  0  0  0  0  0  0  0  0  0
   -6.8191    7.0826  -35.0118 H   0  0  0  0  0  0  0  0  0  0  0  0
   -5.2069    6.3697  -34.8997 H   0  0  0  0  0  0  0  0  0  0  0  0
   -6.2500    4.5734  -33.9493 H   0  0  0  0  0  0  0  0  0  0  0  0
   -7.8547    5.0797  -34.4902 H   0  0  0  0  0  0  0  0  0  0  0  0
   -5.4976    2.8681  -37.0748 H   0  0  0  0  0  0  0  0  0  0  0  0
   -4.7503    3.6687  -35.7036 H   0  0  0  0  0  0  0  0  0  0  0  0
   -4.1911    5.2917  -37.2604 H   0  0  0  0  0  0  0  0  0  0  0  0
   -6.5158    4.5419  -38.7065 H   0  0  0  0  0  0  0  0  0  0  0  0
  1  2  1  0  0  0  0
  1  5  1  0  0  0  0
  2  6  1  0  0  0  0
  3  4  1  0  0  0  0
  3  6  1  0  0  0  0
  4  5  1  0  0  0  0
  4  7  1  0  0  0  0
  5  8  1  0  0  0  0
  5  9  1  0  0  0  0
  1 10  1  0  0  0  0
  1 11  1  0  0  0  0
  2 12  1  0  0  0  0
  2 13  1  0  0  0  0
  3 14  1  0  0  0  0
  3 15  1  0  0  0  0
  4 16  1  0  0  0  0
  7 17  1  0  0  0  0
M  END
> <id>
EN300-7207357

> <smiles>
OC1COCCC1(F)F

> <MDLNUMBER>
MFCD31915900

> <IUPAC Name>
4,4-difluorooxan-3-ol

> <CAS>
1785334-20-4

> <Purity>
95

> <URL>
https://www.enaminestore.com/catalog/EN300-7207357

> <ROCS_ShapeQuery>
_hit0

> <ROCS_TanimotoCombo>
0.989 

> <ROCS_ShapeTanimoto>
0.427 

> <ROCS_ColorTanimoto>
0.562 

> <ROCS_RefTversky>
1.215 

> <ROCS_RefColorTversky>
0.719 

> <ROCS_RefTverskyCombo>
1.934 

> <ROCS_FitTversky>
0.397 

> <ROCS_FitColorTversky>
0.719 

> <ROCS_FitTverskyCombo>
1.117 

> <ROCS_ColorScore>
-2.878

> <ROCS_Overlap>
148.802

> <ROCS_Rank>
484                 

$$$$
untitled-dbase-11691_0
  -OEChem-06232314393D

 15 15  0     0  0  0  0  0  0999 V2000
   -5.9439    6.1173  -36.8304 C   0  0  0  0  0  0  0  0  0  0  0  0
   -6.4222    3.7875  -36.8325 C   0  0  0  0  0  0  0  0  0  0  0  0
   -6.3972    6.1782  -35.5173 C   0  0  0  0  0  0  0  0  0  0  0  0
   -5.9533    4.9030  -37.5076 C   0  0  0  0  0  0  0  0  0  0  0  0
   -6.8464    5.0057  -34.9314 C   0  0  0  0  0  0  0  0  0  0  0  0
   -6.3797    7.4893  -34.8078 C   0  0  0  0  0  0  0  0  0  0  0  0
   -6.8705    3.8077  -35.5573 N   0  0  0  0  0  0  0  0  0  0  0  0
   -5.5175    4.8136  -38.7883 O   0  0  0  0  0  0  0  0  0  0  0  0
   -7.4827    5.0147  -33.1348 Br  0  0  0  0  0  0  0  0  0  0  0  0
   -5.5828    7.0130  -37.3297 H   0  0  0  0  0  0  0  0  0  0  0  0
   -6.4525    2.8142  -37.3119 H   0  0  0  0  0  0  0  0  0  0  0  0
   -7.3266    8.0210  -34.9632 H   0  0  0  0  0  0  0  0  0  0  0  0
   -6.2287    7.3568  -33.7284 H   0  0  0  0  0  0  0  0  0  0  0  0
   -5.5604    8.1263  -35.1667 H   0  0  0  0  0  0  0  0  0  0  0  0
   -5.2244    5.6828  -39.1109 H   0  0  0  0  0  0  0  0  0  0  0  0
  1  3  2  0  0  0  0
  1  4  1  0  0  0  0
  2  4  2  0  0  0  0
  2  7  1  0  0  0  0
  3  5  1  0  0  0  0
  3  6  1  0  0  0  0
  4  8  1  0  0  0  0
  5  7  2  0  0  0  0
  5  9  1  0  0  0  0
  1 10  1  0  0  0  0
  2 11  1  0  0  0  0
  6 12  1  0  0  0  0
  6 13  1  0  0  0  0
  6 14  1  0  0  0  0
  8 15  1  0  0  0  0
M  END
> <id>
EN300-98299

> <smiles>
CC=1C=C(O)C=NC1Br

> <MDLNUMBER>
MFCD09839267

> <IUPAC Name>
6-bromo-5-methylpyridin-3-ol

> <CAS>
1003711-43-0

> <Purity>
95

> <URL>
https://www.enaminestore.com/catalog/EN300-98299

> <ROCS_ShapeQuery>
_hit0

> <ROCS_TanimotoCombo>
0.989 

> <ROCS_ShapeTanimoto>
0.489 

> <ROCS_ColorTanimoto>
0.500 

> <ROCS_RefTversky>
1.309 

> <ROCS_RefColorTversky>
0.741 

> <ROCS_RefTverskyCombo>
2.049 

> <ROCS_FitTversky>
0.438 

> <ROCS_FitColorTversky>
0.606 

> <ROCS_FitTverskyCombo>
1.044 

> <ROCS_ColorScore>
-2.999

> <ROCS_Overlap>
159.557

> <ROCS_Rank>
485                 

$$$$
untitled-dbase-5309_0
  -OEChem-06232314393D

 12 12  0     0  0  0  0  0  0999 V2000
   -6.3769    3.2037  -37.5020 C   0  0  0  0  0  0  0  0  0  0  0  0
   -6.0553    5.4529  -36.7132 C   0  0  0  0  0  0  0  0  0  0  0  0
   -6.8816    2.8940  -36.2493 C   0  0  0  0  0  0  0  0  0  0  0  0
   -5.9580    4.5097  -37.7302 C   0  0  0  0  0  0  0  0  0  0  0  0
   -6.5746    5.0426  -35.4959 C   0  0  0  0  0  0  0  0  0  0  0  0
   -6.9916    3.7830  -35.2368 N   0  0  0  0  0  0  0  0  0  0  0  0
   -5.4547    4.8629  -38.9438 O   0  0  0  0  0  0  0  0  0  0  0  0
   -6.6753    5.9434  -34.5062 F   0  0  0  0  0  0  0  0  0  0  0  0
   -6.3122    2.4469  -38.2761 H   0  0  0  0  0  0  0  0  0  0  0  0
   -5.7361    6.4784  -36.8624 H   0  0  0  0  0  0  0  0  0  0  0  0
   -7.2203    1.8887  -36.0216 H   0  0  0  0  0  0  0  0  0  0  0  0
   -5.4517    4.0990  -39.5427 H   0  0  0  0  0  0  0  0  0  0  0  0
  1  3  1  0  0  0  0
  1  4  2  0  0  0  0
  2  4  1  0  0  0  0
  2  5  2  0  0  0  0
  3  6  2  0  0  0  0
  4  7  1  0  0  0  0
  5  6  1  0  0  0  0
  5  8  1  0  0  0  0
  1  9  1  0  0  0  0
  2 10  1  0  0  0  0
  3 11  1  0  0  0  0
  7 12  1  0  0  0  0
M  END
> <id>
EN300-216106

> <smiles>
OC=1C=CN=C(F)C1

> <MDLNUMBER>
MFCD04114159

> <IUPAC Name>
2-fluoropyridin-4-ol

> <CAS>
22282-69-5

> <Purity>
95

> <URL>
https://www.enaminestore.com/catalog/EN300-216106

> <MP>
149-151

> <ROCS_ShapeQuery>
_hit0

> <ROCS_TanimotoCombo>
0.989 

> <ROCS_ShapeTanimoto>
0.436 

> <ROCS_ColorTanimoto>
0.553 

> <ROCS_RefTversky>
1.155 

> <ROCS_RefColorTversky>
0.712 

> <ROCS_RefTverskyCombo>
1.868 

> <ROCS_FitTversky>
0.411 

> <ROCS_FitColorTversky>
0.712 

> <ROCS_FitTverskyCombo>
1.124 

> <ROCS_ColorScore>
-2.849

> <ROCS_Overlap>
139.318

> <ROCS_Rank>
486                 

$$$$
untitled-dbase-38148_0
  -OEChem-06232314393D

 13 13  0     0  0  0  0  0  0999 V2000
   -6.4670    3.6508  -36.8622 C   0  0  0  0  0  0  0  0  0  0  0  0
   -5.9742    4.7478  -37.5374 C   0  0  0  0  0  0  0  0  0  0  0  0
   -6.6752    5.1411  -35.2666 C   0  0  0  0  0  0  0  0  0  0  0  0
   -6.9869    5.7543  -33.9572 C   0  0  0  0  0  0  0  0  0  0  0  0
   -6.8691    3.8744  -35.5598 N   0  0  0  0  0  0  0  0  0  0  0  0
   -5.5157    4.7995  -38.8105 N   0  0  0  0  0  0  0  0  0  0  0  0
   -7.5098    4.8799  -33.0399 F   0  0  0  0  0  0  0  0  0  0  0  0
   -5.9027    6.3078  -33.3268 F   0  0  0  0  0  0  0  0  0  0  0  0
   -7.9035    6.7685  -34.0434 F   0  0  0  0  0  0  0  0  0  0  0  0
   -6.0129    6.1207  -36.5103 S   0  0  0  0  0  0  0  0  0  0  0  0
   -6.5554    2.6533  -37.2727 H   0  0  0  0  0  0  0  0  0  0  0  0
   -5.4531    3.9596  -39.4009 H   0  0  0  0  0  0  0  0  0  0  0  0
   -5.1221    5.6607  -39.2122 H   0  0  0  0  0  0  0  0  0  0  0  0
  1  2  2  0  0  0  0
  1  5  1  0  0  0  0
  2  6  1  0  0  0  0
  2 10  1  0  0  0  0
  3  4  1  0  0  0  0
  3  5  2  0  0  0  0
  3 10  1  0  0  0  0
  4  7  1  0  0  0  0
  4  8  1  0  0  0  0
  4  9  1  0  0  0  0
  1 11  1  0  0  0  0
  6 12  1  0  0  0  0
  6 13  1  0  0  0  0
M  END
> <id>
EN300-2009995

> <smiles>
Cl.NC1=CN=C(S1)C(F)(F)F

> <MDLNUMBER>
MFCD31690901

> <IUPAC Name>
2-(trifluoromethyl)-1,3-thiazol-5-amine hydrochloride

> <CAS>
2230804-25-6

> <Purity>
95

> <URL>
https://www.enaminestore.com/catalog/EN300-2009995

> <Saltdate>
Cl

> <ROCS_ShapeQuery>
_hit0

> <ROCS_TanimotoCombo>
0.988 

> <ROCS_ShapeTanimoto>
0.390 

> <ROCS_ColorTanimoto>
0.598 

> <ROCS_RefTversky>
1.212 

> <ROCS_RefColorTversky>
0.749 

> <ROCS_RefTverskyCombo>
1.960 

> <ROCS_FitTversky>
0.365 

> <ROCS_FitColorTversky>
0.749 

> <ROCS_FitTverskyCombo>
1.114 

> <ROCS_ColorScore>
-2.994

> <ROCS_Overlap>
150.833

> <ROCS_Rank>
487                 

$$$$
untitled-dbase-28046_0
  -OEChem-06232314393D

 13 13  0     0  0  0  0  0  0999 V2000
   -6.4670    3.6508  -36.8622 C   0  0  0  0  0  0  0  0  0  0  0  0
   -5.9742    4.7478  -37.5374 C   0  0  0  0  0  0  0  0  0  0  0  0
   -6.6752    5.1411  -35.2666 C   0  0  0  0  0  0  0  0  0  0  0  0
   -6.9869    5.7543  -33.9572 C   0  0  0  0  0  0  0  0  0  0  0  0
   -6.8691    3.8744  -35.5598 N   0  0  0  0  0  0  0  0  0  0  0  0
   -5.5157    4.7995  -38.8105 N   0  0  0  0  0  0  0  0  0  0  0  0
   -7.5098    4.8799  -33.0399 F   0  0  0  0  0  0  0  0  0  0  0  0
   -5.9027    6.3078  -33.3268 F   0  0  0  0  0  0  0  0  0  0  0  0
   -7.9035    6.7685  -34.0434 F   0  0  0  0  0  0  0  0  0  0  0  0
   -6.0129    6.1207  -36.5103 S   0  0  0  0  0  0  0  0  0  0  0  0
   -6.5554    2.6533  -37.2727 H   0  0  0  0  0  0  0  0  0  0  0  0
   -5.4531    3.9596  -39.4009 H   0  0  0  0  0  0  0  0  0  0  0  0
   -5.1221    5.6607  -39.2122 H   0  0  0  0  0  0  0  0  0  0  0  0
  1  2  2  0  0  0  0
  1  5  1  0  0  0  0
  2  6  1  0  0  0  0
  2 10  1  0  0  0  0
  3  4  1  0  0  0  0
  3  5  2  0  0  0  0
  3 10  1  0  0  0  0
  4  7  1  0  0  0  0
  4  8  1  0  0  0  0
  4  9  1  0  0  0  0
  1 11  1  0  0  0  0
  6 12  1  0  0  0  0
  6 13  1  0  0  0  0
M  END
> <id>
EN300-1601209

> <smiles>
NC1=CN=C(S1)C(F)(F)F

> <MDLNUMBER>
MFCD11847091

> <IUPAC Name>
2-(trifluoromethyl)-1,3-thiazol-5-amine

> <CAS>
1367944-72-6

> <URL>
https://www.enaminestore.com/catalog/EN300-1601209

> <ROCS_ShapeQuery>
_hit0

> <ROCS_TanimotoCombo>
0.988 

> <ROCS_ShapeTanimoto>
0.390 

> <ROCS_ColorTanimoto>
0.598 

> <ROCS_RefTversky>
1.212 

> <ROCS_RefColorTversky>
0.749 

> <ROCS_RefTverskyCombo>
1.960 

> <ROCS_FitTversky>
0.365 

> <ROCS_FitColorTversky>
0.749 

> <ROCS_FitTverskyCombo>
1.114 

> <ROCS_ColorScore>
-2.994

> <ROCS_Overlap>
150.833

> <ROCS_Rank>
488                 

$$$$
untitled-dbase-26087_0
  -OEChem-06232314393D

 12 12  0     0  0  0  0  0  0999 V2000
   -5.9564    6.1223  -36.8399 C   0  0  0  0  0  0  0  0  0  0  0  0
   -6.4179    3.7892  -36.8339 C   0  0  0  0  0  0  0  0  0  0  0  0
   -5.9569    4.9056  -37.5128 C   0  0  0  0  0  0  0  0  0  0  0  0
   -6.4106    6.1847  -35.5272 C   0  0  0  0  0  0  0  0  0  0  0  0
   -6.8515    5.0111  -34.9373 C   0  0  0  0  0  0  0  0  0  0  0  0
   -6.8668    3.8107  -35.5589 N   0  0  0  0  0  0  0  0  0  0  0  0
   -5.5198    4.8144  -38.7932 O   0  0  0  0  0  0  0  0  0  0  0  0
   -7.4423    4.9278  -33.3212 Cl  0  0  0  0  0  0  0  0  0  0  0  0
   -6.3968    7.8559  -34.6397 Br  0  0  0  0  0  0  0  0  0  0  0  0
   -5.5996    7.0140  -37.3499 H   0  0  0  0  0  0  0  0  0  0  0  0
   -6.4408    2.8139  -37.3098 H   0  0  0  0  0  0  0  0  0  0  0  0
   -5.2328    5.6845  -39.1188 H   0  0  0  0  0  0  0  0  0  0  0  0
  1  3  1  0  0  0  0
  1  4  2  0  0  0  0
  2  3  2  0  0  0  0
  2  6  1  0  0  0  0
  3  7  1  0  0  0  0
  4  5  1  0  0  0  0
  4  9  1  0  0  0  0
  5  6  2  0  0  0  0
  5  8  1  0  0  0  0
  1 10  1  0  0  0  0
  2 11  1  0  0  0  0
  7 12  1  0  0  0  0
M  END
> <id>
EN300-182962

> <smiles>
OC=1C=NC(Cl)=C(Br)C1

> <MDLNUMBER>
MFCD09835248

> <IUPAC Name>
5-bromo-6-chloropyridin-3-ol

> <CAS>
130115-85-4

> <Purity>
95

> <URL>
https://www.enaminestore.com/catalog/EN300-182962

> <ROCS_ShapeQuery>
_hit0

> <ROCS_TanimotoCombo>
0.988 

> <ROCS_ShapeTanimoto>
0.488 

> <ROCS_ColorTanimoto>
0.500 

> <ROCS_RefTversky>
1.294 

> <ROCS_RefColorTversky>
0.741 

> <ROCS_RefTverskyCombo>
2.035 

> <ROCS_FitTversky>
0.440 

> <ROCS_FitColorTversky>
0.606 

> <ROCS_FitTverskyCombo>
1.045 

> <ROCS_ColorScore>
-2.999

> <ROCS_Overlap>
157.397

> <ROCS_Rank>
489                 

$$$$
untitled-dbase-45787_0
  -OEChem-06232314393D

 10 10  0     0  0  0  0  0  0999 V2000
   -6.0444    5.8299  -36.5556 C   0  0  0  0  0  0  0  0  0  0  0  0
   -6.5944    5.1975  -35.4272 C   0  0  0  0  0  0  0  0  0  0  0  0
   -5.9657    4.8268  -37.4850 C   0  0  0  0  0  0  0  0  0  0  0  0
   -6.8381    3.9014  -35.6405 N   0  0  0  0  0  0  0  0  0  0  0  0
   -5.5269    4.7990  -38.7590 N   0  0  0  0  0  0  0  0  0  0  0  0
   -6.4364    3.6709  -36.9507 O   0  0  0  0  0  0  0  0  0  0  0  0
   -6.9461    6.0744  -33.8060 Br  0  0  0  0  0  0  0  0  0  0  0  0
   -5.7476    6.8613  -36.6803 H   0  0  0  0  0  0  0  0  0  0  0  0
   -5.1997    5.6472  -39.2472 H   0  0  0  0  0  0  0  0  0  0  0  0
   -5.5834    3.9494  -39.3421 H   0  0  0  0  0  0  0  0  0  0  0  0
  1  2  1  0  0  0  0
  1  3  2  0  0  0  0
  2  4  2  0  0  0  0
  2  7  1  0  0  0  0
  3  5  1  0  0  0  0
  3  6  1  0  0  0  0
  4  6  1  0  0  0  0
  1  8  1  0  0  0  0
  5  9  1  0  0  0  0
  5 10  1  0  0  0  0
M  END
> <id>
EN300-7185243

> <smiles>
NC1=CC(Br)=NO1

> <MDLNUMBER>
MFCD29112067

> <IUPAC Name>
3-bromo-1,2-oxazol-5-amine

> <CAS>
1446409-90-0

> <URL>
https://www.enaminestore.com/catalog/EN300-7185243

> <ROCS_ShapeQuery>
_hit0

> <ROCS_TanimotoCombo>
0.988 

> <ROCS_ShapeTanimoto>
0.495 

> <ROCS_ColorTanimoto>
0.494 

> <ROCS_RefTversky>
1.134 

> <ROCS_RefColorTversky>
0.734 

> <ROCS_RefTverskyCombo>
1.868 

> <ROCS_FitTversky>
0.467 

> <ROCS_FitColorTversky>
0.601 

> <ROCS_FitTverskyCombo>
1.068 

> <ROCS_ColorScore>
-2.974

> <ROCS_Overlap>
133.545

> <ROCS_Rank>
490                 

$$$$
untitled-dbase-2470_0
  -OEChem-06232314393D

 19 19  0     0  0  0  0  0  0999 V2000
   -6.3875    3.1932  -37.4742 C   0  0  0  0  0  0  0  0  0  0  0  0
   -6.8947    2.8720  -36.2254 C   0  0  0  0  0  0  0  0  0  0  0  0
   -6.0754    5.4371  -36.6668 C   0  0  0  0  0  0  0  0  0  0  0  0
   -5.9722    4.5023  -37.6909 C   0  0  0  0  0  0  0  0  0  0  0  0
   -6.5968    5.0155  -35.4543 C   0  0  0  0  0  0  0  0  0  0  0  0
   -5.6387    6.8502  -36.8667 C   0  0  0  0  0  0  0  0  0  0  0  0
   -6.7323    5.9746  -34.3169 C   0  0  0  0  0  0  0  0  0  0  0  0
   -7.0105    3.7526  -35.2062 N   0  0  0  0  0  0  0  0  0  0  0  0
   -5.4506    4.8619  -38.9523 N   0  0  0  0  0  0  0  0  0  0  0  0
   -6.3209    2.4389  -38.2511 H   0  0  0  0  0  0  0  0  0  0  0  0
   -7.2323    1.8645  -36.0054 H   0  0  0  0  0  0  0  0  0  0  0  0
   -6.4725    7.4576  -37.2383 H   0  0  0  0  0  0  0  0  0  0  0  0
   -5.2769    7.2907  -35.9291 H   0  0  0  0  0  0  0  0  0  0  0  0
   -4.8132    6.9127  -37.5873 H   0  0  0  0  0  0  0  0  0  0  0  0
   -7.7119    6.4649  -34.3486 H   0  0  0  0  0  0  0  0  0  0  0  0
   -6.6284    5.4624  -33.3525 H   0  0  0  0  0  0  0  0  0  0  0  0
   -5.9533    6.7460  -34.3545 H   0  0  0  0  0  0  0  0  0  0  0  0
   -5.1968    5.8138  -39.1207 H   0  0  0  0  0  0  0  0  0  0  0  0
   -5.4323    4.1807  -39.6834 H   0  0  0  0  0  0  0  0  0  0  0  0
  1  2  2  0  0  0  0
  1  4  1  0  0  0  0
  2  8  1  0  0  0  0
  3  4  2  0  0  0  0
  3  5  1  0  0  0  0
  3  6  1  0  0  0  0
  4  9  1  0  0  0  0
  5  7  1  0  0  0  0
  5  8  2  0  0  0  0
  1 10  1  0  0  0  0
  2 11  1  0  0  0  0
  6 12  1  0  0  0  0
  6 13  1  0  0  0  0
  6 14  1  0  0  0  0
  7 15  1  0  0  0  0
  7 16  1  0  0  0  0
  7 17  1  0  0  0  0
  9 18  1  0  0  0  0
  9 19  1  0  0  0  0
M  END
> <id>
EN300-110878

> <smiles>
CC=1N=CC=C(N)C1C

> <MDLNUMBER>
MFCD00030819

> <IUPAC Name>
2,3-dimethylpyridin-4-amine

> <CAS>
122475-57-4

> <Purity>
95

> <URL>
https://www.enaminestore.com/catalog/EN300-110878

> <MP>
125-130

> <ROCS_ShapeQuery>
_hit0

> <ROCS_TanimotoCombo>
0.988 

> <ROCS_ShapeTanimoto>
0.443 

> <ROCS_ColorTanimoto>
0.545 

> <ROCS_RefTversky>
1.247 

> <ROCS_RefColorTversky>
0.705 

> <ROCS_RefTverskyCombo>
1.952 

> <ROCS_FitTversky>
0.408 

> <ROCS_FitColorTversky>
0.705 

> <ROCS_FitTverskyCombo>
1.113 

> <ROCS_ColorScore>
-2.820

> <ROCS_Overlap>
152.648

> <ROCS_Rank>
491                 

$$$$
untitled-dbase-33054_0
  -OEChem-06232314393D

 13 13  0     0  0  0  0  0  0999 V2000
   -5.9708    6.1011  -36.8130 C   0  0  0  0  0  0  0  0  0  0  0  0
   -6.8673    4.9992  -34.9054 C   0  0  0  0  0  0  0  0  0  0  0  0
   -5.9724    4.8813  -37.4805 C   0  0  0  0  0  0  0  0  0  0  0  0
   -6.4252    6.1697  -35.5007 C   0  0  0  0  0  0  0  0  0  0  0  0
   -6.4346    3.7685  -36.7965 C   0  0  0  0  0  0  0  0  0  0  0  0
   -6.8837    3.7961  -35.5217 N   0  0  0  0  0  0  0  0  0  0  0  0
   -5.5109    4.8197  -38.8087 N   0  0  0  0  0  0  0  0  0  0  0  0
   -6.4386    7.6561  -34.6454 Cl  0  0  0  0  0  0  0  0  0  0  0  0
   -6.4723    2.0601  -37.6446 Br  0  0  0  0  0  0  0  0  0  0  0  0
   -5.6147    6.9968  -37.3171 H   0  0  0  0  0  0  0  0  0  0  0  0
   -7.2337    4.9864  -33.8835 H   0  0  0  0  0  0  0  0  0  0  0  0
   -5.2319    5.6631  -39.2709 H   0  0  0  0  0  0  0  0  0  0  0  0
   -5.5564    3.9506  -39.3040 H   0  0  0  0  0  0  0  0  0  0  0  0
  1  3  2  0  0  0  0
  1  4  1  0  0  0  0
  2  4  2  0  0  0  0
  2  6  1  0  0  0  0
  3  5  1  0  0  0  0
  3  7  1  0  0  0  0
  4  8  1  0  0  0  0
  5  6  2  0  0  0  0
  5  9  1  0  0  0  0
  1 10  1  0  0  0  0
  2 11  1  0  0  0  0
  7 12  1  0  0  0  0
  7 13  1  0  0  0  0
M  END
> <id>
EN300-208882

> <smiles>
NC=1C=C(Cl)C=NC1Br

> <MDLNUMBER>
MFCD07368976

> <IUPAC Name>
2-bromo-5-chloropyridin-3-amine

> <CAS>
90902-83-3

> <Purity>
95

> <URL>
https://www.enaminestore.com/catalog/EN300-208882

> <MP>
141-143

> <ROCS_ShapeQuery>
_hit0

> <ROCS_TanimotoCombo>
0.988 

> <ROCS_ShapeTanimoto>
0.488 

> <ROCS_ColorTanimoto>
0.500 

> <ROCS_RefTversky>
1.290 

> <ROCS_RefColorTversky>
0.741 

> <ROCS_RefTverskyCombo>
2.031 

> <ROCS_FitTversky>
0.440 

> <ROCS_FitColorTversky>
0.606 

> <ROCS_FitTverskyCombo>
1.046 

> <ROCS_ColorScore>
-2.999

> <ROCS_Overlap>
156.755

> <ROCS_Rank>
492                 

$$$$
untitled-dbase-18244_0
  -OEChem-06232314393D

 15 15  0     0  0  0  0  0  0999 V2000
   -6.8990    3.4516  -35.6183 C   0  0  0  0  0  0  0  0  0  0  0  0
   -6.4353    3.5533  -36.9299 C   0  0  0  0  0  0  0  0  0  0  0  0
   -6.9116    4.5766  -34.7938 C   0  0  0  0  0  0  0  0  0  0  0  0
   -5.9841    4.7801  -37.4169 C   0  0  0  0  0  0  0  0  0  0  0  0
   -6.4604    5.8033  -35.2808 C   0  0  0  0  0  0  0  0  0  0  0  0
   -5.9967    5.9051  -36.5923 C   0  0  0  0  0  0  0  0  0  0  0  0
   -5.5207    4.8484  -38.7505 N   0  0  0  0  0  0  0  0  0  0  0  0
   -6.4861    6.8836  -34.4493 O   0  0  0  0  0  0  0  0  0  0  0  0
   -5.4395    7.4348  -37.1844 Cl  0  0  0  0  0  0  0  0  0  0  0  0
   -7.2514    2.4966  -35.2397 H   0  0  0  0  0  0  0  0  0  0  0  0
   -6.4317    2.6696  -37.5629 H   0  0  0  0  0  0  0  0  0  0  0  0
   -7.2749    4.4898  -33.7736 H   0  0  0  0  0  0  0  0  0  0  0  0
   -5.4832    4.0118  -39.2942 H   0  0  0  0  0  0  0  0  0  0  0  0
   -5.1523    5.7114  -39.0919 H   0  0  0  0  0  0  0  0  0  0  0  0
   -6.1479    7.6673  -34.9094 H   0  0  0  0  0  0  0  0  0  0  0  0
  1  2  1  0  0  0  0
  1  3  2  0  0  0  0
  2  4  2  0  0  0  0
  3  5  1  0  0  0  0
  4  6  1  0  0  0  0
  4  7  1  0  0  0  0
  5  6  2  0  0  0  0
  5  8  1  0  0  0  0
  6  9  1  0  0  0  0
  1 10  1  0  0  0  0
  2 11  1  0  0  0  0
  3 12  1  0  0  0  0
  7 13  1  0  0  0  0
  7 14  1  0  0  0  0
  8 15  1  0  0  0  0
M  END
> <id>
EN300-195771

> <smiles>
NC=1C=CC=C(O)C1Cl

> <MDLNUMBER>
MFCD11044694

> <IUPAC Name>
3-amino-2-chlorophenol

> <CAS>
56962-01-7

> <Purity>
95

> <URL>
https://www.enaminestore.com/catalog/EN300-195771

> <MP>
108-110

> <ROCS_ShapeQuery>
_hit0

> <ROCS_TanimotoCombo>
0.988 

> <ROCS_ShapeTanimoto>
0.493 

> <ROCS_ColorTanimoto>
0.494 

> <ROCS_RefTversky>
1.323 

> <ROCS_RefColorTversky>
0.735 

> <ROCS_RefTverskyCombo>
2.058 

> <ROCS_FitTversky>
0.440 

> <ROCS_FitColorTversky>
0.602 

> <ROCS_FitTverskyCombo>
1.042 

> <ROCS_ColorScore>
-2.978

> <ROCS_Overlap>
161.468

> <ROCS_Rank>
493                 

$$$$
untitled-dbase-28595_0
  -OEChem-06232314393D

 12 12  0     0  0  0  0  0  0999 V2000
   -6.0217    5.8882  -36.7145 C   0  0  0  0  0  0  0  0  0  0  0  0
   -6.4144    3.5685  -36.9851 C   0  0  0  0  0  0  0  0  0  0  0  0
   -5.9749    4.7632  -37.5190 C   0  0  0  0  0  0  0  0  0  0  0  0
   -6.5052    5.7440  -35.4296 C   0  0  0  0  0  0  0  0  0  0  0  0
   -6.8827    3.4566  -35.7240 N   0  0  0  0  0  0  0  0  0  0  0  0
   -6.9290    4.5624  -34.9336 N   0  0  0  0  0  0  0  0  0  0  0  0
   -5.4953    4.8345  -38.8370 N   0  0  0  0  0  0  0  0  0  0  0  0
   -6.5863    7.2604  -34.2949 Br  0  0  0  0  0  0  0  0  0  0  0  0
   -5.6868    6.8504  -37.0900 H   0  0  0  0  0  0  0  0  0  0  0  0
   -6.4068    2.6468  -37.5567 H   0  0  0  0  0  0  0  0  0  0  0  0
   -5.2258    5.7226  -39.2172 H   0  0  0  0  0  0  0  0  0  0  0  0
   -5.5156    4.0149  -39.4147 H   0  0  0  0  0  0  0  0  0  0  0  0
  1  3  1  0  0  0  0
  1  4  2  0  0  0  0
  2  3  2  0  0  0  0
  2  5  1  0  0  0  0
  3  7  1  0  0  0  0
  4  6  1  0  0  0  0
  4  8  1  0  0  0  0
  5  6  2  0  0  0  0
  1  9  1  0  0  0  0
  2 10  1  0  0  0  0
  7 11  1  0  0  0  0
  7 12  1  0  0  0  0
M  END
> <id>
EN300-226594

> <smiles>
NC=1C=NN=C(Br)C1

> <MDLNUMBER>
MFCD20257795

> <IUPAC Name>
6-bromopyridazin-4-amine

> <CAS>
1379294-26-4

> <Purity>
95

> <URL>
https://www.enaminestore.com/catalog/EN300-226594

> <ROCS_ShapeQuery>
_hit0

> <ROCS_TanimotoCombo>
0.988 

> <ROCS_ShapeTanimoto>
0.529 

> <ROCS_ColorTanimoto>
0.458 

> <ROCS_RefTversky>
1.282 

> <ROCS_RefColorTversky>
0.788 

> <ROCS_RefTverskyCombo>
2.070 

> <ROCS_FitTversky>
0.474 

> <ROCS_FitColorTversky>
0.523 

> <ROCS_FitTverskyCombo>
0.997 

> <ROCS_ColorScore>
-3.241

> <ROCS_Overlap>
153.580

> <ROCS_Rank>
494                 

$$$$
untitled-dbase-43243_0
  -OEChem-06232314393D

 10 10  0     0  0  0  0  0  0999 V2000
   -6.4814    3.6677  -36.8292 C   0  0  0  0  0  0  0  0  0  0  0  0
   -5.9589    4.8114  -37.4982 C   0  0  0  0  0  0  0  0  0  0  0  0
   -5.9682    5.8996  -36.6529 C   0  0  0  0  0  0  0  0  0  0  0  0
   -6.8714    3.8258  -35.5667 N   0  0  0  0  0  0  0  0  0  0  0  0
   -5.5223    4.8098  -38.7784 N   0  0  0  0  0  0  0  0  0  0  0  0
   -6.6095    5.4110  -35.1416 S   0  0  0  0  0  0  0  0  0  0  0  0
   -5.3835    7.6578  -37.0432 Br  0  0  0  0  0  0  0  0  0  0  0  0
   -6.5902    2.6789  -37.2550 H   0  0  0  0  0  0  0  0  0  0  0  0
   -5.4976    3.9511  -39.3455 H   0  0  0  0  0  0  0  0  0  0  0  0
   -5.1070    5.6449  -39.2141 H   0  0  0  0  0  0  0  0  0  0  0  0
  1  2  1  0  0  0  0
  1  4  2  0  0  0  0
  2  3  2  0  0  0  0
  2  5  1  0  0  0  0
  3  6  1  0  0  0  0
  3  7  1  0  0  0  0
  4  6  1  0  0  0  0
  1  8  1  0  0  0  0
  5  9  1  0  0  0  0
  5 10  1  0  0  0  0
M  END
> <id>
EN300-28220970

> <smiles>
Cl.NC=1C=NSC1Br

> <MDLNUMBER>
MFCD33549230

> <IUPAC Name>
5-bromo-1,2-thiazol-4-amine hydrochloride

> <CAS>
2639464-36-9

> <Purity>
95

> <URL>
https://www.enaminestore.com/catalog/EN300-28220970

> <Saltdate>
Cl

> <ROCS_ShapeQuery>
_hit0

> <ROCS_TanimotoCombo>
0.988 

> <ROCS_ShapeTanimoto>
0.488 

> <ROCS_ColorTanimoto>
0.499 

> <ROCS_RefTversky>
1.072 

> <ROCS_RefColorTversky>
0.740 

> <ROCS_RefTverskyCombo>
1.812 

> <ROCS_FitTversky>
0.473 

> <ROCS_FitColorTversky>
0.606 

> <ROCS_FitTverskyCombo>
1.078 

> <ROCS_ColorScore>
-2.997

> <ROCS_Overlap>
125.074

> <ROCS_Rank>
495                 

$$$$
untitled-dbase-33366_0
  -OEChem-06232314393D

 10 10  0     0  0  0  0  0  0999 V2000
   -6.4814    3.6677  -36.8292 C   0  0  0  0  0  0  0  0  0  0  0  0
   -5.9589    4.8114  -37.4982 C   0  0  0  0  0  0  0  0  0  0  0  0
   -5.9682    5.8996  -36.6529 C   0  0  0  0  0  0  0  0  0  0  0  0
   -6.8714    3.8258  -35.5667 N   0  0  0  0  0  0  0  0  0  0  0  0
   -5.5223    4.8098  -38.7784 N   0  0  0  0  0  0  0  0  0  0  0  0
   -6.6095    5.4110  -35.1416 S   0  0  0  0  0  0  0  0  0  0  0  0
   -5.3835    7.6578  -37.0432 Br  0  0  0  0  0  0  0  0  0  0  0  0
   -6.5902    2.6789  -37.2550 H   0  0  0  0  0  0  0  0  0  0  0  0
   -5.4976    3.9511  -39.3455 H   0  0  0  0  0  0  0  0  0  0  0  0
   -5.1070    5.6449  -39.2141 H   0  0  0  0  0  0  0  0  0  0  0  0
  1  2  1  0  0  0  0
  1  4  2  0  0  0  0
  2  3  2  0  0  0  0
  2  5  1  0  0  0  0
  3  6  1  0  0  0  0
  3  7  1  0  0  0  0
  4  6  1  0  0  0  0
  1  8  1  0  0  0  0
  5  9  1  0  0  0  0
  5 10  1  0  0  0  0
M  END
> <id>
EN300-269229

> <smiles>
NC=1C=NSC1Br

> <MDLNUMBER>
MFCD30180429

> <IUPAC Name>
5-bromo-1,2-thiazol-4-amine

> <CAS>
1955548-81-8

> <Purity>
95

> <URL>
https://www.enaminestore.com/catalog/EN300-269229

> <ROCS_ShapeQuery>
_hit0

> <ROCS_TanimotoCombo>
0.988 

> <ROCS_ShapeTanimoto>
0.488 

> <ROCS_ColorTanimoto>
0.499 

> <ROCS_RefTversky>
1.072 

> <ROCS_RefColorTversky>
0.740 

> <ROCS_RefTverskyCombo>
1.812 

> <ROCS_FitTversky>
0.473 

> <ROCS_FitColorTversky>
0.606 

> <ROCS_FitTverskyCombo>
1.078 

> <ROCS_ColorScore>
-2.997

> <ROCS_Overlap>
125.074

> <ROCS_Rank>
496                 

$$$$
untitled-dbase-17131_0
  -OEChem-06232314393D

 16 16  0     0  0  0  0  0  0999 V2000
   -6.9261    3.4086  -35.6386 C   0  0  0  0  0  0  0  0  0  0  0  0
   -6.4590    3.5143  -36.9486 C   0  0  0  0  0  0  0  0  0  0  0  0
   -6.9315    4.5288  -34.8075 C   0  0  0  0  0  0  0  0  0  0  0  0
   -5.9972    4.7403  -37.4276 C   0  0  0  0  0  0  0  0  0  0  0  0
   -6.4697    5.7548  -35.2864 C   0  0  0  0  0  0  0  0  0  0  0  0
   -6.0026    5.8606  -36.5965 C   0  0  0  0  0  0  0  0  0  0  0  0
   -5.5246    4.8432  -38.7526 N   0  0  0  0  0  0  0  0  0  0  0  0
   -6.4742    6.8853  -34.4428 N   0  0  0  0  0  0  0  0  0  0  0  0
   -5.5574    7.0398  -37.0566 F   0  0  0  0  0  0  0  0  0  0  0  0
   -7.2853    2.4536  -35.2656 H   0  0  0  0  0  0  0  0  0  0  0  0
   -6.4591    2.6352  -37.5879 H   0  0  0  0  0  0  0  0  0  0  0  0
   -7.2964    4.4346  -33.7878 H   0  0  0  0  0  0  0  0  0  0  0  0
   -5.2401    5.7362  -39.1010 H   0  0  0  0  0  0  0  0  0  0  0  0
   -5.5704    4.0427  -39.3500 H   0  0  0  0  0  0  0  0  0  0  0  0
   -6.8540    6.8047  -33.5214 H   0  0  0  0  0  0  0  0  0  0  0  0
   -6.1853    7.7691  -34.8106 H   0  0  0  0  0  0  0  0  0  0  0  0
  1  2  1  0  0  0  0
  1  3  2  0  0  0  0
  2  4  2  0  0  0  0
  3  5  1  0  0  0  0
  4  6  1  0  0  0  0
  4  7  1  0  0  0  0
  5  6  2  0  0  0  0
  5  8  1  0  0  0  0
  6  9  1  0  0  0  0
  1 10  1  0  0  0  0
  2 11  1  0  0  0  0
  3 12  1  0  0  0  0
  7 13  1  0  0  0  0
  7 14  1  0  0  0  0
  8 15  1  0  0  0  0
  8 16  1  0  0  0  0
M  END
> <id>
EN300-1228712

> <smiles>
NC=1C=CC=C(N)C1F

> <MDLNUMBER>
MFCD19204042

> <IUPAC Name>
2-fluorobenzene-1,3-diamine

> <CAS>
52033-96-2

> <Purity>
95

> <URL>
https://www.enaminestore.com/catalog/EN300-1228712

> <MP>
55-56

> <ROCS_ShapeQuery>
_hit0

> <ROCS_TanimotoCombo>
0.987 

> <ROCS_ShapeTanimoto>
0.493 

> <ROCS_ColorTanimoto>
0.495 

> <ROCS_RefTversky>
1.347 

> <ROCS_RefColorTversky>
0.736 

> <ROCS_RefTverskyCombo>
2.082 

> <ROCS_FitTversky>
0.437 

> <ROCS_FitColorTversky>
0.602 

> <ROCS_FitTverskyCombo>
1.039 

> <ROCS_ColorScore>
-2.980

> <ROCS_Overlap>
165.121

> <ROCS_Rank>
497                 

$$$$
untitled-dbase-31863_3
  -OEChem-06232314393D

 17 17  0     1  0  0  0  0  0999 V2000
   -5.8991    4.7748  -35.1642 C   0  0  0  0  0  0  0  0  0  0  0  0
   -6.7217    3.6142  -37.0108 C   0  0  0  0  0  0  0  0  0  0  0  0
   -5.4021    5.4905  -36.4113 C   0  0  1  0  0  0  0  0  0  0  0  0
   -5.4719    4.3644  -37.4285 C   0  0  2  0  0  0  0  0  0  0  0  0
   -6.2824    6.6919  -36.7603 C   0  0  0  0  0  0  0  0  0  0  0  0
   -6.8686    3.8072  -35.5975 O   0  0  0  0  0  0  0  0  0  0  0  0
   -5.5371    4.8132  -38.7646 O   0  0  0  0  0  0  0  0  0  0  0  0
   -5.8609    7.2664  -37.9007 F   0  0  0  0  0  0  0  0  0  0  0  0
   -7.5600    6.3054  -36.9233 F   0  0  0  0  0  0  0  0  0  0  0  0
   -6.2353    7.6085  -35.7774 F   0  0  0  0  0  0  0  0  0  0  0  0
   -5.0923    4.2633  -34.6277 H   0  0  0  0  0  0  0  0  0  0  0  0
   -6.3993    5.4555  -34.4642 H   0  0  0  0  0  0  0  0  0  0  0  0
   -7.6289    3.9674  -37.5122 H   0  0  0  0  0  0  0  0  0  0  0  0
   -6.6123    2.5371  -37.1819 H   0  0  0  0  0  0  0  0  0  0  0  0
   -4.3893    5.7995  -36.2823 H   0  0  0  0  0  0  0  0  0  0  0  0
   -4.5647    3.6884  -37.3560 H   0  0  0  0  0  0  0  0  0  0  0  0
   -5.6415    4.0235  -39.3188 H   0  0  0  0  0  0  0  0  0  0  0  0
  1  3  1  0  0  0  0
  1  6  1  0  0  0  0
  2  4  1  0  0  0  0
  2  6  1  0  0  0  0
  3  4  1  0  0  0  0
  3  5  1  0  0  0  0
  4  7  1  0  0  0  0
  5  8  1  0  0  0  0
  5  9  1  0  0  0  0
  5 10  1  0  0  0  0
  1 11  1  0  0  0  0
  1 12  1  0  0  0  0
  2 13  1  0  0  0  0
  2 14  1  0  0  0  0
  3 15  1  0  0  0  0
  4 16  1  0  0  0  0
  7 17  1  0  0  0  0
M  END
> <id>
EN300-1625017

> <smiles>
OC1COCC1C(F)(F)F

> <IUPAC Name>
4-(trifluoromethyl)oxolan-3-ol

> <CAS>
2171978-95-1

> <URL>
https://www.enaminestore.com/catalog/EN300-1625017

> <ROCS_ShapeQuery>
_hit0

> <ROCS_TanimotoCombo>
0.987 

> <ROCS_ShapeTanimoto>
0.389 

> <ROCS_ColorTanimoto>
0.598 

> <ROCS_RefTversky>
1.232 

> <ROCS_RefColorTversky>
0.748 

> <ROCS_RefTverskyCombo>
1.980 

> <ROCS_FitTversky>
0.363 

> <ROCS_FitColorTversky>
0.748 

> <ROCS_FitTverskyCombo>
1.111 

> <ROCS_ColorScore>
-2.993

> <ROCS_Overlap>
154.161

> <ROCS_Rank>
498                 

$$$$
untitled-dbase-7_0
  -OEChem-06232314393D

 12 12  0     0  0  0  0  0  0999 V2000
   -6.5218    5.2403  -35.4901 C   0  0  0  0  0  0  0  0  0  0  0  0
   -6.0273    4.6289  -37.4389 C   0  0  0  0  0  0  0  0  0  0  0  0
   -6.6536    6.1792  -34.3693 C   0  0  0  0  0  0  0  0  0  0  0  0
   -6.8370    3.9680  -35.5586 N   0  0  0  0  0  0  0  0  0  0  0  0
   -6.5115    3.5658  -36.8405 N   0  0  0  0  0  0  0  0  0  0  0  0
   -5.5591    4.7788  -38.6969 N   0  0  0  0  0  0  0  0  0  0  0  0
   -6.0004    5.7350  -36.6461 O   0  0  0  0  0  0  0  0  0  0  0  0
   -5.7461    6.1874  -33.7385 H   0  0  0  0  0  0  0  0  0  0  0  0
   -6.8275    7.2182  -34.7077 H   0  0  0  0  0  0  0  0  0  0  0  0
   -7.5087    5.9333  -33.7114 H   0  0  0  0  0  0  0  0  0  0  0  0
   -5.4918    3.9880  -39.3540 H   0  0  0  0  0  0  0  0  0  0  0  0
   -5.1592    5.6683  -39.0297 H   0  0  0  0  0  0  0  0  0  0  0  0
  1  3  1  0  0  0  0
  1  4  2  0  0  0  0
  1  7  1  0  0  0  0
  2  5  2  0  0  0  0
  2  6  1  0  0  0  0
  2  7  1  0  0  0  0
  4  5  1  0  0  0  0
  3  8  1  0  0  0  0
  3  9  1  0  0  0  0
  3 10  1  0  0  0  0
  6 11  1  0  0  0  0
  6 12  1  0  0  0  0
M  END
> <id>
EN300-07654

> <smiles>
CC1=NN=C(N)O1

> <MDLNUMBER>
MFCD03703470

> <IUPAC Name>
5-methyl-1,3,4-oxadiazol-2-amine

> <CAS>
52838-39-8

> <Purity>
95

> <URL>
https://www.enaminestore.com/catalog/EN300-07654

> <MP>
185-186

> <ROCS_ShapeQuery>
_hit0

> <ROCS_TanimotoCombo>
0.987 

> <ROCS_ShapeTanimoto>
0.488 

> <ROCS_ColorTanimoto>
0.499 

> <ROCS_RefTversky>
1.162 

> <ROCS_RefColorTversky>
0.762 

> <ROCS_RefTverskyCombo>
1.924 

> <ROCS_FitTversky>
0.457 

> <ROCS_FitColorTversky>
0.591 

> <ROCS_FitTverskyCombo>
1.048 

> <ROCS_ColorScore>
-3.096

> <ROCS_Overlap>
137.829

> <ROCS_Rank>
499                 

$$$$
untitled-dbase-5326_0
  -OEChem-06232314393D

 20 20  0     1  0  0  0  0  0999 V2000
   -6.6886    4.5832  -36.1062 C   0  0  0  0  0  0  0  0  0  0  0  0
   -7.3759    4.7648  -37.4396 C   0  0  0  0  0  0  0  0  0  0  0  0
   -6.4153    5.6623  -38.2174 C   0  0  1  0  0  0  0  0  0  0  0  0
   -5.6936    6.4772  -37.1445 C   0  0  1  0  0  0  0  0  0  0  0  0
   -6.4131    7.7901  -36.8512 C   0  0  0  0  0  0  0  0  0  0  0  0
   -4.8605    5.7785  -34.8510 C   0  0  0  0  0  0  0  0  0  0  0  0
   -5.7274    5.5851  -35.9959 N   0  0  0  0  0  0  0  0  0  0  0  0
   -6.9789    3.7216  -35.2893 O   0  0  0  0  0  0  0  0  0  0  0  0
   -5.4815    4.8351  -38.9076 O   0  0  0  0  0  0  0  0  0  0  0  0
   -7.5280    3.7934  -37.9178 H   0  0  0  0  0  0  0  0  0  0  0  0
   -8.3347    5.2616  -37.2617 H   0  0  0  0  0  0  0  0  0  0  0  0
   -6.9409    6.2705  -38.9601 H   0  0  0  0  0  0  0  0  0  0  0  0
   -4.6478    6.6643  -37.4132 H   0  0  0  0  0  0  0  0  0  0  0  0
   -7.4509    7.5928  -36.5854 H   0  0  0  0  0  0  0  0  0  0  0  0
   -6.3875    8.4315  -37.7313 H   0  0  0  0  0  0  0  0  0  0  0  0
   -5.9255    8.3032  -36.0231 H   0  0  0  0  0  0  0  0  0  0  0  0
   -3.9360    5.1984  -34.9883 H   0  0  0  0  0  0  0  0  0  0  0  0
   -4.6126    6.8459  -34.7551 H   0  0  0  0  0  0  0  0  0  0  0  0
   -5.3748    5.4382  -33.9402 H   0  0  0  0  0  0  0  0  0  0  0  0
   -4.8883    5.4318  -39.3896 H   0  0  0  0  0  0  0  0  0  0  0  0
  1  2  1  0  0  0  0
  1  7  1  0  0  0  0
  1  8  2  0  0  0  0
  2  3  1  0  0  0  0
  3  4  1  0  0  0  0
  3  9  1  0  0  0  0
  4  5  1  0  0  0  0
  4  7  1  0  0  0  0
  6  7  1  0  0  0  0
  2 10  1  0  0  0  0
  2 11  1  0  0  0  0
  3 12  1  0  0  0  0
  4 13  1  0  0  0  0
  5 14  1  0  0  0  0
  5 15  1  0  0  0  0
  5 16  1  0  0  0  0
  6 17  1  0  0  0  0
  6 18  1  0  0  0  0
  6 19  1  0  0  0  0
  9 20  1  0  0  0  0
M  END
> <id>
EN300-212248

> <smiles>
CC1C(O)CC(=O)N1C

> <MDLNUMBER>
MFCD28505881

> <IUPAC Name>
4-hydroxy-1,5-dimethylpyrrolidin-2-one

> <CAS>
1803604-23-0

> <Purity>
95

> <URL>
https://www.enaminestore.com/catalog/EN300-212248

> <ROCS_ShapeQuery>
_hit0

> <ROCS_TanimotoCombo>
0.987 

> <ROCS_ShapeTanimoto>
0.418 

> <ROCS_ColorTanimoto>
0.568 

> <ROCS_RefTversky>
1.183 

> <ROCS_RefColorTversky>
0.725 

> <ROCS_RefTverskyCombo>
1.908 

> <ROCS_FitTversky>
0.393 

> <ROCS_FitColorTversky>
0.725 

> <ROCS_FitTverskyCombo>
1.118 

> <ROCS_ColorScore>
-2.899

> <ROCS_Overlap>
144.442

> <ROCS_Rank>
500                 

$$$$
