untitled-dbase-663_26
  -OEChem-06052310023D

 26 26  0     1  0  0  0  0  0999 V2000
   -5.1202   11.3720  -31.8764 C   0  0  0  0  0  0  0  0  0  0  0  0
   -4.4323   12.3034  -29.7559 C   0  0  0  0  0  0  0  0  0  0  0  0
   -6.1053   10.6262  -31.2292 C   0  0  0  0  0  0  0  0  0  0  0  0
   -6.2539   10.7189  -29.8454 C   0  0  0  0  0  0  0  0  0  0  0  0
   -4.2837   12.2106  -31.1397 C   0  0  0  0  0  0  0  0  0  0  0  0
   -5.4174   11.5575  -29.1087 C   0  0  0  0  0  0  0  0  0  0  0  0
   -7.6106    8.6309  -35.0093 C   0  0  0  0  0  0  0  0  0  0  0  0
   -6.9988    9.7259  -32.0447 C   0  0  0  0  0  0  0  0  0  0  0  0
   -6.2347    8.7035  -32.8984 C   0  0  0  0  0  0  0  0  0  0  0  0
   -7.1329    7.8432  -33.7959 C   0  0  2  0  0  0  0  0  0  0  0  0
   -7.2223    9.9827  -29.2267 O   0  0  0  0  0  0  0  0  0  0  0  0
   -6.3985    6.7079  -34.2442 O   0  0  0  0  0  0  0  0  0  0  0  0
   -3.0681   13.1307  -31.9388 Cl  0  0  0  0  0  0  0  0  0  0  0  0
   -5.5884   11.7103  -27.2266 Br  0  0  0  0  0  0  0  0  0  0  0  0
   -5.0079   11.2972  -32.9560 H   0  0  0  0  0  0  0  0  0  0  0  0
   -3.7776   12.9582  -29.1851 H   0  0  0  0  0  0  0  0  0  0  0  0
   -6.7626    9.0044  -35.5938 H   0  0  0  0  0  0  0  0  0  0  0  0
   -8.2427    8.0170  -35.6580 H   0  0  0  0  0  0  0  0  0  0  0  0
   -8.1853    9.5084  -34.6939 H   0  0  0  0  0  0  0  0  0  0  0  0
   -7.7156    9.2121  -31.3922 H   0  0  0  0  0  0  0  0  0  0  0  0
   -7.6066   10.3574  -32.7058 H   0  0  0  0  0  0  0  0  0  0  0  0
   -5.6285    8.0544  -32.2547 H   0  0  0  0  0  0  0  0  0  0  0  0
   -5.5380    9.2678  -33.5322 H   0  0  0  0  0  0  0  0  0  0  0  0
   -8.0028    7.4850  -33.2350 H   0  0  0  0  0  0  0  0  0  0  0  0
   -7.2071   10.1483  -28.2719 H   0  0  0  0  0  0  0  0  0  0  0  0
   -7.0063    6.1815  -34.7866 H   0  0  0  0  0  0  0  0  0  0  0  0
  1  3  2  0  0  0  0
  1  5  1  0  0  0  0
  2  5  2  0  0  0  0
  2  6  1  0  0  0  0
  3  4  1  0  0  0  0
  3  8  1  0  0  0  0
  4  6  2  0  0  0  0
  4 11  1  0  0  0  0
  5 13  1  0  0  0  0
  6 14  1  0  0  0  0
  7 10  1  1  0  0  0
  8  9  1  0  0  0  0
  9 10  1  0  0  0  0
 10 12  1  0  0  0  0
  1 15  1  0  0  0  0
  2 16  1  0  0  0  0
  7 17  1  0  0  0  0
  7 18  1  0  0  0  0
  7 19  1  0  0  0  0
  8 20  1  0  0  0  0
  8 21  1  0  0  0  0
  9 22  1  0  0  0  0
  9 23  1  0  0  0  0
 10 24  1  0  0  0  0
 11 25  1  0  0  0  0
 12 26  1  0  0  0  0
M  END
> <id>
EN300-1922586

> <smiles>
C[C@@H](O)CCC=1C=C(Cl)C=C(Br)C1O

> <IUPAC Name>
2-bromo-4-chloro-6-[(3R)-3-hydroxybutyl]phenol

> <CAS>
2227695-21-6

> <URL>
https://www.enaminestore.com/catalog/EN300-1922586

> <ROCS_ShapeQuery>
_x1604L0AP1_x0771L0AP1

> <ROCS_TanimotoCombo>
1.108 

> <ROCS_ShapeTanimoto>
0.562 

> <ROCS_ColorTanimoto>
0.546 

> <ROCS_RefTversky>
0.495 

> <ROCS_RefColorTversky>
0.582 

> <ROCS_RefTverskyCombo>
1.078 

> <ROCS_FitTversky>
1.318 

> <ROCS_FitColorTversky>
0.896 

> <ROCS_FitTverskyCombo>
2.214 

> <ROCS_ColorScore>
-5.542

> <ROCS_Overlap>
830.227

> <ROCS_Rank>
1                   

$$$$
untitled-dbase-224_63
  -OEChem-06052310023D

 23 23  0     0  0  0  0  0  0999 V2000
   -5.1625   10.9085  -31.9688 C   0  0  0  0  0  0  0  0  0  0  0  0
   -4.5190   12.3129  -30.1112 C   0  0  0  0  0  0  0  0  0  0  0  0
   -6.1299   10.2971  -31.1715 C   0  0  0  0  0  0  0  0  0  0  0  0
   -6.2920   10.6936  -29.8440 C   0  0  0  0  0  0  0  0  0  0  0  0
   -4.3569   11.9163  -31.4387 C   0  0  0  0  0  0  0  0  0  0  0  0
   -5.4865   11.7015  -29.3138 C   0  0  0  0  0  0  0  0  0  0  0  0
   -6.9817    9.2201  -31.7590 C   0  0  0  0  0  0  0  0  0  0  0  0
   -6.2320    8.4108  -32.8251 C   0  0  0  0  0  0  0  0  0  0  0  0
   -7.1138    7.3445  -33.4599 C   0  0  0  0  0  0  0  0  0  0  0  0
   -7.2429   10.0857  -29.0766 O   0  0  0  0  0  0  0  0  0  0  0  0
   -6.3502    6.6296  -34.4214 O   0  0  0  0  0  0  0  0  0  0  0  0
   -3.1630   12.6703  -32.4230 Cl  0  0  0  0  0  0  0  0  0  0  0  0
   -5.6765   12.2677  -27.5144 Br  0  0  0  0  0  0  0  0  0  0  0  0
   -5.0395   10.5966  -33.0039 H   0  0  0  0  0  0  0  0  0  0  0  0
   -3.8884   13.0989  -29.7015 H   0  0  0  0  0  0  0  0  0  0  0  0
   -7.8928    9.6507  -32.2064 H   0  0  0  0  0  0  0  0  0  0  0  0
   -7.3367    8.5367  -30.9698 H   0  0  0  0  0  0  0  0  0  0  0  0
   -5.3449    7.9344  -32.3873 H   0  0  0  0  0  0  0  0  0  0  0  0
   -5.8480    9.0776  -33.6084 H   0  0  0  0  0  0  0  0  0  0  0  0
   -7.4751    6.6370  -32.7066 H   0  0  0  0  0  0  0  0  0  0  0  0
   -7.9728    7.7980  -33.9647 H   0  0  0  0  0  0  0  0  0  0  0  0
   -7.2399   10.4619  -28.1834 H   0  0  0  0  0  0  0  0  0  0  0  0
   -6.9391    5.9602  -34.8060 H   0  0  0  0  0  0  0  0  0  0  0  0
  1  3  2  0  0  0  0
  1  5  1  0  0  0  0
  2  5  2  0  0  0  0
  2  6  1  0  0  0  0
  3  4  1  0  0  0  0
  3  7  1  0  0  0  0
  4  6  2  0  0  0  0
  4 10  1  0  0  0  0
  5 12  1  0  0  0  0
  6 13  1  0  0  0  0
  7  8  1  0  0  0  0
  8  9  1  0  0  0  0
  9 11  1  0  0  0  0
  1 14  1  0  0  0  0
  2 15  1  0  0  0  0
  7 16  1  0  0  0  0
  7 17  1  0  0  0  0
  8 18  1  0  0  0  0
  8 19  1  0  0  0  0
  9 20  1  0  0  0  0
  9 21  1  0  0  0  0
 10 22  1  0  0  0  0
 11 23  1  0  0  0  0
M  END
> <id>
EN300-1913192

> <smiles>
OCCCC=1C=C(Cl)C=C(Br)C1O

> <MDLNUMBER>
MFCD09926808

> <IUPAC Name>
2-bromo-4-chloro-6-(3-hydroxypropyl)phenol

> <CAS>
1000536-63-9

> <URL>
https://www.enaminestore.com/catalog/EN300-1913192

> <ROCS_ShapeQuery>
_x1604L0AP1_x0771L0AP1

> <ROCS_TanimotoCombo>
1.103 

> <ROCS_ShapeTanimoto>
0.521 

> <ROCS_ColorTanimoto>
0.582 

> <ROCS_RefTversky>
0.463 

> <ROCS_RefColorTversky>
0.607 

> <ROCS_RefTverskyCombo>
1.070 

> <ROCS_FitTversky>
1.317 

> <ROCS_FitColorTversky>
0.933 

> <ROCS_FitTverskyCombo>
2.251 

> <ROCS_ColorScore>
-5.773

> <ROCS_Overlap>
775.311

> <ROCS_Rank>
2                   

$$$$
untitled-dbase-959_23
  -OEChem-06052310023D

 26 26  0     1  0  0  0  0  0999 V2000
   -5.1567   11.2226  -31.9248 C   0  0  0  0  0  0  0  0  0  0  0  0
   -4.4469   12.3013  -29.8828 C   0  0  0  0  0  0  0  0  0  0  0  0
   -6.1343   10.5243  -31.2162 C   0  0  0  0  0  0  0  0  0  0  0  0
   -6.2683   10.7145  -29.8408 C   0  0  0  0  0  0  0  0  0  0  0  0
   -4.3129   12.1111  -31.2581 C   0  0  0  0  0  0  0  0  0  0  0  0
   -5.4246   11.6030  -29.1741 C   0  0  0  0  0  0  0  0  0  0  0  0
   -8.1123    6.7591  -32.6678 C   0  0  0  0  0  0  0  0  0  0  0  0
   -7.0358    9.5688  -31.9566 C   0  0  0  0  0  0  0  0  0  0  0  0
   -6.2801    8.4886  -32.7441 C   0  0  0  0  0  0  0  0  0  0  0  0
   -7.1873    7.5672  -33.5690 C   0  0  1  0  0  0  0  0  0  0  0  0
   -7.2296   10.0239  -29.1615 O   0  0  0  0  0  0  0  0  0  0  0  0
   -6.3806    6.6686  -34.3246 O   0  0  0  0  0  0  0  0  0  0  0  0
   -3.1065   12.9723  -32.1331 Cl  0  0  0  0  0  0  0  0  0  0  0  0
   -5.5756   11.8882  -27.3058 Br  0  0  0  0  0  0  0  0  0  0  0  0
   -5.0558   11.0718  -32.9976 H   0  0  0  0  0  0  0  0  0  0  0  0
   -3.7866   12.9947  -29.3666 H   0  0  0  0  0  0  0  0  0  0  0  0
   -7.5385    6.1598  -31.9523 H   0  0  0  0  0  0  0  0  0  0  0  0
   -8.7961    7.4097  -32.1142 H   0  0  0  0  0  0  0  0  0  0  0  0
   -8.7063    6.0557  -33.2612 H   0  0  0  0  0  0  0  0  0  0  0  0
   -7.7453    9.1024  -31.2618 H   0  0  0  0  0  0  0  0  0  0  0  0
   -7.6511   10.1522  -32.6541 H   0  0  0  0  0  0  0  0  0  0  0  0
   -5.6666    7.8866  -32.0627 H   0  0  0  0  0  0  0  0  0  0  0  0
   -5.5906    9.0068  -33.4235 H   0  0  0  0  0  0  0  0  0  0  0  0
   -7.7909    8.1533  -34.2702 H   0  0  0  0  0  0  0  0  0  0  0  0
   -7.2042   10.2565  -28.2209 H   0  0  0  0  0  0  0  0  0  0  0  0
   -5.8071    7.2151  -34.8843 H   0  0  0  0  0  0  0  0  0  0  0  0
  1  3  2  0  0  0  0
  1  5  1  0  0  0  0
  2  5  2  0  0  0  0
  2  6  1  0  0  0  0
  3  4  1  0  0  0  0
  3  8  1  0  0  0  0
  4  6  2  0  0  0  0
  4 11  1  0  0  0  0
  5 13  1  0  0  0  0
  6 14  1  0  0  0  0
  7 10  1  0  0  0  0
  8  9  1  0  0  0  0
  9 10  1  0  0  0  0
 10 12  1  0  0  0  0
  1 15  1  0  0  0  0
  2 16  1  0  0  0  0
  7 17  1  0  0  0  0
  7 18  1  0  0  0  0
  7 19  1  0  0  0  0
  8 20  1  0  0  0  0
  8 21  1  0  0  0  0
  9 22  1  0  0  0  0
  9 23  1  0  0  0  0
 10 24  1  0  0  0  0
 11 25  1  0  0  0  0
 12 26  1  0  0  0  0
M  END
> <id>
EN300-1922581

> <smiles>
CC(O)CCC=1C=C(Cl)C=C(Br)C1O

> <IUPAC Name>
2-bromo-4-chloro-6-(3-hydroxybutyl)phenol

> <CAS>
2229631-79-0

> <URL>
https://www.enaminestore.com/catalog/EN300-1922581

> <ROCS_ShapeQuery>
_x1604L0AP1_x0771L0AP1

> <ROCS_TanimotoCombo>
1.095 

> <ROCS_ShapeTanimoto>
0.525 

> <ROCS_ColorTanimoto>
0.570 

> <ROCS_RefTversky>
0.473 

> <ROCS_RefColorTversky>
0.599 

> <ROCS_RefTverskyCombo>
1.072 

> <ROCS_FitTversky>
1.263 

> <ROCS_FitColorTversky>
0.922 

> <ROCS_FitTverskyCombo>
2.185 

> <ROCS_ColorScore>
-5.700

> <ROCS_Overlap>
793.164

> <ROCS_Rank>
3                   

$$$$
untitled-dbase-1153_23
  -OEChem-06052310023D

 26 26  0     1  0  0  0  0  0999 V2000
   -5.1567   11.2226  -31.9248 C   0  0  0  0  0  0  0  0  0  0  0  0
   -4.4469   12.3013  -29.8828 C   0  0  0  0  0  0  0  0  0  0  0  0
   -6.1343   10.5243  -31.2162 C   0  0  0  0  0  0  0  0  0  0  0  0
   -6.2683   10.7145  -29.8408 C   0  0  0  0  0  0  0  0  0  0  0  0
   -4.3129   12.1111  -31.2581 C   0  0  0  0  0  0  0  0  0  0  0  0
   -5.4246   11.6030  -29.1741 C   0  0  0  0  0  0  0  0  0  0  0  0
   -8.1123    6.7591  -32.6678 C   0  0  0  0  0  0  0  0  0  0  0  0
   -7.0358    9.5688  -31.9566 C   0  0  0  0  0  0  0  0  0  0  0  0
   -6.2801    8.4886  -32.7441 C   0  0  0  0  0  0  0  0  0  0  0  0
   -7.1873    7.5672  -33.5690 C   0  0  1  0  0  0  0  0  0  0  0  0
   -7.2296   10.0239  -29.1615 O   0  0  0  0  0  0  0  0  0  0  0  0
   -6.3806    6.6686  -34.3246 O   0  0  0  0  0  0  0  0  0  0  0  0
   -3.1065   12.9723  -32.1331 Cl  0  0  0  0  0  0  0  0  0  0  0  0
   -5.5756   11.8882  -27.3058 Br  0  0  0  0  0  0  0  0  0  0  0  0
   -5.0558   11.0718  -32.9976 H   0  0  0  0  0  0  0  0  0  0  0  0
   -3.7866   12.9947  -29.3666 H   0  0  0  0  0  0  0  0  0  0  0  0
   -7.5385    6.1598  -31.9523 H   0  0  0  0  0  0  0  0  0  0  0  0
   -8.7961    7.4097  -32.1142 H   0  0  0  0  0  0  0  0  0  0  0  0
   -8.7063    6.0557  -33.2612 H   0  0  0  0  0  0  0  0  0  0  0  0
   -7.7453    9.1024  -31.2618 H   0  0  0  0  0  0  0  0  0  0  0  0
   -7.6511   10.1522  -32.6541 H   0  0  0  0  0  0  0  0  0  0  0  0
   -5.6666    7.8866  -32.0627 H   0  0  0  0  0  0  0  0  0  0  0  0
   -5.5906    9.0068  -33.4235 H   0  0  0  0  0  0  0  0  0  0  0  0
   -7.7909    8.1533  -34.2702 H   0  0  0  0  0  0  0  0  0  0  0  0
   -7.2042   10.2565  -28.2209 H   0  0  0  0  0  0  0  0  0  0  0  0
   -5.8071    7.2151  -34.8843 H   0  0  0  0  0  0  0  0  0  0  0  0
  1  3  2  0  0  0  0
  1  5  1  0  0  0  0
  2  5  2  0  0  0  0
  2  6  1  0  0  0  0
  3  4  1  0  0  0  0
  3  8  1  0  0  0  0
  4  6  2  0  0  0  0
  4 11  1  0  0  0  0
  5 13  1  0  0  0  0
  6 14  1  0  0  0  0
  7 10  1  6  0  0  0
  8  9  1  0  0  0  0
  9 10  1  0  0  0  0
 10 12  1  0  0  0  0
  1 15  1  0  0  0  0
  2 16  1  0  0  0  0
  7 17  1  0  0  0  0
  7 18  1  0  0  0  0
  7 19  1  0  0  0  0
  8 20  1  0  0  0  0
  8 21  1  0  0  0  0
  9 22  1  0  0  0  0
  9 23  1  0  0  0  0
 10 24  1  0  0  0  0
 11 25  1  0  0  0  0
 12 26  1  0  0  0  0
M  END
> <id>
EN300-1922584

> <smiles>
C[C@H](O)CCC=1C=C(Cl)C=C(Br)C1O

> <IUPAC Name>
2-bromo-4-chloro-6-[(3S)-3-hydroxybutyl]phenol

> <CAS>
2227853-96-3

> <URL>
https://www.enaminestore.com/catalog/EN300-1922584

> <ROCS_ShapeQuery>
_x1604L0AP1_x0771L0AP1

> <ROCS_TanimotoCombo>
1.095 

> <ROCS_ShapeTanimoto>
0.525 

> <ROCS_ColorTanimoto>
0.570 

> <ROCS_RefTversky>
0.473 

> <ROCS_RefColorTversky>
0.599 

> <ROCS_RefTverskyCombo>
1.072 

> <ROCS_FitTversky>
1.263 

> <ROCS_FitColorTversky>
0.922 

> <ROCS_FitTverskyCombo>
2.185 

> <ROCS_ColorScore>
-5.700

> <ROCS_Overlap>
793.164

> <ROCS_Rank>
4                   

$$$$
untitled-dbase-1168_95
  -OEChem-06052310023D

 23 23  0     0  0  0  0  0  0999 V2000
   -4.3401   11.9536  -31.4094 C   0  0  0  0  0  0  0  0  0  0  0  0
   -5.1705   10.9856  -31.9740 C   0  0  0  0  0  0  0  0  0  0  0  0
   -4.4793   12.2930  -30.0636 C   0  0  0  0  0  0  0  0  0  0  0  0
   -6.1403   10.3570  -31.1929 C   0  0  0  0  0  0  0  0  0  0  0  0
   -6.2796   10.6964  -29.8472 C   0  0  0  0  0  0  0  0  0  0  0  0
   -5.4490   11.6644  -29.2825 C   0  0  0  0  0  0  0  0  0  0  0  0
   -6.3513    8.5550  -32.9687 C   0  0  0  0  0  0  0  0  0  0  0  0
   -7.0730    7.2678  -33.3483 C   0  0  0  0  0  0  0  0  0  0  0  0
   -7.0196    9.3243  -31.8178 C   0  0  0  0  0  0  0  0  0  0  0  0
   -7.2341   10.0738  -29.0964 O   0  0  0  0  0  0  0  0  0  0  0  0
   -6.3545    6.6359  -34.4003 O   0  0  0  0  0  0  0  0  0  0  0  0
   -8.1637    9.8802  -32.3387 F   0  0  0  0  0  0  0  0  0  0  0  0
   -7.4823    8.3905  -30.9244 F   0  0  0  0  0  0  0  0  0  0  0  0
   -5.6060   12.1528  -27.4574 Br  0  0  0  0  0  0  0  0  0  0  0  0
   -3.5847   12.4428  -32.0174 H   0  0  0  0  0  0  0  0  0  0  0  0
   -5.0537   10.7255  -33.0227 H   0  0  0  0  0  0  0  0  0  0  0  0
   -3.8226   13.0494  -29.6411 H   0  0  0  0  0  0  0  0  0  0  0  0
   -5.3040    8.3349  -32.7252 H   0  0  0  0  0  0  0  0  0  0  0  0
   -6.3043    9.2023  -33.8543 H   0  0  0  0  0  0  0  0  0  0  0  0
   -7.1212    6.5729  -32.5049 H   0  0  0  0  0  0  0  0  0  0  0  0
   -8.0883    7.4769  -33.6993 H   0  0  0  0  0  0  0  0  0  0  0  0
   -7.2135   10.4092  -28.1873 H   0  0  0  0  0  0  0  0  0  0  0  0
   -6.8370    5.8225  -34.6189 H   0  0  0  0  0  0  0  0  0  0  0  0
  1  2  1  0  0  0  0
  1  3  2  0  0  0  0
  2  4  2  0  0  0  0
  3  6  1  0  0  0  0
  4  5  1  0  0  0  0
  4  9  1  0  0  0  0
  5  6  2  0  0  0  0
  5 10  1  0  0  0  0
  6 14  1  0  0  0  0
  7  8  1  0  0  0  0
  7  9  1  0  0  0  0
  8 11  1  0  0  0  0
  9 12  1  0  0  0  0
  9 13  1  0  0  0  0
  1 15  1  0  0  0  0
  2 16  1  0  0  0  0
  3 17  1  0  0  0  0
  7 18  1  0  0  0  0
  7 19  1  0  0  0  0
  8 20  1  0  0  0  0
  8 21  1  0  0  0  0
 10 22  1  0  0  0  0
 11 23  1  0  0  0  0
M  END
> <id>
EN300-1963219

> <smiles>
OCCC(F)(F)C=1C=CC=C(Br)C1O

> <IUPAC Name>
2-bromo-6-(1,1-difluoro-3-hydroxypropyl)phenol

> <CAS>
2229265-08-9

> <URL>
https://www.enaminestore.com/catalog/EN300-1963219

> <ROCS_ShapeQuery>
_x1604L0AP1_x0771L0AP1

> <ROCS_TanimotoCombo>
1.092 

> <ROCS_ShapeTanimoto>
0.512 

> <ROCS_ColorTanimoto>
0.581 

> <ROCS_RefTversky>
0.471 

> <ROCS_RefColorTversky>
0.606 

> <ROCS_RefTverskyCombo>
1.077 

> <ROCS_FitTversky>
1.206 

> <ROCS_FitColorTversky>
0.933 

> <ROCS_FitTverskyCombo>
2.138 

> <ROCS_ColorScore>
-5.768

> <ROCS_Overlap>
789.599

> <ROCS_Rank>
5                   

$$$$
untitled-dbase-472_109
  -OEChem-06052310023D

 21 21  0     0  0  0  0  0  0999 V2000
   -5.0647   11.1943  -31.9104 C   0  0  0  0  0  0  0  0  0  0  0  0
   -4.5124   12.3633  -29.8694 C   0  0  0  0  0  0  0  0  0  0  0  0
   -6.0467   10.4730  -31.2315 C   0  0  0  0  0  0  0  0  0  0  0  0
   -6.2617   10.6969  -29.8716 C   0  0  0  0  0  0  0  0  0  0  0  0
   -4.2974   12.1394  -31.2293 C   0  0  0  0  0  0  0  0  0  0  0  0
   -5.4945   11.6420  -29.1905 C   0  0  0  0  0  0  0  0  0  0  0  0
   -6.8326    9.4922  -31.9690 C   0  0  0  0  0  0  0  0  0  0  0  0
   -6.4012    8.7663  -33.0236 C   0  0  0  0  0  0  0  0  0  0  0  0
   -7.2414    7.7584  -33.7401 C   0  0  0  0  0  0  0  0  0  0  0  0
   -7.2247    9.9875  -29.2119 O   0  0  0  0  0  0  0  0  0  0  0  0
   -6.3965    6.7284  -34.2341 O   0  0  0  0  0  0  0  0  0  0  0  0
   -3.0856   13.0294  -32.0670 Cl  0  0  0  0  0  0  0  0  0  0  0  0
   -5.7557   11.9758  -27.3423 Br  0  0  0  0  0  0  0  0  0  0  0  0
   -4.8950   11.0222  -32.9715 H   0  0  0  0  0  0  0  0  0  0  0  0
   -3.9113   13.1013  -29.3418 H   0  0  0  0  0  0  0  0  0  0  0  0
   -7.8551    9.3238  -31.6167 H   0  0  0  0  0  0  0  0  0  0  0  0
   -5.3835    8.8824  -33.3866 H   0  0  0  0  0  0  0  0  0  0  0  0
   -7.9617    7.3160  -33.0448 H   0  0  0  0  0  0  0  0  0  0  0  0
   -7.7868    8.1958  -34.5824 H   0  0  0  0  0  0  0  0  0  0  0  0
   -7.6636    9.3769  -29.8228 H   0  0  0  0  0  0  0  0  0  0  0  0
   -5.9562    6.3333  -33.4641 H   0  0  0  0  0  0  0  0  0  0  0  0
  1  3  2  0  0  0  0
  1  5  1  0  0  0  0
  2  5  2  0  0  0  0
  2  6  1  0  0  0  0
  3  4  1  0  0  0  0
  3  7  1  0  0  0  0
  4  6  2  0  0  0  0
  4 10  1  0  0  0  0
  5 12  1  0  0  0  0
  6 13  1  0  0  0  0
  7  8  2  3  0  0  0
  8  9  1  0  0  0  0
  9 11  1  0  0  0  0
  1 14  1  0  0  0  0
  2 15  1  0  0  0  0
  7 16  1  0  0  0  0
  8 17  1  0  0  0  0
  9 18  1  0  0  0  0
  9 19  1  0  0  0  0
 10 20  1  0  0  0  0
 11 21  1  0  0  0  0
M  END
> <id>
EN300-1912013

> <smiles>
OCC=CC=1C=C(Cl)C=C(Br)C1O

> <IUPAC Name>
2-bromo-4-chloro-6-(3-hydroxyprop-1-en-1-yl)phenol

> <CAS>
1216374-66-1

> <URL>
https://www.enaminestore.com/catalog/EN300-1912013

> <ROCS_ShapeQuery>
_x1604L0AP1_x0771L0AP1

> <ROCS_TanimotoCombo>
1.091 

> <ROCS_ShapeTanimoto>
0.549 

> <ROCS_ColorTanimoto>
0.543 

> <ROCS_RefTversky>
0.480 

> <ROCS_RefColorTversky>
0.580 

> <ROCS_RefTverskyCombo>
1.060 

> <ROCS_FitTversky>
1.354 

> <ROCS_FitColorTversky>
0.893 

> <ROCS_FitTverskyCombo>
2.247 

> <ROCS_ColorScore>
-5.522

> <ROCS_Overlap>
803.940

> <ROCS_Rank>
6                   

$$$$
untitled-dbase-884_37
  -OEChem-06052310023D

 18 18  0     0  0  0  0  0  0999 V2000
   -4.6049   12.4938  -29.8517 C   0  0  0  0  0  0  0  0  0  0  0  0
   -4.3561   12.1802  -31.1879 C   0  0  0  0  0  0  0  0  0  0  0  0
   -5.5736   11.7878  -29.1383 C   0  0  0  0  0  0  0  0  0  0  0  0
   -5.0760   11.1607  -31.8107 C   0  0  0  0  0  0  0  0  0  0  0  0
   -6.2936   10.7683  -29.7612 C   0  0  0  0  0  0  0  0  0  0  0  0
   -6.0448   10.4547  -31.0974 C   0  0  0  0  0  0  0  0  0  0  0  0
   -4.7719   10.8638  -33.2440 C   0  0  0  0  0  0  0  0  0  0  0  0
   -6.6792    9.0124  -35.2000 N   0  5  0  0  0  0  0  0  0  0  0  0
   -5.9554   10.9992  -34.1001 N   0  0  0  0  0  0  0  0  0  0  0  0
   -6.3288    9.9605  -34.6715 N   0  3  0  0  0  0  0  0  0  0  0  0
   -7.2329   10.1006  -29.0325 O   0  0  0  0  0  0  0  0  0  0  0  0
   -7.0330    9.0616  -31.9363 Br  0  0  0  0  0  0  0  0  0  0  0  0
   -4.0447   13.2880  -29.3669 H   0  0  0  0  0  0  0  0  0  0  0  0
   -3.5991   12.7370  -31.7343 H   0  0  0  0  0  0  0  0  0  0  0  0
   -5.7622   12.0383  -28.0978 H   0  0  0  0  0  0  0  0  0  0  0  0
   -3.9813   11.5306  -33.6160 H   0  0  0  0  0  0  0  0  0  0  0  0
   -4.3774    9.8438  -33.3492 H   0  0  0  0  0  0  0  0  0  0  0  0
   -7.6585    9.4215  -29.5784 H   0  0  0  0  0  0  0  0  0  0  0  0
  1  2  2  0  0  0  0
  1  3  1  0  0  0  0
  2  4  1  0  0  0  0
  3  5  2  0  0  0  0
  4  6  2  0  0  0  0
  4  7  1  0  0  0  0
  5  6  1  0  0  0  0
  5 11  1  0  0  0  0
  6 12  1  0  0  0  0
  7  9  1  0  0  0  0
  8 10  2  0  0  0  0
  9 10  2  0  0  0  0
  1 13  1  0  0  0  0
  2 14  1  0  0  0  0
  3 15  1  0  0  0  0
  7 16  1  0  0  0  0
  7 17  1  0  0  0  0
 11 18  1  0  0  0  0
M  CHG  2   8  -1  10   1
M  END
> <id>
EN300-1904552

> <smiles>
OC=1C=CC=C(CN=[N+]=[N-])C1Br

> <IUPAC Name>
3-(azidomethyl)-2-bromophenol

> <CAS>
2228616-06-4

> <URL>
https://www.enaminestore.com/catalog/EN300-1904552

> <ROCS_ShapeQuery>
_x1604L0AP1_x0771L0AP1

> <ROCS_TanimotoCombo>
1.085 

> <ROCS_ShapeTanimoto>
0.531 

> <ROCS_ColorTanimoto>
0.554 

> <ROCS_RefTversky>
0.465 

> <ROCS_RefColorTversky>
0.519 

> <ROCS_RefTverskyCombo>
0.983 

> <ROCS_FitTversky>
1.368 

> <ROCS_FitColorTversky>
1.139 

> <ROCS_FitTverskyCombo>
2.507 

> <ROCS_ColorScore>
-4.882

> <ROCS_Overlap>
777.425

> <ROCS_Rank>
7                   

$$$$
untitled-dbase-490_97
  -OEChem-06052310023D

 24 24  0     0  0  0  0  0  0999 V2000
   -4.9793   11.3745  -31.6715 C   0  0  0  0  0  0  0  0  0  0  0  0
   -4.5802   12.5748  -29.6131 C   0  0  0  0  0  0  0  0  0  0  0  0
   -5.9640   10.6161  -31.0385 C   0  0  0  0  0  0  0  0  0  0  0  0
   -6.2568   10.8371  -29.6927 C   0  0  0  0  0  0  0  0  0  0  0  0
   -4.2873   12.3538  -30.9588 C   0  0  0  0  0  0  0  0  0  0  0  0
   -5.5650   11.8164  -28.9800 C   0  0  0  0  0  0  0  0  0  0  0  0
   -6.8230    7.2468  -33.7768 C   0  0  0  0  0  0  0  0  0  0  0  0
   -6.6995    9.5631  -31.8273 C   0  0  0  0  0  0  0  0  0  0  0  0
   -7.2297    8.6593  -34.1209 C   0  0  0  0  0  0  0  0  0  0  0  0
   -6.4490    9.7039  -33.3298 C   0  0  0  0  0  0  0  0  0  0  0  0
   -6.3948    6.4265  -34.5815 O   0  0  0  0  0  0  0  0  0  0  0  0
   -7.2229   10.0868  -29.0874 O   0  0  0  0  0  0  0  0  0  0  0  0
   -3.0721   13.2892  -31.7405 Cl  0  0  0  0  0  0  0  0  0  0  0  0
   -5.9344   12.1460  -27.1498 Br  0  0  0  0  0  0  0  0  0  0  0  0
   -4.7541   11.1994  -32.7215 H   0  0  0  0  0  0  0  0  0  0  0  0
   -4.0380   13.3391  -29.0608 H   0  0  0  0  0  0  0  0  0  0  0  0
   -6.9367    6.9771  -32.7125 H   0  0  0  0  0  0  0  0  0  0  0  0
   -7.7740    9.6331  -31.6151 H   0  0  0  0  0  0  0  0  0  0  0  0
   -6.3890    8.5681  -31.4834 H   0  0  0  0  0  0  0  0  0  0  0  0
   -7.0696    8.7952  -35.1958 H   0  0  0  0  0  0  0  0  0  0  0  0
   -8.3026    8.7508  -33.9205 H   0  0  0  0  0  0  0  0  0  0  0  0
   -5.3771    9.6020  -33.5429 H   0  0  0  0  0  0  0  0  0  0  0  0
   -6.7340   10.7096  -33.6651 H   0  0  0  0  0  0  0  0  0  0  0  0
   -7.3159   10.3502  -28.1593 H   0  0  0  0  0  0  0  0  0  0  0  0
  1  3  2  0  0  0  0
  1  5  1  0  0  0  0
  2  5  2  0  0  0  0
  2  6  1  0  0  0  0
  3  4  1  0  0  0  0
  3  8  1  0  0  0  0
  4  6  2  0  0  0  0
  4 12  1  0  0  0  0
  5 13  1  0  0  0  0
  6 14  1  0  0  0  0
  7  9  1  0  0  0  0
  7 11  2  0  0  0  0
  8 10  1  0  0  0  0
  9 10  1  0  0  0  0
  1 15  1  0  0  0  0
  2 16  1  0  0  0  0
  7 17  1  0  0  0  0
  8 18  1  0  0  0  0
  8 19  1  0  0  0  0
  9 20  1  0  0  0  0
  9 21  1  0  0  0  0
 10 22  1  0  0  0  0
 10 23  1  0  0  0  0
 12 24  1  0  0  0  0
M  END
> <id>
EN300-1922933

> <smiles>
OC=1C(Br)=CC(Cl)=CC1CCCC=O

> <IUPAC Name>
4-(3-bromo-5-chloro-2-hydroxyphenyl)butanal

> <CAS>
2229144-05-0

> <URL>
https://www.enaminestore.com/catalog/EN300-1922933

> <ROCS_ShapeQuery>
_x1604L0AP1_x0771L0AP1

> <ROCS_TanimotoCombo>
1.075 

> <ROCS_ShapeTanimoto>
0.584 

> <ROCS_ColorTanimoto>
0.491 

> <ROCS_RefTversky>
0.507 

> <ROCS_RefColorTversky>
0.512 

> <ROCS_RefTverskyCombo>
1.019 

> <ROCS_FitTversky>
1.351 

> <ROCS_FitColorTversky>
0.925 

> <ROCS_FitTverskyCombo>
2.276 

> <ROCS_ColorScore>
-4.844

> <ROCS_Overlap>
850.261

> <ROCS_Rank>
8                   

$$$$
untitled-dbase-726_80
  -OEChem-06052310023D

 19 19  0     0  0  0  0  0  0999 V2000
   -4.5895   12.4699  -29.8390 C   0  0  0  0  0  0  0  0  0  0  0  0
   -5.5696   11.7761  -29.1294 C   0  0  0  0  0  0  0  0  0  0  0  0
   -5.0612   11.1346  -31.7964 C   0  0  0  0  0  0  0  0  0  0  0  0
   -4.3353   12.1493  -31.1725 C   0  0  0  0  0  0  0  0  0  0  0  0
   -6.2955   10.7614  -29.7533 C   0  0  0  0  0  0  0  0  0  0  0  0
   -6.0413   10.4407  -31.0868 C   0  0  0  0  0  0  0  0  0  0  0  0
   -3.2871   12.8917  -31.9300 C   0  0  0  0  0  0  0  0  0  0  0  0
   -3.1809   14.8257  -30.6554 N   0  0  0  0  0  0  0  0  0  0  0  0
   -7.2453   10.1013  -29.0318 O   0  0  0  0  0  0  0  0  0  0  0  0
   -2.4666   13.6123  -31.0186 O   0  0  0  0  0  0  0  0  0  0  0  0
   -7.0071    9.0669  -31.9659 Br  0  0  0  0  0  0  0  0  0  0  0  0
   -4.0293   13.2588  -29.3438 H   0  0  0  0  0  0  0  0  0  0  0  0
   -5.7621   12.0315  -28.0908 H   0  0  0  0  0  0  0  0  0  0  0  0
   -4.8565   10.8917  -32.8369 H   0  0  0  0  0  0  0  0  0  0  0  0
   -2.6513   12.2082  -32.5094 H   0  0  0  0  0  0  0  0  0  0  0  0
   -3.7366   13.6018  -32.6376 H   0  0  0  0  0  0  0  0  0  0  0  0
   -2.4823   15.5291  -30.8906 H   0  0  0  0  0  0  0  0  0  0  0  0
   -3.1806   14.7439  -29.6399 H   0  0  0  0  0  0  0  0  0  0  0  0
   -7.6722    9.4254  -29.5808 H   0  0  0  0  0  0  0  0  0  0  0  0
  1  2  1  0  0  0  0
  1  4  2  0  0  0  0
  2  5  2  0  0  0  0
  3  4  1  0  0  0  0
  3  6  2  0  0  0  0
  4  7  1  0  0  0  0
  5  6  1  0  0  0  0
  5  9  1  0  0  0  0
  6 11  1  0  0  0  0
  7 10  1  0  0  0  0
  8 10  1  0  0  0  0
  1 12  1  0  0  0  0
  2 13  1  0  0  0  0
  3 14  1  0  0  0  0
  7 15  1  0  0  0  0
  7 16  1  0  0  0  0
  8 17  1  0  0  0  0
  8 18  1  0  0  0  0
  9 19  1  0  0  0  0
M  END
> <id>
EN300-1915285

> <smiles>
NOCC=1C=CC(O)=C(Br)C1

> <MDLNUMBER>
MFCD24721151

> <IUPAC Name>
4-[(aminooxy)methyl]-2-bromophenol

> <CAS>
1836-79-9

> <URL>
https://www.enaminestore.com/catalog/EN300-1915285

> <ROCS_ShapeQuery>
_x1604L0AP1_x0771L0AP1

> <ROCS_TanimotoCombo>
1.074 

> <ROCS_ShapeTanimoto>
0.521 

> <ROCS_ColorTanimoto>
0.553 

> <ROCS_RefTversky>
0.449 

> <ROCS_RefColorTversky>
0.518 

> <ROCS_RefTverskyCombo>
0.967 

> <ROCS_FitTversky>
1.443 

> <ROCS_FitColorTversky>
1.139 

> <ROCS_FitTverskyCombo>
2.582 

> <ROCS_ColorScore>
-4.879

> <ROCS_Overlap>
750.529

> <ROCS_Rank>
9                   

$$$$
untitled-dbase-445_31
  -OEChem-06052310023D

 25 25  0     0  0  0  0  0  0999 V2000
   -5.1056   11.3186  -31.7997 C   0  0  0  0  0  0  0  0  0  0  0  0
   -4.4583   12.3976  -29.7373 C   0  0  0  0  0  0  0  0  0  0  0  0
   -6.0943   10.6091  -31.1182 C   0  0  0  0  0  0  0  0  0  0  0  0
   -6.2651   10.7938  -29.7463 C   0  0  0  0  0  0  0  0  0  0  0  0
   -4.2875   12.2128  -31.1092 C   0  0  0  0  0  0  0  0  0  0  0  0
   -5.4471   11.6881  -29.0557 C   0  0  0  0  0  0  0  0  0  0  0  0
   -8.0233    8.9227  -31.0226 C   0  0  0  0  0  0  0  0  0  0  0  0
   -6.0993    8.6065  -32.6140 C   0  0  0  0  0  0  0  0  0  0  0  0
   -6.9593    9.6566  -31.8768 C   0  0  0  0  0  0  0  0  0  0  0  0
   -6.8205   10.5650  -34.0057 N   0  0  0  0  0  0  0  0  0  0  0  0
   -7.2369   10.0921  -29.0936 O   0  0  0  0  0  0  0  0  0  0  0  0
   -7.7165   10.3596  -32.8877 O   0  0  0  0  0  0  0  0  0  0  0  0
   -3.0673   13.0880  -31.9507 Cl  0  0  0  0  0  0  0  0  0  0  0  0
   -5.6484   11.9662  -27.1911 Br  0  0  0  0  0  0  0  0  0  0  0  0
   -4.9759   11.1720  -32.8700 H   0  0  0  0  0  0  0  0  0  0  0  0
   -3.8179   13.0956  -29.2024 H   0  0  0  0  0  0  0  0  0  0  0  0
   -8.6305    8.2368  -31.6256 H   0  0  0  0  0  0  0  0  0  0  0  0
   -7.5728    8.3392  -30.2135 H   0  0  0  0  0  0  0  0  0  0  0  0
   -8.7198    9.6458  -30.5818 H   0  0  0  0  0  0  0  0  0  0  0  0
   -6.7122    7.8947  -33.1790 H   0  0  0  0  0  0  0  0  0  0  0  0
   -5.4744    8.0421  -31.9133 H   0  0  0  0  0  0  0  0  0  0  0  0
   -5.4403    9.0927  -33.3433 H   0  0  0  0  0  0  0  0  0  0  0  0
   -6.9014   11.5751  -34.1127 H   0  0  0  0  0  0  0  0  0  0  0  0
   -7.3730   10.1483  -34.7534 H   0  0  0  0  0  0  0  0  0  0  0  0
   -7.2377   10.3221  -28.1521 H   0  0  0  0  0  0  0  0  0  0  0  0
  1  3  2  0  0  0  0
  1  5  1  0  0  0  0
  2  5  2  0  0  0  0
  2  6  1  0  0  0  0
  3  4  1  0  0  0  0
  3  9  1  0  0  0  0
  4  6  2  0  0  0  0
  4 11  1  0  0  0  0
  5 13  1  0  0  0  0
  6 14  1  0  0  0  0
  7  9  1  0  0  0  0
  8  9  1  0  0  0  0
  9 12  1  0  0  0  0
 10 12  1  0  0  0  0
  1 15  1  0  0  0  0
  2 16  1  0  0  0  0
  7 17  1  0  0  0  0
  7 18  1  0  0  0  0
  7 19  1  0  0  0  0
  8 20  1  0  0  0  0
  8 21  1  0  0  0  0
  8 22  1  0  0  0  0
 10 23  1  0  0  0  0
 10 24  1  0  0  0  0
 11 25  1  0  0  0  0
M  END
> <id>
EN300-1922573

> <smiles>
CC(C)(ON)C=1C=C(Cl)C=C(Br)C1O

> <IUPAC Name>
2-[2-(aminooxy)propan-2-yl]-6-bromo-4-chlorophenol

> <CAS>
2229471-95-6

> <URL>
https://www.enaminestore.com/catalog/EN300-1922573

> <ROCS_ShapeQuery>
_x1604L0AP1_x0771L0AP1

> <ROCS_TanimotoCombo>
1.073 

> <ROCS_ShapeTanimoto>
0.576 

> <ROCS_ColorTanimoto>
0.497 

> <ROCS_RefTversky>
0.506 

> <ROCS_RefColorTversky>
0.515 

> <ROCS_RefTverskyCombo>
1.022 

> <ROCS_FitTversky>
1.315 

> <ROCS_FitColorTversky>
0.932 

> <ROCS_FitTverskyCombo>
2.247 

> <ROCS_ColorScore>
-4.879

> <ROCS_Overlap>
849.263

> <ROCS_Rank>
10                  

$$$$
untitled-dbase-2185_201
  -OEChem-06052310023D

 26 26  0     1  0  0  0  0  0999 V2000
   -4.3152   12.1157  -31.2624 C   0  0  0  0  0  0  0  0  0  0  0  0
   -5.1577   11.2253  -31.9278 C   0  0  0  0  0  0  0  0  0  0  0  0
   -4.4484   12.3064  -29.8870 C   0  0  0  0  0  0  0  0  0  0  0  0
   -6.1335   10.5255  -31.2180 C   0  0  0  0  0  0  0  0  0  0  0  0
   -6.2667   10.7162  -29.8426 C   0  0  0  0  0  0  0  0  0  0  0  0
   -5.4242   11.6067  -29.1771 C   0  0  0  0  0  0  0  0  0  0  0  0
   -8.0557    8.3686  -34.5288 C   0  0  0  0  0  0  0  0  0  0  0  0
   -7.0344    9.5687  -31.9575 C   0  0  0  0  0  0  0  0  0  0  0  0
   -6.2779    8.4898  -32.7459 C   0  0  0  0  0  0  0  0  0  0  0  0
   -7.1846    7.5671  -33.5699 C   0  0  2  0  0  0  0  0  0  0  0  0
   -7.2272   10.0256  -29.1623 O   0  0  0  0  0  0  0  0  0  0  0  0
   -6.3773    6.6676  -34.3239 O   0  0  0  0  0  0  0  0  0  0  0  0
   -5.5727   11.8929  -27.3090 Br  0  0  0  0  0  0  0  0  0  0  0  0
   -3.5551   12.6603  -31.8149 H   0  0  0  0  0  0  0  0  0  0  0  0
   -5.0455   11.0810  -32.9991 H   0  0  0  0  0  0  0  0  0  0  0  0
   -3.7824   13.0042  -29.3856 H   0  0  0  0  0  0  0  0  0  0  0  0
   -7.4416    8.9740  -35.2047 H   0  0  0  0  0  0  0  0  0  0  0  0
   -8.6961    7.7130  -35.1267 H   0  0  0  0  0  0  0  0  0  0  0  0
   -8.6934    9.0659  -33.9748 H   0  0  0  0  0  0  0  0  0  0  0  0
   -7.7423    9.1012  -31.2620 H   0  0  0  0  0  0  0  0  0  0  0  0
   -7.6512   10.1512  -32.6543 H   0  0  0  0  0  0  0  0  0  0  0  0
   -5.6628    7.8885  -32.0653 H   0  0  0  0  0  0  0  0  0  0  0  0
   -5.5899    9.0091  -33.4260 H   0  0  0  0  0  0  0  0  0  0  0  0
   -7.8277    6.9747  -32.9103 H   0  0  0  0  0  0  0  0  0  0  0  0
   -7.7214    9.4558  -29.7710 H   0  0  0  0  0  0  0  0  0  0  0  0
   -6.9863    6.0901  -34.8101 H   0  0  0  0  0  0  0  0  0  0  0  0
  1  2  1  0  0  0  0
  1  3  2  0  0  0  0
  2  4  2  0  0  0  0
  3  6  1  0  0  0  0
  4  5  1  0  0  0  0
  4  8  1  0  0  0  0
  5  6  2  0  0  0  0
  5 11  1  0  0  0  0
  6 13  1  0  0  0  0
  7 10  1  1  0  0  0
  8  9  1  0  0  0  0
  9 10  1  0  0  0  0
 10 12  1  0  0  0  0
  1 14  1  0  0  0  0
  2 15  1  0  0  0  0
  3 16  1  0  0  0  0
  7 17  1  0  0  0  0
  7 18  1  0  0  0  0
  7 19  1  0  0  0  0
  8 20  1  0  0  0  0
  8 21  1  0  0  0  0
  9 22  1  0  0  0  0
  9 23  1  0  0  0  0
 10 24  1  0  0  0  0
 11 25  1  0  0  0  0
 12 26  1  0  0  0  0
M  END
> <id>
EN300-1923416

> <smiles>
C[C@@H](O)CCC=1C=CC=C(Br)C1O

> <IUPAC Name>
2-bromo-6-[(3R)-3-hydroxybutyl]phenol

> <CAS>
2227723-08-0

> <URL>
https://www.enaminestore.com/catalog/EN300-1923416

> <ROCS_ShapeQuery>
_x1604L0AP1_x0771L0AP1

> <ROCS_TanimotoCombo>
1.072 

> <ROCS_ShapeTanimoto>
0.502 

> <ROCS_ColorTanimoto>
0.570 

> <ROCS_RefTversky>
0.453 

> <ROCS_RefColorTversky>
0.599 

> <ROCS_RefTverskyCombo>
1.052 

> <ROCS_FitTversky>
1.273 

> <ROCS_FitColorTversky>
0.922 

> <ROCS_FitTverskyCombo>
2.195 

> <ROCS_ColorScore>
-5.700

> <ROCS_Overlap>
759.032

> <ROCS_Rank>
11                  

$$$$
untitled-dbase-2088_28
  -OEChem-06052310023D

 19 19  0     0  0  0  0  0  0999 V2000
   -4.3183   12.1251  -31.1918 C   0  0  0  0  0  0  0  0  0  0  0  0
   -5.0539   11.1138  -31.8096 C   0  0  0  0  0  0  0  0  0  0  0  0
   -5.5503   11.7704  -29.1440 C   0  0  0  0  0  0  0  0  0  0  0  0
   -4.5664   12.4534  -29.8589 C   0  0  0  0  0  0  0  0  0  0  0  0
   -6.2860   10.7591  -29.7618 C   0  0  0  0  0  0  0  0  0  0  0  0
   -6.0378   10.4308  -31.0946 C   0  0  0  0  0  0  0  0  0  0  0  0
   -3.7794   13.5338  -29.1979 C   0  0  0  0  0  0  0  0  0  0  0  0
   -4.0654   15.2311  -30.7516 N   0  0  0  0  0  0  0  0  0  0  0  0
   -7.2383   10.1086  -29.0349 O   0  0  0  0  0  0  0  0  0  0  0  0
   -3.1025   14.2986  -30.1878 O   0  0  0  0  0  0  0  0  0  0  0  0
   -7.0178    9.0630  -31.9669 Br  0  0  0  0  0  0  0  0  0  0  0  0
   -3.5521   12.6506  -31.7558 H   0  0  0  0  0  0  0  0  0  0  0  0
   -4.8466   10.8718  -32.8489 H   0  0  0  0  0  0  0  0  0  0  0  0
   -5.7447   12.0252  -28.1047 H   0  0  0  0  0  0  0  0  0  0  0  0
   -4.4280   14.2053  -28.6186 H   0  0  0  0  0  0  0  0  0  0  0  0
   -3.0359   13.1163  -28.5051 H   0  0  0  0  0  0  0  0  0  0  0  0
   -3.9817   15.0070  -31.7421 H   0  0  0  0  0  0  0  0  0  0  0  0
   -3.5742   16.1124  -30.6105 H   0  0  0  0  0  0  0  0  0  0  0  0
   -7.6722    9.4341  -29.5802 H   0  0  0  0  0  0  0  0  0  0  0  0
  1  2  1  0  0  0  0
  1  4  2  0  0  0  0
  2  6  2  0  0  0  0
  3  4  1  0  0  0  0
  3  5  2  0  0  0  0
  4  7  1  0  0  0  0
  5  6  1  0  0  0  0
  5  9  1  0  0  0  0
  6 11  1  0  0  0  0
  7 10  1  0  0  0  0
  8 10  1  0  0  0  0
  1 12  1  0  0  0  0
  2 13  1  0  0  0  0
  3 14  1  0  0  0  0
  7 15  1  0  0  0  0
  7 16  1  0  0  0  0
  8 17  1  0  0  0  0
  8 18  1  0  0  0  0
  9 19  1  0  0  0  0
M  END
> <id>
EN300-210717

> <smiles>
Cl.NOCC=1C=CC(Br)=C(O)C1

> <MDLNUMBER>
MFCD28397721

> <IUPAC Name>
5-[(aminooxy)methyl]-2-bromophenol hydrochloride

> <CAS>
91468-63-2

> <Purity>
95

> <URL>
https://www.enaminestore.com/catalog/EN300-210717

> <Saltdate>
Cl

> <ROCS_ShapeQuery>
_x1604L0AP1_x0771L0AP1

> <ROCS_TanimotoCombo>
1.071 

> <ROCS_ShapeTanimoto>
0.518 

> <ROCS_ColorTanimoto>
0.553 

> <ROCS_RefTversky>
0.447 

> <ROCS_RefColorTversky>
0.518 

> <ROCS_RefTverskyCombo>
0.965 

> <ROCS_FitTversky>
1.437 

> <ROCS_FitColorTversky>
1.139 

> <ROCS_FitTverskyCombo>
2.576 

> <ROCS_ColorScore>
-4.879

> <ROCS_Overlap>
747.430

> <ROCS_Rank>
12                  

$$$$
untitled-dbase-337_28
  -OEChem-06052310023D

 19 19  0     0  0  0  0  0  0999 V2000
   -4.3183   12.1251  -31.1918 C   0  0  0  0  0  0  0  0  0  0  0  0
   -5.0539   11.1138  -31.8096 C   0  0  0  0  0  0  0  0  0  0  0  0
   -5.5503   11.7704  -29.1440 C   0  0  0  0  0  0  0  0  0  0  0  0
   -4.5664   12.4534  -29.8589 C   0  0  0  0  0  0  0  0  0  0  0  0
   -6.2860   10.7591  -29.7618 C   0  0  0  0  0  0  0  0  0  0  0  0
   -6.0378   10.4308  -31.0946 C   0  0  0  0  0  0  0  0  0  0  0  0
   -3.7794   13.5338  -29.1979 C   0  0  0  0  0  0  0  0  0  0  0  0
   -4.0654   15.2311  -30.7516 N   0  0  0  0  0  0  0  0  0  0  0  0
   -7.2383   10.1086  -29.0349 O   0  0  0  0  0  0  0  0  0  0  0  0
   -3.1025   14.2986  -30.1878 O   0  0  0  0  0  0  0  0  0  0  0  0
   -7.0178    9.0630  -31.9669 Br  0  0  0  0  0  0  0  0  0  0  0  0
   -3.5521   12.6506  -31.7558 H   0  0  0  0  0  0  0  0  0  0  0  0
   -4.8466   10.8718  -32.8489 H   0  0  0  0  0  0  0  0  0  0  0  0
   -5.7447   12.0252  -28.1047 H   0  0  0  0  0  0  0  0  0  0  0  0
   -4.4280   14.2053  -28.6186 H   0  0  0  0  0  0  0  0  0  0  0  0
   -3.0359   13.1163  -28.5051 H   0  0  0  0  0  0  0  0  0  0  0  0
   -3.9817   15.0070  -31.7421 H   0  0  0  0  0  0  0  0  0  0  0  0
   -3.5742   16.1124  -30.6105 H   0  0  0  0  0  0  0  0  0  0  0  0
   -7.6722    9.4341  -29.5802 H   0  0  0  0  0  0  0  0  0  0  0  0
  1  2  1  0  0  0  0
  1  4  2  0  0  0  0
  2  6  2  0  0  0  0
  3  4  1  0  0  0  0
  3  5  2  0  0  0  0
  4  7  1  0  0  0  0
  5  6  1  0  0  0  0
  5  9  1  0  0  0  0
  6 11  1  0  0  0  0
  7 10  1  0  0  0  0
  8 10  1  0  0  0  0
  1 12  1  0  0  0  0
  2 13  1  0  0  0  0
  3 14  1  0  0  0  0
  7 15  1  0  0  0  0
  7 16  1  0  0  0  0
  8 17  1  0  0  0  0
  8 18  1  0  0  0  0
  9 19  1  0  0  0  0
M  END
> <id>
EN300-211634

> <smiles>
NOCC=1C=CC(Br)=C(O)C1

> <MDLNUMBER>
MFCD00867521

> <IUPAC Name>
5-[(aminooxy)methyl]-2-bromophenol

> <CAS>
555-65-7

> <URL>
https://www.enaminestore.com/catalog/EN300-211634

> <ROCS_ShapeQuery>
_x1604L0AP1_x0771L0AP1

> <ROCS_TanimotoCombo>
1.071 

> <ROCS_ShapeTanimoto>
0.518 

> <ROCS_ColorTanimoto>
0.553 

> <ROCS_RefTversky>
0.447 

> <ROCS_RefColorTversky>
0.518 

> <ROCS_RefTverskyCombo>
0.965 

> <ROCS_FitTversky>
1.437 

> <ROCS_FitColorTversky>
1.139 

> <ROCS_FitTverskyCombo>
2.576 

> <ROCS_ColorScore>
-4.879

> <ROCS_Overlap>
747.430

> <ROCS_Rank>
13                  

$$$$
untitled-dbase-788_88
  -OEChem-06052310023D

 20 20  0     0  0  0  0  0  0999 V2000
   -4.5734   12.4553  -29.8277 C   0  0  0  0  0  0  0  0  0  0  0  0
   -5.5602   11.7659  -29.1232 C   0  0  0  0  0  0  0  0  0  0  0  0
   -5.0458   11.1267  -31.7895 C   0  0  0  0  0  0  0  0  0  0  0  0
   -4.3162   12.1358  -31.1610 C   0  0  0  0  0  0  0  0  0  0  0  0
   -6.2898   10.7568  -29.7517 C   0  0  0  0  0  0  0  0  0  0  0  0
   -6.0326   10.4372  -31.0849 C   0  0  0  0  0  0  0  0  0  0  0  0
   -3.2609   12.8734  -31.9132 C   0  0  0  0  0  0  0  0  0  0  0  0
   -2.5291   13.9610  -31.1090 C   0  0  0  0  0  0  0  0  0  0  0  0
   -7.2461   10.1009  -29.0350 O   0  0  0  0  0  0  0  0  0  0  0  0
   -3.6591   15.2421  -30.4825 S   0  0  0  0  0  0  0  0  0  0  0  0
   -7.0033    9.0709  -31.9702 Br  0  0  0  0  0  0  0  0  0  0  0  0
   -4.0104   13.2399  -29.3289 H   0  0  0  0  0  0  0  0  0  0  0  0
   -5.7550   12.0204  -28.0847 H   0  0  0  0  0  0  0  0  0  0  0  0
   -4.8387   10.8845  -32.8298 H   0  0  0  0  0  0  0  0  0  0  0  0
   -2.5186   12.1796  -32.3458 H   0  0  0  0  0  0  0  0  0  0  0  0
   -3.7291   13.3575  -32.7878 H   0  0  0  0  0  0  0  0  0  0  0  0
   -2.0351   13.5104  -30.2420 H   0  0  0  0  0  0  0  0  0  0  0  0
   -1.7563   14.4460  -31.7139 H   0  0  0  0  0  0  0  0  0  0  0  0
   -7.6751    9.4287  -29.5868 H   0  0  0  0  0  0  0  0  0  0  0  0
   -4.1034   15.6335  -31.6840 H   0  0  0  0  0  0  0  0  0  0  0  0
  1  2  1  0  0  0  0
  1  4  2  0  0  0  0
  2  5  2  0  0  0  0
  3  4  1  0  0  0  0
  3  6  2  0  0  0  0
  4  7  1  0  0  0  0
  5  6  1  0  0  0  0
  5  9  1  0  0  0  0
  6 11  1  0  0  0  0
  7  8  1  0  0  0  0
  8 10  1  0  0  0  0
  1 12  1  0  0  0  0
  2 13  1  0  0  0  0
  3 14  1  0  0  0  0
  7 15  1  0  0  0  0
  7 16  1  0  0  0  0
  8 17  1  0  0  0  0
  8 18  1  0  0  0  0
  9 19  1  0  0  0  0
 10 20  1  0  0  0  0
M  END
> <id>
EN300-1905156

> <smiles>
OC=1C=CC(CCS)=CC1Br

> <MDLNUMBER>
MFCD33499939

> <IUPAC Name>
2-bromo-4-(2-sulfanylethyl)phenol

> <CAS>
2229360-45-4

> <URL>
https://www.enaminestore.com/catalog/EN300-1905156

> <ROCS_ShapeQuery>
_x1604L0AP1_x0771L0AP1

> <ROCS_TanimotoCombo>
1.071 

> <ROCS_ShapeTanimoto>
0.518 

> <ROCS_ColorTanimoto>
0.553 

> <ROCS_RefTversky>
0.445 

> <ROCS_RefColorTversky>
0.518 

> <ROCS_RefTverskyCombo>
0.963 

> <ROCS_FitTversky>
1.464 

> <ROCS_FitColorTversky>
1.138 

> <ROCS_FitTverskyCombo>
2.603 

> <ROCS_ColorScore>
-4.878

> <ROCS_Overlap>
742.928

> <ROCS_Rank>
14                  

$$$$
untitled-dbase-1290_63
  -OEChem-06052310023D

 23 23  0     0  0  0  0  0  0999 V2000
   -4.3713   11.9255  -31.4520 C   0  0  0  0  0  0  0  0  0  0  0  0
   -5.1736   10.9126  -31.9773 C   0  0  0  0  0  0  0  0  0  0  0  0
   -4.5298   12.3230  -30.1243 C   0  0  0  0  0  0  0  0  0  0  0  0
   -6.1345   10.2972  -31.1750 C   0  0  0  0  0  0  0  0  0  0  0  0
   -6.2930   10.6947  -29.8473 C   0  0  0  0  0  0  0  0  0  0  0  0
   -5.4907   11.7076  -29.3221 C   0  0  0  0  0  0  0  0  0  0  0  0
   -6.9836    9.2157  -31.7578 C   0  0  0  0  0  0  0  0  0  0  0  0
   -6.2349    8.4092  -32.8267 C   0  0  0  0  0  0  0  0  0  0  0  0
   -7.1143    7.3382  -33.4568 C   0  0  0  0  0  0  0  0  0  0  0  0
   -7.2386   10.0843  -29.0755 O   0  0  0  0  0  0  0  0  0  0  0  0
   -6.3516    6.6263  -34.4212 O   0  0  0  0  0  0  0  0  0  0  0  0
   -5.6745   12.2755  -27.5227 Br  0  0  0  0  0  0  0  0  0  0  0  0
   -3.6228   12.4043  -32.0765 H   0  0  0  0  0  0  0  0  0  0  0  0
   -5.0418   10.6074  -33.0119 H   0  0  0  0  0  0  0  0  0  0  0  0
   -3.8950   13.1137  -29.7325 H   0  0  0  0  0  0  0  0  0  0  0  0
   -7.8988    9.6415  -32.2015 H   0  0  0  0  0  0  0  0  0  0  0  0
   -7.3318    8.5312  -30.9666 H   0  0  0  0  0  0  0  0  0  0  0  0
   -5.3435    7.9375  -32.3926 H   0  0  0  0  0  0  0  0  0  0  0  0
   -5.8576    9.0773  -33.6123 H   0  0  0  0  0  0  0  0  0  0  0  0
   -7.4687    6.6295  -32.7014 H   0  0  0  0  0  0  0  0  0  0  0  0
   -7.9778    7.7871  -33.9581 H   0  0  0  0  0  0  0  0  0  0  0  0
   -7.2336   10.4616  -28.1827 H   0  0  0  0  0  0  0  0  0  0  0  0
   -6.9389    5.9537  -34.8027 H   0  0  0  0  0  0  0  0  0  0  0  0
  1  2  1  0  0  0  0
  1  3  2  0  0  0  0
  2  4  2  0  0  0  0
  3  6  1  0  0  0  0
  4  5  1  0  0  0  0
  4  7  1  0  0  0  0
  5  6  2  0  0  0  0
  5 10  1  0  0  0  0
  6 12  1  0  0  0  0
  7  8  1  0  0  0  0
  8  9  1  0  0  0  0
  9 11  1  0  0  0  0
  1 13  1  0  0  0  0
  2 14  1  0  0  0  0
  3 15  1  0  0  0  0
  7 16  1  0  0  0  0
  7 17  1  0  0  0  0
  8 18  1  0  0  0  0
  8 19  1  0  0  0  0
  9 20  1  0  0  0  0
  9 21  1  0  0  0  0
 10 22  1  0  0  0  0
 11 23  1  0  0  0  0
M  END
> <id>
EN300-1923448

> <smiles>
OCCCC=1C=CC=C(Br)C1O

> <IUPAC Name>
2-bromo-6-(3-hydroxypropyl)phenol

> <CAS>
1891964-74-1

> <URL>
https://www.enaminestore.com/catalog/EN300-1923448

> <ROCS_ShapeQuery>
_x1604L0AP1_x0771L0AP1

> <ROCS_TanimotoCombo>
1.070 

> <ROCS_ShapeTanimoto>
0.488 

> <ROCS_ColorTanimoto>
0.582 

> <ROCS_RefTversky>
0.437 

> <ROCS_RefColorTversky>
0.607 

> <ROCS_RefTverskyCombo>
1.043 

> <ROCS_FitTversky>
1.317 

> <ROCS_FitColorTversky>
0.933 

> <ROCS_FitTverskyCombo>
2.250 

> <ROCS_ColorScore>
-5.773

> <ROCS_Overlap>
730.463

> <ROCS_Rank>
15                  

$$$$
untitled-dbase-1922_484
  -OEChem-06052310023D

 28 28  0     1  0  0  0  0  0999 V2000
   -4.2942   12.4688  -30.8506 C   0  0  0  0  0  0  0  0  0  0  0  0
   -5.1129   11.6783  -31.6571 C   0  0  0  0  0  0  0  0  0  0  0  0
   -4.4539   12.4511  -29.4650 C   0  0  0  0  0  0  0  0  0  0  0  0
   -6.0913   10.8702  -31.0781 C   0  0  0  0  0  0  0  0  0  0  0  0
   -6.2510   10.8525  -29.6925 C   0  0  0  0  0  0  0  0  0  0  0  0
   -5.4323   11.6430  -28.8859 C   0  0  0  0  0  0  0  0  0  0  0  0
   -6.7812    8.9658  -35.5084 C   0  0  0  0  0  0  0  0  0  0  0  0
   -6.9623   10.0281  -31.9649 C   0  0  0  0  0  0  0  0  0  0  0  0
   -6.2521    7.5084  -33.5256 C   0  0  0  0  0  0  0  0  0  0  0  0
   -6.9631    8.7701  -34.0089 C   0  0  1  0  0  0  0  0  0  0  0  0
   -6.4270    9.9263  -33.3185 N   0  0  0  0  0  0  0  0  0  0  0  0
   -7.2138   10.0579  -29.1410 O   0  0  0  0  0  0  0  0  0  0  0  0
   -6.4017    6.4810  -34.4989 O   0  0  0  0  0  0  0  0  0  0  0  0
   -5.6172   11.6462  -26.9992 Br  0  0  0  0  0  0  0  0  0  0  0  0
   -3.5321   13.0977  -31.3013 H   0  0  0  0  0  0  0  0  0  0  0  0
   -4.9801   11.6963  -32.7356 H   0  0  0  0  0  0  0  0  0  0  0  0
   -3.8062   13.0736  -28.8527 H   0  0  0  0  0  0  0  0  0  0  0  0
   -5.7197    9.0378  -35.7668 H   0  0  0  0  0  0  0  0  0  0  0  0
   -7.2797    9.8778  -35.8557 H   0  0  0  0  0  0  0  0  0  0  0  0
   -7.2083    8.1245  -36.0654 H   0  0  0  0  0  0  0  0  0  0  0  0
   -7.0570    9.0137  -31.5624 H   0  0  0  0  0  0  0  0  0  0  0  0
   -7.9722   10.4458  -32.0348 H   0  0  0  0  0  0  0  0  0  0  0  0
   -5.1805    7.6941  -33.3979 H   0  0  0  0  0  0  0  0  0  0  0  0
   -6.6636    7.1500  -32.5758 H   0  0  0  0  0  0  0  0  0  0  0  0
   -8.0316    8.7009  -33.7750 H   0  0  0  0  0  0  0  0  0  0  0  0
   -6.6677   10.7753  -33.8340 H   0  0  0  0  0  0  0  0  0  0  0  0
   -7.2075   10.1485  -28.1760 H   0  0  0  0  0  0  0  0  0  0  0  0
   -7.3547    6.3259  -34.5957 H   0  0  0  0  0  0  0  0  0  0  0  0
  1  2  1  0  0  0  0
  1  3  2  0  0  0  0
  2  4  2  0  0  0  0
  3  6  1  0  0  0  0
  4  5  1  0  0  0  0
  4  8  1  0  0  0  0
  5  6  2  0  0  0  0
  5 12  1  0  0  0  0
  6 14  1  0  0  0  0
  7 10  1  0  0  0  0
  8 11  1  0  0  0  0
  9 10  1  0  0  0  0
  9 13  1  0  0  0  0
 10 11  1  0  0  0  0
  1 15  1  0  0  0  0
  2 16  1  0  0  0  0
  3 17  1  0  0  0  0
  7 18  1  0  0  0  0
  7 19  1  0  0  0  0
  7 20  1  0  0  0  0
  8 21  1  0  0  0  0
  8 22  1  0  0  0  0
  9 23  1  0  0  0  0
  9 24  1  0  0  0  0
 10 25  1  0  0  0  0
 11 26  1  0  0  0  0
 12 27  1  0  0  0  0
 13 28  1  0  0  0  0
M  END
> <id>
EN300-167853

> <smiles>
CC(CO)NCC=1C=CC=C(Br)C1O

> <MDLNUMBER>
MFCD14656607

> <IUPAC Name>
2-bromo-6-{[(1-hydroxypropan-2-yl)amino]methyl}phenol

> <CAS>
1249949-94-7

> <URL>
https://www.enaminestore.com/catalog/EN300-167853

> <ROCS_ShapeQuery>
_x1604L0AP1_x0771L0AP1

> <ROCS_TanimotoCombo>
1.063 

> <ROCS_ShapeTanimoto>
0.576 

> <ROCS_ColorTanimoto>
0.487 

> <ROCS_RefTversky>
0.504 

> <ROCS_RefColorTversky>
0.603 

> <ROCS_RefTverskyCombo>
1.107 

> <ROCS_FitTversky>
1.326 

> <ROCS_FitColorTversky>
0.717 

> <ROCS_FitTverskyCombo>
2.043 

> <ROCS_ColorScore>
-5.795

> <ROCS_Overlap>
846.079

> <ROCS_Rank>
16                  

$$$$
untitled-dbase-923_126
  -OEChem-06052310023D

 21 21  0     0  0  0  0  0  0999 V2000
   -4.3428   11.9731  -31.4033 C   0  0  0  0  0  0  0  0  0  0  0  0
   -5.0319   10.8777  -31.9236 C   0  0  0  0  0  0  0  0  0  0  0  0
   -4.6237   12.4255  -30.1141 C   0  0  0  0  0  0  0  0  0  0  0  0
   -6.0020   10.2347  -31.1548 C   0  0  0  0  0  0  0  0  0  0  0  0
   -6.2830   10.6871  -29.8656 C   0  0  0  0  0  0  0  0  0  0  0  0
   -5.5938   11.7826  -29.3452 C   0  0  0  0  0  0  0  0  0  0  0  0
   -6.7050    9.0930  -31.7254 C   0  0  0  0  0  0  0  0  0  0  0  0
   -6.4905    8.5654  -32.9505 C   0  0  0  0  0  0  0  0  0  0  0  0
   -7.2280    7.3810  -33.4877 C   0  0  0  0  0  0  0  0  0  0  0  0
   -7.2347   10.0540  -29.1177 O   0  0  0  0  0  0  0  0  0  0  0  0
   -6.3664    6.6648  -34.3615 O   0  0  0  0  0  0  0  0  0  0  0  0
   -5.9438   12.4278  -27.5969 Br  0  0  0  0  0  0  0  0  0  0  0  0
   -3.5873   12.4743  -32.0010 H   0  0  0  0  0  0  0  0  0  0  0  0
   -4.8000   10.5365  -32.9299 H   0  0  0  0  0  0  0  0  0  0  0  0
   -4.0760   13.2804  -29.7255 H   0  0  0  0  0  0  0  0  0  0  0  0
   -7.4580    8.6176  -31.0890 H   0  0  0  0  0  0  0  0  0  0  0  0
   -5.7317    8.9898  -33.6025 H   0  0  0  0  0  0  0  0  0  0  0  0
   -7.5174    6.7208  -32.6641 H   0  0  0  0  0  0  0  0  0  0  0  0
   -8.1268    7.6680  -34.0425 H   0  0  0  0  0  0  0  0  0  0  0  0
   -7.6168    9.3193  -29.6205 H   0  0  0  0  0  0  0  0  0  0  0  0
   -6.8716    5.9047  -34.6929 H   0  0  0  0  0  0  0  0  0  0  0  0
  1  2  1  0  0  0  0
  1  3  2  0  0  0  0
  2  4  2  0  0  0  0
  3  6  1  0  0  0  0
  4  5  1  0  0  0  0
  4  7  1  0  0  0  0
  5  6  2  0  0  0  0
  5 10  1  0  0  0  0
  6 12  1  0  0  0  0
  7  8  2  3  0  0  0
  8  9  1  0  0  0  0
  9 11  1  0  0  0  0
  1 13  1  0  0  0  0
  2 14  1  0  0  0  0
  3 15  1  0  0  0  0
  7 16  1  0  0  0  0
  8 17  1  0  0  0  0
  9 18  1  0  0  0  0
  9 19  1  0  0  0  0
 10 20  1  0  0  0  0
 11 21  1  0  0  0  0
M  END
> <id>
EN300-1923404

> <smiles>
OCC=CC=1C=CC=C(Br)C1O

> <IUPAC Name>
2-bromo-6-(3-hydroxyprop-1-en-1-yl)phenol

> <CAS>
2229662-41-1

> <URL>
https://www.enaminestore.com/catalog/EN300-1923404

> <ROCS_ShapeQuery>
_x1604L0AP1_x0771L0AP1

> <ROCS_TanimotoCombo>
1.061 

> <ROCS_ShapeTanimoto>
0.488 

> <ROCS_ColorTanimoto>
0.573 

> <ROCS_RefTversky>
0.438 

> <ROCS_RefColorTversky>
0.601 

> <ROCS_RefTverskyCombo>
1.039 

> <ROCS_FitTversky>
1.308 

> <ROCS_FitColorTversky>
0.925 

> <ROCS_FitTverskyCombo>
2.233 

> <ROCS_ColorScore>
-5.720

> <ROCS_Overlap>
732.497

> <ROCS_Rank>
17                  

$$$$
untitled-dbase-450_103
  -OEChem-06052310023D

 27 27  0     0  0  0  0  0  0999 V2000
   -4.3582   12.1500  -31.2278 C   0  0  0  0  0  0  0  0  0  0  0  0
   -5.0848   11.1245  -31.8326 C   0  0  0  0  0  0  0  0  0  0  0  0
   -5.5677   11.7919  -29.1673 C   0  0  0  0  0  0  0  0  0  0  0  0
   -4.5995   12.4837  -29.8951 C   0  0  0  0  0  0  0  0  0  0  0  0
   -6.2944   10.7664  -29.7721 C   0  0  0  0  0  0  0  0  0  0  0  0
   -6.0530   10.4327  -31.1048 C   0  0  0  0  0  0  0  0  0  0  0  0
   -2.1097   15.1811  -29.4988 C   0  0  0  0  0  0  0  0  0  0  0  0
   -4.6896   14.1791  -27.0999 C   0  0  0  0  0  0  0  0  0  0  0  0
   -3.3733   14.6344  -30.0709 C   0  0  0  0  0  0  0  0  0  0  0  0
   -3.6041   13.4942  -27.8584 C   0  0  0  0  0  0  0  0  0  0  0  0
   -3.8649   13.5210  -29.2839 N   0  0  0  0  0  0  0  0  0  0  0  0
   -7.2334   10.1095  -29.0337 O   0  0  0  0  0  0  0  0  0  0  0  0
   -7.0213    9.0454  -31.9591 Br  0  0  0  0  0  0  0  0  0  0  0  0
   -3.6070   12.6836  -31.8045 H   0  0  0  0  0  0  0  0  0  0  0  0
   -4.8823   10.8787  -32.8720 H   0  0  0  0  0  0  0  0  0  0  0  0
   -5.7575   12.0499  -28.1280 H   0  0  0  0  0  0  0  0  0  0  0  0
   -1.3430   14.3925  -29.4820 H   0  0  0  0  0  0  0  0  0  0  0  0
   -1.7595   16.0197  -30.1184 H   0  0  0  0  0  0  0  0  0  0  0  0
   -2.2944   15.5347  -28.4737 H   0  0  0  0  0  0  0  0  0  0  0  0
   -5.6478   13.6754  -27.2948 H   0  0  0  0  0  0  0  0  0  0  0  0
   -4.4664   14.1386  -26.0236 H   0  0  0  0  0  0  0  0  0  0  0  0
   -4.7553   15.2290  -27.4216 H   0  0  0  0  0  0  0  0  0  0  0  0
   -4.1344   15.4285  -30.0842 H   0  0  0  0  0  0  0  0  0  0  0  0
   -3.1832   14.2914  -31.0986 H   0  0  0  0  0  0  0  0  0  0  0  0
   -2.6498   14.0035  -27.6584 H   0  0  0  0  0  0  0  0  0  0  0  0
   -3.5382   12.4480  -27.5251 H   0  0  0  0  0  0  0  0  0  0  0  0
   -7.6622    9.4252  -29.5707 H   0  0  0  0  0  0  0  0  0  0  0  0
  1  2  1  0  0  0  0
  1  4  2  0  0  0  0
  2  6  2  0  0  0  0
  3  4  1  0  0  0  0
  3  5  2  0  0  0  0
  4 11  1  0  0  0  0
  5  6  1  0  0  0  0
  5 12  1  0  0  0  0
  6 13  1  0  0  0  0
  7  9  1  0  0  0  0
  8 10  1  0  0  0  0
  9 11  1  0  0  0  0
 10 11  1  0  0  0  0
  1 14  1  0  0  0  0
  2 15  1  0  0  0  0
  3 16  1  0  0  0  0
  7 17  1  0  0  0  0
  7 18  1  0  0  0  0
  7 19  1  0  0  0  0
  8 20  1  0  0  0  0
  8 21  1  0  0  0  0
  8 22  1  0  0  0  0
  9 23  1  0  0  0  0
  9 24  1  0  0  0  0
 10 25  1  0  0  0  0
 10 26  1  0  0  0  0
 12 27  1  0  0  0  0
M  END
> <id>
EN300-1926804

> <smiles>
CCN(CC)C=1C=CC(Br)=C(O)C1

> <IUPAC Name>
2-bromo-5-(diethylamino)phenol

> <CAS>
2229002-72-4

> <URL>
https://www.enaminestore.com/catalog/EN300-1926804

> <ROCS_ShapeQuery>
_x1604L0AP1_x0771L0AP1

> <ROCS_TanimotoCombo>
1.061 

> <ROCS_ShapeTanimoto>
0.508 

> <ROCS_ColorTanimoto>
0.553 

> <ROCS_RefTversky>
0.458 

> <ROCS_RefColorTversky>
0.518 

> <ROCS_RefTverskyCombo>
0.976 

> <ROCS_FitTversky>
1.277 

> <ROCS_FitColorTversky>
1.138 

> <ROCS_FitTverskyCombo>
2.415 

> <ROCS_ColorScore>
-4.878

> <ROCS_Overlap>
766.785

> <ROCS_Rank>
18                  

$$$$
untitled-dbase-1091_23
  -OEChem-06052310023D

 26 26  0     1  0  0  0  0  0999 V2000
   -4.3278   12.1214  -31.2709 C   0  0  0  0  0  0  0  0  0  0  0  0
   -5.1692   11.2277  -31.9333 C   0  0  0  0  0  0  0  0  0  0  0  0
   -4.4569   12.3118  -29.8951 C   0  0  0  0  0  0  0  0  0  0  0  0
   -6.1399   10.5245  -31.2200 C   0  0  0  0  0  0  0  0  0  0  0  0
   -6.2691   10.7149  -29.8442 C   0  0  0  0  0  0  0  0  0  0  0  0
   -5.4275   11.6086  -29.1818 C   0  0  0  0  0  0  0  0  0  0  0  0
   -8.1049    6.7489  -32.6623 C   0  0  0  0  0  0  0  0  0  0  0  0
   -7.0398    9.5642  -31.9562 C   0  0  0  0  0  0  0  0  0  0  0  0
   -6.2821    8.4879  -32.7471 C   0  0  0  0  0  0  0  0  0  0  0  0
   -7.1882    7.5617  -33.5678 C   0  0  1  0  0  0  0  0  0  0  0  0
   -7.2247   10.0207  -29.1604 O   0  0  0  0  0  0  0  0  0  0  0  0
   -6.3804    6.6673  -34.3271 O   0  0  0  0  0  0  0  0  0  0  0  0
   -5.5706   11.8945  -27.3132 Br  0  0  0  0  0  0  0  0  0  0  0  0
   -3.5716   12.6687  -31.8262 H   0  0  0  0  0  0  0  0  0  0  0  0
   -5.0602   11.0836  -33.0050 H   0  0  0  0  0  0  0  0  0  0  0  0
   -3.7917   13.0121  -29.3962 H   0  0  0  0  0  0  0  0  0  0  0  0
   -7.5247    6.1526  -31.9494 H   0  0  0  0  0  0  0  0  0  0  0  0
   -8.7895    7.3959  -32.1056 H   0  0  0  0  0  0  0  0  0  0  0  0
   -8.6979    6.0423  -33.2530 H   0  0  0  0  0  0  0  0  0  0  0  0
   -7.7436    9.0942  -31.2582 H   0  0  0  0  0  0  0  0  0  0  0  0
   -7.6613   10.1443  -32.6509 H   0  0  0  0  0  0  0  0  0  0  0  0
   -5.6624    7.8891  -32.0685 H   0  0  0  0  0  0  0  0  0  0  0  0
   -5.5984    9.0097  -33.4297 H   0  0  0  0  0  0  0  0  0  0  0  0
   -7.7981    8.1446  -34.2663 H   0  0  0  0  0  0  0  0  0  0  0  0
   -7.1964   10.2540  -28.2201 H   0  0  0  0  0  0  0  0  0  0  0  0
   -5.8122    7.2167  -34.8894 H   0  0  0  0  0  0  0  0  0  0  0  0
  1  2  1  0  0  0  0
  1  3  2  0  0  0  0
  2  4  2  0  0  0  0
  3  6  1  0  0  0  0
  4  5  1  0  0  0  0
  4  8  1  0  0  0  0
  5  6  2  0  0  0  0
  5 11  1  0  0  0  0
  6 13  1  0  0  0  0
  7 10  1  0  0  0  0
  8  9  1  0  0  0  0
  9 10  1  0  0  0  0
 10 12  1  0  0  0  0
  1 14  1  0  0  0  0
  2 15  1  0  0  0  0
  3 16  1  0  0  0  0
  7 17  1  0  0  0  0
  7 18  1  0  0  0  0
  7 19  1  0  0  0  0
  8 20  1  0  0  0  0
  8 21  1  0  0  0  0
  9 22  1  0  0  0  0
  9 23  1  0  0  0  0
 10 24  1  0  0  0  0
 11 25  1  0  0  0  0
 12 26  1  0  0  0  0
M  END
> <id>
EN300-1923412

> <smiles>
CC(O)CCC=1C=CC=C(Br)C1O

> <IUPAC Name>
2-bromo-6-(3-hydroxybutyl)phenol

> <CAS>
2228647-79-6

> <URL>
https://www.enaminestore.com/catalog/EN300-1923412

> <ROCS_ShapeQuery>
_x1604L0AP1_x0771L0AP1

> <ROCS_TanimotoCombo>
1.059 

> <ROCS_ShapeTanimoto>
0.489 

> <ROCS_ColorTanimoto>
0.570 

> <ROCS_RefTversky>
0.445 

> <ROCS_RefColorTversky>
0.599 

> <ROCS_RefTverskyCombo>
1.044 

> <ROCS_FitTversky>
1.254 

> <ROCS_FitColorTversky>
0.922 

> <ROCS_FitTverskyCombo>
2.176 

> <ROCS_ColorScore>
-5.701

> <ROCS_Overlap>
744.712

> <ROCS_Rank>
19                  

$$$$
untitled-dbase-602_23
  -OEChem-06052310023D

 26 26  0     1  0  0  0  0  0999 V2000
   -4.3278   12.1214  -31.2709 C   0  0  0  0  0  0  0  0  0  0  0  0
   -5.1692   11.2277  -31.9333 C   0  0  0  0  0  0  0  0  0  0  0  0
   -4.4569   12.3118  -29.8951 C   0  0  0  0  0  0  0  0  0  0  0  0
   -6.1399   10.5245  -31.2200 C   0  0  0  0  0  0  0  0  0  0  0  0
   -6.2691   10.7149  -29.8442 C   0  0  0  0  0  0  0  0  0  0  0  0
   -5.4275   11.6086  -29.1818 C   0  0  0  0  0  0  0  0  0  0  0  0
   -8.1049    6.7489  -32.6623 C   0  0  0  0  0  0  0  0  0  0  0  0
   -7.0398    9.5642  -31.9562 C   0  0  0  0  0  0  0  0  0  0  0  0
   -6.2821    8.4879  -32.7471 C   0  0  0  0  0  0  0  0  0  0  0  0
   -7.1882    7.5617  -33.5678 C   0  0  1  0  0  0  0  0  0  0  0  0
   -7.2247   10.0207  -29.1604 O   0  0  0  0  0  0  0  0  0  0  0  0
   -6.3804    6.6673  -34.3271 O   0  0  0  0  0  0  0  0  0  0  0  0
   -5.5706   11.8945  -27.3132 Br  0  0  0  0  0  0  0  0  0  0  0  0
   -3.5716   12.6687  -31.8262 H   0  0  0  0  0  0  0  0  0  0  0  0
   -5.0602   11.0836  -33.0050 H   0  0  0  0  0  0  0  0  0  0  0  0
   -3.7917   13.0121  -29.3962 H   0  0  0  0  0  0  0  0  0  0  0  0
   -7.5247    6.1526  -31.9494 H   0  0  0  0  0  0  0  0  0  0  0  0
   -8.7895    7.3959  -32.1056 H   0  0  0  0  0  0  0  0  0  0  0  0
   -8.6979    6.0423  -33.2530 H   0  0  0  0  0  0  0  0  0  0  0  0
   -7.7436    9.0942  -31.2582 H   0  0  0  0  0  0  0  0  0  0  0  0
   -7.6613   10.1443  -32.6509 H   0  0  0  0  0  0  0  0  0  0  0  0
   -5.6624    7.8891  -32.0685 H   0  0  0  0  0  0  0  0  0  0  0  0
   -5.5984    9.0097  -33.4297 H   0  0  0  0  0  0  0  0  0  0  0  0
   -7.7981    8.1446  -34.2663 H   0  0  0  0  0  0  0  0  0  0  0  0
   -7.1964   10.2540  -28.2201 H   0  0  0  0  0  0  0  0  0  0  0  0
   -5.8122    7.2167  -34.8894 H   0  0  0  0  0  0  0  0  0  0  0  0
  1  2  1  0  0  0  0
  1  3  2  0  0  0  0
  2  4  2  0  0  0  0
  3  6  1  0  0  0  0
  4  5  1  0  0  0  0
  4  8  1  0  0  0  0
  5  6  2  0  0  0  0
  5 11  1  0  0  0  0
  6 13  1  0  0  0  0
  7 10  1  6  0  0  0
  8  9  1  0  0  0  0
  9 10  1  0  0  0  0
 10 12  1  0  0  0  0
  1 14  1  0  0  0  0
  2 15  1  0  0  0  0
  3 16  1  0  0  0  0
  7 17  1  0  0  0  0
  7 18  1  0  0  0  0
  7 19  1  0  0  0  0
  8 20  1  0  0  0  0
  8 21  1  0  0  0  0
  9 22  1  0  0  0  0
  9 23  1  0  0  0  0
 10 24  1  0  0  0  0
 11 25  1  0  0  0  0
 12 26  1  0  0  0  0
M  END
> <id>
EN300-1923414

> <smiles>
C[C@H](O)CCC=1C=CC=C(Br)C1O

> <IUPAC Name>
2-bromo-6-[(3S)-3-hydroxybutyl]phenol

> <CAS>
2227692-84-2

> <URL>
https://www.enaminestore.com/catalog/EN300-1923414

> <ROCS_ShapeQuery>
_x1604L0AP1_x0771L0AP1

> <ROCS_TanimotoCombo>
1.059 

> <ROCS_ShapeTanimoto>
0.489 

> <ROCS_ColorTanimoto>
0.570 

> <ROCS_RefTversky>
0.445 

> <ROCS_RefColorTversky>
0.599 

> <ROCS_RefTverskyCombo>
1.044 

> <ROCS_FitTversky>
1.254 

> <ROCS_FitColorTversky>
0.922 

> <ROCS_FitTverskyCombo>
2.176 

> <ROCS_ColorScore>
-5.701

> <ROCS_Overlap>
744.712

> <ROCS_Rank>
20                  

$$$$
untitled-dbase-1104_6
  -OEChem-06052310023D

 28 28  0     0  0  0  0  0  0999 V2000
   -4.2660   12.3144  -31.0246 C   0  0  0  0  0  0  0  0  0  0  0  0
   -4.9396   11.3154  -31.7273 C   0  0  0  0  0  0  0  0  0  0  0  0
   -4.5827   12.5623  -29.6889 C   0  0  0  0  0  0  0  0  0  0  0  0
   -5.9300   10.5643  -31.0944 C   0  0  0  0  0  0  0  0  0  0  0  0
   -6.2468   10.8122  -29.7587 C   0  0  0  0  0  0  0  0  0  0  0  0
   -5.5731   11.8112  -29.0560 C   0  0  0  0  0  0  0  0  0  0  0  0
   -6.5000    8.0509  -31.2868 C   0  0  0  0  0  0  0  0  0  0  0  0
   -8.1760    9.7789  -31.9053 C   0  0  0  0  0  0  0  0  0  0  0  0
   -6.1483    9.4304  -33.3523 C   0  0  0  0  0  0  0  0  0  0  0  0
   -6.6618    9.4670  -31.8898 C   0  0  0  0  0  0  0  0  0  0  0  0
   -6.2982    8.4598  -35.4528 N   0  0  0  0  0  0  0  0  0  0  0  0
   -7.2193   10.0700  -29.1539 O   0  0  0  0  0  0  0  0  0  0  0  0
   -6.8327    8.4317  -34.1012 O   0  0  0  0  0  0  0  0  0  0  0  0
   -5.9737   12.1780  -27.2397 Br  0  0  0  0  0  0  0  0  0  0  0  0
   -3.4945   12.8990  -31.5172 H   0  0  0  0  0  0  0  0  0  0  0  0
   -4.6849   11.1273  -32.7669 H   0  0  0  0  0  0  0  0  0  0  0  0
   -4.0467   13.3447  -29.1575 H   0  0  0  0  0  0  0  0  0  0  0  0
   -7.0340    7.2988  -31.8796 H   0  0  0  0  0  0  0  0  0  0  0  0
   -5.4449    7.7528  -31.2636 H   0  0  0  0  0  0  0  0  0  0  0  0
   -6.8728    7.9957  -30.2578 H   0  0  0  0  0  0  0  0  0  0  0  0
   -8.7312    9.0164  -32.4646 H   0  0  0  0  0  0  0  0  0  0  0  0
   -8.3748   10.7484  -32.3771 H   0  0  0  0  0  0  0  0  0  0  0  0
   -8.6006    9.8212  -30.8963 H   0  0  0  0  0  0  0  0  0  0  0  0
   -6.3242   10.3944  -33.8442 H   0  0  0  0  0  0  0  0  0  0  0  0
   -5.0745    9.2235  -33.4094 H   0  0  0  0  0  0  0  0  0  0  0  0
   -7.1566    8.5818  -35.9881 H   0  0  0  0  0  0  0  0  0  0  0  0
   -6.0230    7.4851  -35.5629 H   0  0  0  0  0  0  0  0  0  0  0  0
   -7.3292   10.3526  -28.2333 H   0  0  0  0  0  0  0  0  0  0  0  0
  1  2  1  0  0  0  0
  1  3  2  0  0  0  0
  2  4  2  0  0  0  0
  3  6  1  0  0  0  0
  4  5  1  0  0  0  0
  4 10  1  0  0  0  0
  5  6  2  0  0  0  0
  5 12  1  0  0  0  0
  6 14  1  0  0  0  0
  7 10  1  0  0  0  0
  8 10  1  0  0  0  0
  9 10  1  0  0  0  0
  9 13  1  0  0  0  0
 11 13  1  0  0  0  0
  1 15  1  0  0  0  0
  2 16  1  0  0  0  0
  3 17  1  0  0  0  0
  7 18  1  0  0  0  0
  7 19  1  0  0  0  0
  7 20  1  0  0  0  0
  8 21  1  0  0  0  0
  8 22  1  0  0  0  0
  8 23  1  0  0  0  0
  9 24  1  0  0  0  0
  9 25  1  0  0  0  0
 11 26  1  0  0  0  0
 11 27  1  0  0  0  0
 12 28  1  0  0  0  0
M  END
> <id>
EN300-1923138

> <smiles>
CC(C)(CON)C=1C=CC=C(Br)C1O

> <IUPAC Name>
2-[1-(aminooxy)-2-methylpropan-2-yl]-6-bromophenol

> <CAS>
2228527-83-9

> <URL>
https://www.enaminestore.com/catalog/EN300-1923138

> <ROCS_ShapeQuery>
_x1604L0AP1_x0771L0AP1

> <ROCS_TanimotoCombo>
1.048 

> <ROCS_ShapeTanimoto>
0.563 

> <ROCS_ColorTanimoto>
0.485 

> <ROCS_RefTversky>
0.498 

> <ROCS_RefColorTversky>
0.507 

> <ROCS_RefTverskyCombo>
1.005 

> <ROCS_FitTversky>
1.302 

> <ROCS_FitColorTversky>
0.917 

> <ROCS_FitTverskyCombo>
2.218 

> <ROCS_ColorScore>
-4.799

> <ROCS_Overlap>
835.815

> <ROCS_Rank>
21                  

$$$$
untitled-dbase-1609_90
  -OEChem-06052310023D

 21 21  0     0  0  0  0  0  0999 V2000
   -4.6010   12.4826  -29.8793 C   0  0  0  0  0  0  0  0  0  0  0  0
   -4.3660   12.1628  -31.2164 C   0  0  0  0  0  0  0  0  0  0  0  0
   -5.5661   11.7837  -29.1541 C   0  0  0  0  0  0  0  0  0  0  0  0
   -5.0962   11.1440  -31.8285 C   0  0  0  0  0  0  0  0  0  0  0  0
   -6.2962   10.7649  -29.7662 C   0  0  0  0  0  0  0  0  0  0  0  0
   -6.0613   10.4451  -31.1034 C   0  0  0  0  0  0  0  0  0  0  0  0
   -4.8068   10.8402  -33.2634 C   0  0  0  0  0  0  0  0  0  0  0  0
   -6.0380   10.9430  -34.1687 C   0  0  0  0  0  0  0  0  0  0  0  0
   -5.8616    8.3117  -36.1528 N   0  5  0  0  0  0  0  0  0  0  0  0
   -5.6689   10.6096  -35.5471 N   0  0  0  0  0  0  0  0  0  0  0  0
   -5.7708    9.4101  -35.8587 N   0  3  0  0  0  0  0  0  0  0  0  0
   -7.2316   10.1043  -29.0261 O   0  0  0  0  0  0  0  0  0  0  0  0
   -7.0634    9.0531  -31.9276 Br  0  0  0  0  0  0  0  0  0  0  0  0
   -4.0328   13.2762  -29.4028 H   0  0  0  0  0  0  0  0  0  0  0  0
   -3.6117   12.7140  -31.7721 H   0  0  0  0  0  0  0  0  0  0  0  0
   -5.7438   12.0391  -28.1129 H   0  0  0  0  0  0  0  0  0  0  0  0
   -4.0144   11.5043  -33.6458 H   0  0  0  0  0  0  0  0  0  0  0  0
   -4.3954    9.8208  -33.3411 H   0  0  0  0  0  0  0  0  0  0  0  0
   -6.8066   10.2369  -33.8382 H   0  0  0  0  0  0  0  0  0  0  0  0
   -6.4737   11.9474  -34.1377 H   0  0  0  0  0  0  0  0  0  0  0  0
   -7.6652    9.4249  -29.5654 H   0  0  0  0  0  0  0  0  0  0  0  0
  1  2  2  0  0  0  0
  1  3  1  0  0  0  0
  2  4  1  0  0  0  0
  3  5  2  0  0  0  0
  4  6  2  0  0  0  0
  4  7  1  0  0  0  0
  5  6  1  0  0  0  0
  5 12  1  0  0  0  0
  6 13  1  0  0  0  0
  7  8  1  0  0  0  0
  8 10  1  0  0  0  0
  9 11  2  0  0  0  0
 10 11  2  0  0  0  0
  1 14  1  0  0  0  0
  2 15  1  0  0  0  0
  3 16  1  0  0  0  0
  7 17  1  0  0  0  0
  7 18  1  0  0  0  0
  8 19  1  0  0  0  0
  8 20  1  0  0  0  0
 12 21  1  0  0  0  0
M  CHG  2   9  -1  11   1
M  END
> <id>
EN300-1904624

> <smiles>
OC=1C=CC=C(CCN=[N+]=[N-])C1Br

> <IUPAC Name>
3-(2-azidoethyl)-2-bromophenol

> <CAS>
2228160-44-7

> <URL>
https://www.enaminestore.com/catalog/EN300-1904624

> <ROCS_ShapeQuery>
_x1604L0AP1_x0771L0AP1

> <ROCS_TanimotoCombo>
1.047 

> <ROCS_ShapeTanimoto>
0.494 

> <ROCS_ColorTanimoto>
0.553 

> <ROCS_RefTversky>
0.450 

> <ROCS_RefColorTversky>
0.518 

> <ROCS_RefTverskyCombo>
0.968 

> <ROCS_FitTversky>
1.247 

> <ROCS_FitColorTversky>
1.139 

> <ROCS_FitTverskyCombo>
2.386 

> <ROCS_ColorScore>
-4.879

> <ROCS_Overlap>
753.318

> <ROCS_Rank>
22                  

$$$$
untitled-dbase-2169_64
  -OEChem-06052310023D

 25 25  0     1  0  0  0  0  0999 V2000
   -5.1739   11.8460  -31.6415 C   0  0  0  0  0  0  0  0  0  0  0  0
   -4.2605   12.2655  -29.4445 C   0  0  0  0  0  0  0  0  0  0  0  0
   -6.1732   11.0548  -31.0750 C   0  0  0  0  0  0  0  0  0  0  0  0
   -6.2162   10.8690  -29.6932 C   0  0  0  0  0  0  0  0  0  0  0  0
   -4.2175   12.4514  -30.8263 C   0  0  0  0  0  0  0  0  0  0  0  0
   -5.2598   11.4743  -28.8780 C   0  0  0  0  0  0  0  0  0  0  0  0
   -7.2120    8.8832  -31.8070 C   0  0  0  0  0  0  0  0  0  0  0  0
   -6.9942   10.7796  -33.4553 C   0  0  0  0  0  0  0  0  0  0  0  0
   -7.1873   10.4159  -31.9661 C   0  0  2  0  0  0  0  0  0  0  0  0
   -5.7878   10.3685  -35.3924 N   0  0  0  0  0  0  0  0  0  0  0  0
   -7.2000   10.0919  -29.1541 O   0  0  0  0  0  0  0  0  0  0  0  0
   -5.9354    9.9962  -33.9948 O   0  0  0  0  0  0  0  0  0  0  0  0
   -2.9844   13.4275  -31.5259 Cl  0  0  0  0  0  0  0  0  0  0  0  0
   -5.2850   11.2453  -26.9960 Br  0  0  0  0  0  0  0  0  0  0  0  0
   -5.1441   11.9889  -32.7197 H   0  0  0  0  0  0  0  0  0  0  0  0
   -3.5125   12.7390  -28.8123 H   0  0  0  0  0  0  0  0  0  0  0  0
   -6.2450    8.4375  -32.0645 H   0  0  0  0  0  0  0  0  0  0  0  0
   -7.4498    8.5884  -30.7792 H   0  0  0  0  0  0  0  0  0  0  0  0
   -7.9690    8.4423  -32.4651 H   0  0  0  0  0  0  0  0  0  0  0  0
   -6.7206   11.8336  -33.5741 H   0  0  0  0  0  0  0  0  0  0  0  0
   -7.9006   10.5919  -34.0403 H   0  0  0  0  0  0  0  0  0  0  0  0
   -8.1974   10.7731  -31.6864 H   0  0  0  0  0  0  0  0  0  0  0  0
   -5.8716    9.4553  -35.8366 H   0  0  0  0  0  0  0  0  0  0  0  0
   -4.7991   10.6132  -35.4151 H   0  0  0  0  0  0  0  0  0  0  0  0
   -7.1037   10.0543  -28.1904 H   0  0  0  0  0  0  0  0  0  0  0  0
  1  3  2  0  0  0  0
  1  5  1  0  0  0  0
  2  5  2  0  0  0  0
  2  6  1  0  0  0  0
  3  4  1  0  0  0  0
  3  9  1  0  0  0  0
  4  6  2  0  0  0  0
  4 11  1  0  0  0  0
  5 13  1  0  0  0  0
  6 14  1  0  0  0  0
  7  9  1  0  0  0  0
  8  9  1  0  0  0  0
  8 12  1  0  0  0  0
 10 12  1  0  0  0  0
  1 15  1  0  0  0  0
  2 16  1  0  0  0  0
  7 17  1  0  0  0  0
  7 18  1  0  0  0  0
  7 19  1  0  0  0  0
  8 20  1  0  0  0  0
  8 21  1  0  0  0  0
  9 22  1  0  0  0  0
 10 23  1  0  0  0  0
 10 24  1  0  0  0  0
 11 25  1  0  0  0  0
M  END
> <id>
EN300-1922567

> <smiles>
CC(CON)C=1C=C(Cl)C=C(Br)C1O

> <IUPAC Name>
2-[1-(aminooxy)propan-2-yl]-6-bromo-4-chlorophenol

> <CAS>
2229145-15-5

> <URL>
https://www.enaminestore.com/catalog/EN300-1922567

> <ROCS_ShapeQuery>
_x1604L0AP1_x0771L0AP1

> <ROCS_TanimotoCombo>
1.046 

> <ROCS_ShapeTanimoto>
0.573 

> <ROCS_ColorTanimoto>
0.473 

> <ROCS_RefTversky>
0.502 

> <ROCS_RefColorTversky>
0.498 

> <ROCS_RefTverskyCombo>
1.000 

> <ROCS_FitTversky>
1.332 

> <ROCS_FitColorTversky>
0.901 

> <ROCS_FitTverskyCombo>
2.233 

> <ROCS_ColorScore>
-4.718

> <ROCS_Overlap>
841.239

> <ROCS_Rank>
23                  

$$$$
untitled-dbase-39_549
  -OEChem-06052310023D

 28 28  0     1  0  0  0  0  0999 V2000
   -4.3183   12.2386  -31.1187 C   0  0  0  0  0  0  0  0  0  0  0  0
   -5.2590   11.4876  -31.8234 C   0  0  0  0  0  0  0  0  0  0  0  0
   -4.3527   12.2690  -29.7246 C   0  0  0  0  0  0  0  0  0  0  0  0
   -6.2342   10.7670  -31.1340 C   0  0  0  0  0  0  0  0  0  0  0  0
   -6.2688   10.7974  -29.7399 C   0  0  0  0  0  0  0  0  0  0  0  0
   -5.3280   11.5484  -29.0352 C   0  0  0  0  0  0  0  0  0  0  0  0
   -5.3213    8.5692  -35.1376 C   0  0  0  0  0  0  0  0  0  0  0  0
   -7.2378    9.9662  -31.9123 C   0  0  0  0  0  0  0  0  0  0  0  0
   -7.4664    8.5321  -33.8233 C   0  0  0  0  0  0  0  0  0  0  0  0
   -6.6451    7.8503  -34.9148 C   0  0  2  0  0  0  0  0  0  0  0  0
   -6.5991    8.9506  -32.7453 N   0  0  0  0  0  0  0  0  0  0  0  0
   -7.2301   10.0885  -29.0797 O   0  0  0  0  0  0  0  0  0  0  0  0
   -6.3736    6.5096  -34.5107 O   0  0  0  0  0  0  0  0  0  0  0  0
   -5.3407   11.6147  -27.1406 Br  0  0  0  0  0  0  0  0  0  0  0  0
   -3.5586   12.7993  -31.6554 H   0  0  0  0  0  0  0  0  0  0  0  0
   -5.2234   11.4675  -32.9094 H   0  0  0  0  0  0  0  0  0  0  0  0
   -3.6110   12.8596  -29.1927 H   0  0  0  0  0  0  0  0  0  0  0  0
   -4.7364    8.6212  -34.2143 H   0  0  0  0  0  0  0  0  0  0  0  0
   -4.7246    8.0633  -35.9048 H   0  0  0  0  0  0  0  0  0  0  0  0
   -5.4948    9.5895  -35.4966 H   0  0  0  0  0  0  0  0  0  0  0  0
   -7.9347    9.4587  -31.2364 H   0  0  0  0  0  0  0  0  0  0  0  0
   -7.8322   10.6114  -32.5677 H   0  0  0  0  0  0  0  0  0  0  0  0
   -7.9826    9.4136  -34.2183 H   0  0  0  0  0  0  0  0  0  0  0  0
   -8.2181    7.8461  -33.4195 H   0  0  0  0  0  0  0  0  0  0  0  0
   -7.2095    7.8125  -35.8537 H   0  0  0  0  0  0  0  0  0  0  0  0
   -6.3626    8.1463  -32.1584 H   0  0  0  0  0  0  0  0  0  0  0  0
   -7.1302   10.2040  -28.1226 H   0  0  0  0  0  0  0  0  0  0  0  0
   -5.8682    6.1023  -35.2308 H   0  0  0  0  0  0  0  0  0  0  0  0
  1  2  1  0  0  0  0
  1  3  2  0  0  0  0
  2  4  2  0  0  0  0
  3  6  1  0  0  0  0
  4  5  1  0  0  0  0
  4  8  1  0  0  0  0
  5  6  2  0  0  0  0
  5 12  1  0  0  0  0
  6 14  1  0  0  0  0
  7 10  1  0  0  0  0
  8 11  1  0  0  0  0
  9 10  1  0  0  0  0
  9 11  1  0  0  0  0
 10 13  1  0  0  0  0
  1 15  1  0  0  0  0
  2 16  1  0  0  0  0
  3 17  1  0  0  0  0
  7 18  1  0  0  0  0
  7 19  1  0  0  0  0
  7 20  1  0  0  0  0
  8 21  1  0  0  0  0
  8 22  1  0  0  0  0
  9 23  1  0  0  0  0
  9 24  1  0  0  0  0
 10 25  1  0  0  0  0
 11 26  1  0  0  0  0
 12 27  1  0  0  0  0
 13 28  1  0  0  0  0
M  END
> <id>
EN300-167852

> <smiles>
CC(O)CNCC=1C=CC=C(Br)C1O

> <MDLNUMBER>
MFCD14656606

> <IUPAC Name>
2-bromo-6-{[(2-hydroxypropyl)amino]methyl}phenol

> <CAS>
1251077-28-7

> <URL>
https://www.enaminestore.com/catalog/EN300-167852

> <ROCS_ShapeQuery>
_x1604L0AP1_x0771L0AP1

> <ROCS_TanimotoCombo>
1.045 

> <ROCS_ShapeTanimoto>
0.547 

> <ROCS_ColorTanimoto>
0.498 

> <ROCS_RefTversky>
0.488 

> <ROCS_RefColorTversky>
0.612 

> <ROCS_RefTverskyCombo>
1.100 

> <ROCS_FitTversky>
1.285 

> <ROCS_FitColorTversky>
0.728 

> <ROCS_FitTverskyCombo>
2.013 

> <ROCS_ColorScore>
-5.883

> <ROCS_Overlap>
818.053

> <ROCS_Rank>
24                  

$$$$
untitled-dbase-112_1
  -OEChem-06052310023D

 16 16  0     0  0  0  0  0  0999 V2000
   -4.3879   12.1808  -31.2395 C   0  0  0  0  0  0  0  0  0  0  0  0
   -5.1029   11.1448  -31.8403 C   0  0  0  0  0  0  0  0  0  0  0  0
   -5.5890   11.8128  -29.1757 C   0  0  0  0  0  0  0  0  0  0  0  0
   -4.6309   12.5148  -29.9071 C   0  0  0  0  0  0  0  0  0  0  0  0
   -6.3041   10.7768  -29.7766 C   0  0  0  0  0  0  0  0  0  0  0  0
   -6.0610   10.4428  -31.1089 C   0  0  0  0  0  0  0  0  0  0  0  0
   -3.8659   13.6216  -29.2641 C   0  0  0  0  0  0  0  0  0  0  0  0
   -7.2313   10.1082  -29.0339 O   0  0  0  0  0  0  0  0  0  0  0  0
   -2.6184   13.7193  -29.7944 F   0  0  0  0  0  0  0  0  0  0  0  0
   -3.7022   13.3876  -27.9355 F   0  0  0  0  0  0  0  0  0  0  0  0
   -7.0134    9.0416  -31.9585 Br  0  0  0  0  0  0  0  0  0  0  0  0
   -3.6417   12.7210  -31.8163 H   0  0  0  0  0  0  0  0  0  0  0  0
   -4.8999   10.8987  -32.8795 H   0  0  0  0  0  0  0  0  0  0  0  0
   -5.7794   12.0721  -28.1368 H   0  0  0  0  0  0  0  0  0  0  0  0
   -4.3558   14.5908  -29.3767 H   0  0  0  0  0  0  0  0  0  0  0  0
   -7.6528    9.4176  -29.5684 H   0  0  0  0  0  0  0  0  0  0  0  0
  1  2  1  0  0  0  0
  1  4  2  0  0  0  0
  2  6  2  0  0  0  0
  3  4  1  0  0  0  0
  3  5  2  0  0  0  0
  4  7  1  0  0  0  0
  5  6  1  0  0  0  0
  5  8  1  0  0  0  0
  6 11  1  0  0  0  0
  7  9  1  0  0  0  0
  7 10  1  0  0  0  0
  1 12  1  0  0  0  0
  2 13  1  0  0  0  0
  3 14  1  0  0  0  0
  7 15  1  0  0  0  0
  8 16  1  0  0  0  0
M  END
> <id>
EN300-382862

> <smiles>
OC=1C=C(C=CC1Br)C(F)F

> <MDLNUMBER>
MFCD18391147

> <IUPAC Name>
2-bromo-5-(difluoromethyl)phenol

> <CAS>
1261760-40-0

> <Purity>
95

> <URL>
https://www.enaminestore.com/catalog/EN300-382862

> <ROCS_ShapeQuery>
_x1604L0AP1_x0771L0AP1

> <ROCS_TanimotoCombo>
1.045 

> <ROCS_ShapeTanimoto>
0.492 

> <ROCS_ColorTanimoto>
0.552 

> <ROCS_RefTversky>
0.435 

> <ROCS_RefColorTversky>
0.518 

> <ROCS_RefTverskyCombo>
0.952 

> <ROCS_FitTversky>
1.368 

> <ROCS_FitColorTversky>
1.138 

> <ROCS_FitTverskyCombo>
2.506 

> <ROCS_ColorScore>
-4.875

> <ROCS_Overlap>
726.504

> <ROCS_Rank>
25                  

$$$$
untitled-dbase-2193_88
  -OEChem-06052310023D

 27 28  0     0  0  0  0  0  0999 V2000
   -4.3226   12.1230  -31.2620 C   0  0  0  0  0  0  0  0  0  0  0  0
   -5.1383   11.2006  -31.9172 C   0  0  0  0  0  0  0  0  0  0  0  0
   -4.4798   12.3448  -29.8938 C   0  0  0  0  0  0  0  0  0  0  0  0
   -6.1112   10.5000  -31.2044 C   0  0  0  0  0  0  0  0  0  0  0  0
   -6.2685   10.7218  -29.8363 C   0  0  0  0  0  0  0  0  0  0  0  0
   -5.4527   11.6442  -29.1810 C   0  0  0  0  0  0  0  0  0  0  0  0
   -8.0427    6.6155  -32.4850 C   0  0  0  0  0  0  0  0  0  0  0  0
   -8.5013    7.6478  -33.4774 C   0  0  0  0  0  0  0  0  0  0  0  0
   -7.0315    7.3852  -33.2908 C   0  0  0  0  0  0  0  0  0  0  0  0
   -6.9829    9.5084  -31.9328 C   0  0  0  0  0  0  0  0  0  0  0  0
   -6.1656    8.4018  -32.6275 C   0  0  0  0  0  0  0  0  0  0  0  0
   -7.2260   10.0298  -29.1529 O   0  0  0  0  0  0  0  0  0  0  0  0
   -6.3782    6.6559  -34.3429 O   0  0  0  0  0  0  0  0  0  0  0  0
   -5.6344   11.9733  -27.3229 Br  0  0  0  0  0  0  0  0  0  0  0  0
   -3.5646   12.6682  -31.8169 H   0  0  0  0  0  0  0  0  0  0  0  0
   -5.0074   11.0322  -32.9829 H   0  0  0  0  0  0  0  0  0  0  0  0
   -3.8345   13.0672  -29.4003 H   0  0  0  0  0  0  0  0  0  0  0  0
   -8.1519    6.8477  -31.4325 H   0  0  0  0  0  0  0  0  0  0  0  0
   -8.2078    5.5733  -32.7305 H   0  0  0  0  0  0  0  0  0  0  0  0
   -8.9738    7.2968  -34.3871 H   0  0  0  0  0  0  0  0  0  0  0  0
   -8.9161    8.5695  -33.0874 H   0  0  0  0  0  0  0  0  0  0  0  0
   -7.6895    9.0491  -31.2293 H   0  0  0  0  0  0  0  0  0  0  0  0
   -7.5939   10.0306  -32.6805 H   0  0  0  0  0  0  0  0  0  0  0  0
   -5.4836    8.8702  -33.3627 H   0  0  0  0  0  0  0  0  0  0  0  0
   -5.5063    7.9217  -31.8793 H   0  0  0  0  0  0  0  0  0  0  0  0
   -7.2185   10.2863  -28.2183 H   0  0  0  0  0  0  0  0  0  0  0  0
   -5.9240    5.9199  -33.9116 H   0  0  0  0  0  0  0  0  0  0  0  0
  1  2  1  0  0  0  0
  1  3  2  0  0  0  0
  2  4  2  0  0  0  0
  3  6  1  0  0  0  0
  4  5  1  0  0  0  0
  4 10  1  0  0  0  0
  5  6  2  0  0  0  0
  5 12  1  0  0  0  0
  6 14  1  0  0  0  0
  7  8  1  0  0  0  0
  7  9  1  0  0  0  0
  8  9  1  0  0  0  0
  9 11  1  0  0  0  0
  9 13  1  0  0  0  0
 10 11  1  0  0  0  0
  1 15  1  0  0  0  0
  2 16  1  0  0  0  0
  3 17  1  0  0  0  0
  7 18  1  0  0  0  0
  7 19  1  0  0  0  0
  8 20  1  0  0  0  0
  8 21  1  0  0  0  0
 10 22  1  0  0  0  0
 10 23  1  0  0  0  0
 11 24  1  0  0  0  0
 11 25  1  0  0  0  0
 12 26  1  0  0  0  0
 13 27  1  0  0  0  0
M  END
> <id>
EN300-1923483

> <smiles>
OC=1C(Br)=CC=CC1CCC2(O)CC2

> <IUPAC Name>
2-bromo-6-[2-(1-hydroxycyclopropyl)ethyl]phenol

> <CAS>
2229005-31-4

> <URL>
https://www.enaminestore.com/catalog/EN300-1923483

> <ROCS_ShapeQuery>
_x1604L0AP1_x0771L0AP1

> <ROCS_TanimotoCombo>
1.044 

> <ROCS_ShapeTanimoto>
0.470 

> <ROCS_ColorTanimoto>
0.575 

> <ROCS_RefTversky>
0.444 

> <ROCS_RefColorTversky>
0.602 

> <ROCS_RefTverskyCombo>
1.046 

> <ROCS_FitTversky>
1.143 

> <ROCS_FitColorTversky>
0.926 

> <ROCS_FitTverskyCombo>
2.069 

> <ROCS_ColorScore>
-5.729

> <ROCS_Overlap>
744.543

> <ROCS_Rank>
26                  

$$$$
untitled-dbase-45_0
  -OEChem-06052310023D

 13 13  0     0  0  0  0  0  0999 V2000
   -5.5601   11.7781  -29.1428 C   0  0  0  0  0  0  0  0  0  0  0  0
   -5.0589   11.1228  -31.8077 C   0  0  0  0  0  0  0  0  0  0  0  0
   -6.2894   10.7619  -29.7601 C   0  0  0  0  0  0  0  0  0  0  0  0
   -4.5803   12.4667  -29.8579 C   0  0  0  0  0  0  0  0  0  0  0  0
   -4.3297   12.1390  -31.1904 C   0  0  0  0  0  0  0  0  0  0  0  0
   -6.0388   10.4342  -31.0926 C   0  0  0  0  0  0  0  0  0  0  0  0
   -7.2398   10.1084  -29.0335 O   0  0  0  0  0  0  0  0  0  0  0  0
   -3.8877   13.4410  -29.2507 F   0  0  0  0  0  0  0  0  0  0  0  0
   -3.1215   12.9856  -32.0778 Cl  0  0  0  0  0  0  0  0  0  0  0  0
   -7.0103    9.0592  -31.9633 Br  0  0  0  0  0  0  0  0  0  0  0  0
   -5.7497   12.0389  -28.1051 H   0  0  0  0  0  0  0  0  0  0  0  0
   -4.8608   10.8698  -32.8472 H   0  0  0  0  0  0  0  0  0  0  0  0
   -7.6694    9.4306  -29.5780 H   0  0  0  0  0  0  0  0  0  0  0  0
  1  3  2  0  0  0  0
  1  4  1  0  0  0  0
  2  5  1  0  0  0  0
  2  6  2  0  0  0  0
  3  6  1  0  0  0  0
  3  7  1  0  0  0  0
  4  5  2  0  0  0  0
  4  8  1  0  0  0  0
  5  9  1  0  0  0  0
  6 10  1  0  0  0  0
  1 11  1  0  0  0  0
  2 12  1  0  0  0  0
  7 13  1  0  0  0  0
M  END
> <id>
EN300-194438

> <smiles>
OC=1C=C(F)C(Cl)=CC1Br

> <MDLNUMBER>
MFCD26895908

> <IUPAC Name>
2-bromo-4-chloro-5-fluorophenol

> <CAS>
157165-23-6

> <Purity>
95

> <URL>
https://www.enaminestore.com/catalog/EN300-194438

> <ROCS_ShapeQuery>
_x1604L0AP1_x0771L0AP1

> <ROCS_TanimotoCombo>
1.044 

> <ROCS_ShapeTanimoto>
0.491 

> <ROCS_ColorTanimoto>
0.553 

> <ROCS_RefTversky>
0.424 

> <ROCS_RefColorTversky>
0.518 

> <ROCS_RefTverskyCombo>
0.942 

> <ROCS_FitTversky>
1.473 

> <ROCS_FitColorTversky>
1.139 

> <ROCS_FitTverskyCombo>
2.611 

> <ROCS_ColorScore>
-4.879

> <ROCS_Overlap>
707.829

> <ROCS_Rank>
27                  

$$$$
untitled-dbase-228_0
  -OEChem-06052310023D

 13 13  0     0  0  0  0  0  0999 V2000
   -5.5637   11.7805  -29.1445 C   0  0  0  0  0  0  0  0  0  0  0  0
   -5.0660   11.1271  -31.8106 C   0  0  0  0  0  0  0  0  0  0  0  0
   -6.2909   10.7620  -29.7604 C   0  0  0  0  0  0  0  0  0  0  0  0
   -4.5877   12.4725  -29.8617 C   0  0  0  0  0  0  0  0  0  0  0  0
   -4.3388   12.1458  -31.1947 C   0  0  0  0  0  0  0  0  0  0  0  0
   -6.0420   10.4353  -31.0934 C   0  0  0  0  0  0  0  0  0  0  0  0
   -7.2384   10.1057  -29.0325 O   0  0  0  0  0  0  0  0  0  0  0  0
   -3.8907   13.4521  -29.2712 F   0  0  0  0  0  0  0  0  0  0  0  0
   -3.4024   12.8115  -31.8833 F   0  0  0  0  0  0  0  0  0  0  0  0
   -7.0110    9.0579  -31.9630 Br  0  0  0  0  0  0  0  0  0  0  0  0
   -5.7538   12.0432  -28.1076 H   0  0  0  0  0  0  0  0  0  0  0  0
   -4.8583   10.8876  -32.8502 H   0  0  0  0  0  0  0  0  0  0  0  0
   -7.6666    9.4265  -29.5763 H   0  0  0  0  0  0  0  0  0  0  0  0
  1  3  2  0  0  0  0
  1  4  1  0  0  0  0
  2  5  1  0  0  0  0
  2  6  2  0  0  0  0
  3  6  1  0  0  0  0
  3  7  1  0  0  0  0
  4  5  2  0  0  0  0
  4  8  1  0  0  0  0
  5  9  1  0  0  0  0
  6 10  1  0  0  0  0
  1 11  1  0  0  0  0
  2 12  1  0  0  0  0
  7 13  1  0  0  0  0
M  END
> <id>
EN300-224945

> <smiles>
OC=1C=C(F)C(F)=CC1Br

> <MDLNUMBER>
MFCD00070751

> <IUPAC Name>
2-bromo-4,5-difluorophenol

> <CAS>
166281-37-4

> <Purity>
95

> <URL>
https://www.enaminestore.com/catalog/EN300-224945

> <ROCS_ShapeQuery>
_x1604L0AP1_x0771L0AP1

> <ROCS_TanimotoCombo>
1.044 

> <ROCS_ShapeTanimoto>
0.491 

> <ROCS_ColorTanimoto>
0.553 

> <ROCS_RefTversky>
0.426 

> <ROCS_RefColorTversky>
0.518 

> <ROCS_RefTverskyCombo>
0.945 

> <ROCS_FitTversky>
1.446 

> <ROCS_FitColorTversky>
1.139 

> <ROCS_FitTverskyCombo>
2.584 

> <ROCS_ColorScore>
-4.879

> <ROCS_Overlap>
711.876

> <ROCS_Rank>
28                  

$$$$
untitled-dbase-1482_0
  -OEChem-06052310023D

 16 16  0     0  0  0  0  0  0999 V2000
   -5.0668   11.1280  -31.8137 C   0  0  0  0  0  0  0  0  0  0  0  0
   -5.5628   11.7834  -29.1478 C   0  0  0  0  0  0  0  0  0  0  0  0
   -4.3388   12.1466  -31.1989 C   0  0  0  0  0  0  0  0  0  0  0  0
   -6.2909   10.7649  -29.7626 C   0  0  0  0  0  0  0  0  0  0  0  0
   -4.5868   12.4743  -29.8659 C   0  0  0  0  0  0  0  0  0  0  0  0
   -6.0430   10.4372  -31.0956 C   0  0  0  0  0  0  0  0  0  0  0  0
   -3.3013   12.8623  -32.0023 C   0  0  0  0  0  0  0  0  0  0  0  0
   -7.2375   10.1082  -29.0338 O   0  0  0  0  0  0  0  0  0  0  0  0
   -3.7062   13.7285  -29.0722 Cl  0  0  0  0  0  0  0  0  0  0  0  0
   -7.0127    9.0583  -31.9626 Br  0  0  0  0  0  0  0  0  0  0  0  0
   -4.8677   10.8777  -32.8534 H   0  0  0  0  0  0  0  0  0  0  0  0
   -5.7627   12.0322  -28.1079 H   0  0  0  0  0  0  0  0  0  0  0  0
   -3.7438   13.7290  -32.5060 H   0  0  0  0  0  0  0  0  0  0  0  0
   -2.4784   13.2091  -31.3659 H   0  0  0  0  0  0  0  0  0  0  0  0
   -2.8635   12.2018  -32.7604 H   0  0  0  0  0  0  0  0  0  0  0  0
   -7.6663    9.4292  -29.5774 H   0  0  0  0  0  0  0  0  0  0  0  0
  1  3  2  0  0  0  0
  1  6  1  0  0  0  0
  2  4  1  0  0  0  0
  2  5  2  0  0  0  0
  3  5  1  0  0  0  0
  3  7  1  0  0  0  0
  4  6  2  0  0  0  0
  4  8  1  0  0  0  0
  5  9  1  0  0  0  0
  6 10  1  0  0  0  0
  1 11  1  0  0  0  0
  2 12  1  0  0  0  0
  7 13  1  0  0  0  0
  7 14  1  0  0  0  0
  7 15  1  0  0  0  0
  8 16  1  0  0  0  0
M  END
> <id>
EN300-248208

> <smiles>
CC=1C=C(Br)C(O)=CC1Cl

> <MDLNUMBER>
MFCD11894407

> <IUPAC Name>
2-bromo-5-chloro-4-methylphenol

> <CAS>
1175754-49-0

> <Purity>
95

> <URL>
https://www.enaminestore.com/catalog/EN300-248208

> <ROCS_ShapeQuery>
_x1604L0AP1_x0771L0AP1

> <ROCS_TanimotoCombo>
1.043 

> <ROCS_ShapeTanimoto>
0.490 

> <ROCS_ColorTanimoto>
0.553 

> <ROCS_RefTversky>
0.423 

> <ROCS_RefColorTversky>
0.518 

> <ROCS_RefTverskyCombo>
0.941 

> <ROCS_FitTversky>
1.483 

> <ROCS_FitColorTversky>
1.139 

> <ROCS_FitTverskyCombo>
2.622 

> <ROCS_ColorScore>
-4.879

> <ROCS_Overlap>
705.251

> <ROCS_Rank>
29                  

$$$$
untitled-dbase-143_33
  -OEChem-06052310023D

 17 17  0     0  0  0  0  0  0999 V2000
   -4.6010   12.4839  -29.8474 C   0  0  0  0  0  0  0  0  0  0  0  0
   -5.5759   11.7858  -29.1349 C   0  0  0  0  0  0  0  0  0  0  0  0
   -5.0693   11.1432  -31.8019 C   0  0  0  0  0  0  0  0  0  0  0  0
   -4.3477   12.1627  -31.1810 C   0  0  0  0  0  0  0  0  0  0  0  0
   -6.2975   10.7663  -29.7558 C   0  0  0  0  0  0  0  0  0  0  0  0
   -6.0442   10.4449  -31.0894 C   0  0  0  0  0  0  0  0  0  0  0  0
   -3.3050   12.9096  -31.9416 C   0  0  0  0  0  0  0  0  0  0  0  0
   -7.2422   10.1021  -29.0315 O   0  0  0  0  0  0  0  0  0  0  0  0
   -2.2314   13.9033  -30.8608 S   0  0  0  0  0  0  0  0  0  0  0  0
   -7.0042    9.0647  -31.9645 Br  0  0  0  0  0  0  0  0  0  0  0  0
   -4.0441   13.2765  -29.3544 H   0  0  0  0  0  0  0  0  0  0  0  0
   -5.7677   12.0417  -28.0962 H   0  0  0  0  0  0  0  0  0  0  0  0
   -4.8653   10.8998  -32.8425 H   0  0  0  0  0  0  0  0  0  0  0  0
   -2.6712   12.2200  -32.5185 H   0  0  0  0  0  0  0  0  0  0  0  0
   -3.7680   13.5825  -32.6785 H   0  0  0  0  0  0  0  0  0  0  0  0
   -7.6666    9.4231  -29.5786 H   0  0  0  0  0  0  0  0  0  0  0  0
   -1.7709   12.8735  -30.1385 H   0  0  0  0  0  0  0  0  0  0  0  0
  1  2  1  0  0  0  0
  1  4  2  0  0  0  0
  2  5  2  0  0  0  0
  3  4  1  0  0  0  0
  3  6  2  0  0  0  0
  4  7  1  0  0  0  0
  5  6  1  0  0  0  0
  5  8  1  0  0  0  0
  6 10  1  0  0  0  0
  7  9  1  0  0  0  0
  1 11  1  0  0  0  0
  2 12  1  0  0  0  0
  3 13  1  0  0  0  0
  7 14  1  0  0  0  0
  7 15  1  0  0  0  0
  8 16  1  0  0  0  0
  9 17  1  0  0  0  0
M  END
> <id>
EN300-1288750

> <smiles>
OC=1C=CC(CS)=CC1Br

> <MDLNUMBER>
MFCD33493935

> <IUPAC Name>
2-bromo-4-(sulfanylmethyl)phenol

> <CAS>
1895992-66-1

> <URL>
https://www.enaminestore.com/catalog/EN300-1288750

> <ROCS_ShapeQuery>
_x1604L0AP1_x0771L0AP1

> <ROCS_TanimotoCombo>
1.039 

> <ROCS_ShapeTanimoto>
0.486 

> <ROCS_ColorTanimoto>
0.553 

> <ROCS_RefTversky>
0.419 

> <ROCS_RefColorTversky>
0.518 

> <ROCS_RefTverskyCombo>
0.937 

> <ROCS_FitTversky>
1.484 

> <ROCS_FitColorTversky>
1.138 

> <ROCS_FitTverskyCombo>
2.622 

> <ROCS_ColorScore>
-4.878

> <ROCS_Overlap>
699.693

> <ROCS_Rank>
30                  

$$$$
untitled-dbase-1158_46
  -OEChem-06052310023D

 27 28  0     0  0  0  0  0  0999 V2000
   -4.4041   11.7874  -31.5992 C   0  0  0  0  0  0  0  0  0  0  0  0
   -5.2925   10.8312  -32.0910 C   0  0  0  0  0  0  0  0  0  0  0  0
   -4.4643   12.1718  -30.2596 C   0  0  0  0  0  0  0  0  0  0  0  0
   -6.2413   10.2594  -31.2433 C   0  0  0  0  0  0  0  0  0  0  0  0
   -6.3015   10.6438  -29.9038 C   0  0  0  0  0  0  0  0  0  0  0  0
   -5.4130   11.6000  -29.4120 C   0  0  0  0  0  0  0  0  0  0  0  0
   -5.2493    7.5285  -31.7098 C   0  0  0  0  0  0  0  0  0  0  0  0
   -6.5232    6.7334  -31.6791 C   0  0  0  0  0  0  0  0  0  0  0  0
   -6.4796    8.0539  -32.4119 C   0  0  0  0  0  0  0  0  0  0  0  0
   -7.1958    9.2252  -31.7979 C   0  0  0  0  0  0  0  0  0  0  0  0
   -6.4993    8.0268  -33.9155 C   0  0  0  0  0  0  0  0  0  0  0  0
   -7.2364   10.0765  -29.0873 O   0  0  0  0  0  0  0  0  0  0  0  0
   -6.3490    6.6854  -34.3657 O   0  0  0  0  0  0  0  0  0  0  0  0
   -5.4620   12.1483  -27.5979 Br  0  0  0  0  0  0  0  0  0  0  0  0
   -3.6650   12.2324  -32.2590 H   0  0  0  0  0  0  0  0  0  0  0  0
   -5.2371   10.5358  -33.1354 H   0  0  0  0  0  0  0  0  0  0  0  0
   -3.7633   12.9181  -29.8944 H   0  0  0  0  0  0  0  0  0  0  0  0
   -4.9325    8.0064  -30.7903 H   0  0  0  0  0  0  0  0  0  0  0  0
   -4.4322    7.1463  -32.3102 H   0  0  0  0  0  0  0  0  0  0  0  0
   -6.5592    5.8187  -32.2590 H   0  0  0  0  0  0  0  0  0  0  0  0
   -7.0594    6.6788  -30.7391 H   0  0  0  0  0  0  0  0  0  0  0  0
   -7.8666    8.8889  -30.9900 H   0  0  0  0  0  0  0  0  0  0  0  0
   -7.8545    9.7083  -32.5386 H   0  0  0  0  0  0  0  0  0  0  0  0
   -5.6779    8.6249  -34.3307 H   0  0  0  0  0  0  0  0  0  0  0  0
   -7.4484    8.4177  -34.3041 H   0  0  0  0  0  0  0  0  0  0  0  0
   -7.1593   10.4384  -28.1915 H   0  0  0  0  0  0  0  0  0  0  0  0
   -5.4963    6.3712  -34.0251 H   0  0  0  0  0  0  0  0  0  0  0  0
  1  2  1  0  0  0  0
  1  3  2  0  0  0  0
  2  4  2  0  0  0  0
  3  6  1  0  0  0  0
  4  5  1  0  0  0  0
  4 10  1  0  0  0  0
  5  6  2  0  0  0  0
  5 12  1  0  0  0  0
  6 14  1  0  0  0  0
  7  8  1  0  0  0  0
  7  9  1  0  0  0  0
  8  9  1  0  0  0  0
  9 10  1  0  0  0  0
  9 11  1  0  0  0  0
 11 13  1  0  0  0  0
  1 15  1  0  0  0  0
  2 16  1  0  0  0  0
  3 17  1  0  0  0  0
  7 18  1  0  0  0  0
  7 19  1  0  0  0  0
  8 20  1  0  0  0  0
  8 21  1  0  0  0  0
 10 22  1  0  0  0  0
 10 23  1  0  0  0  0
 11 24  1  0  0  0  0
 11 25  1  0  0  0  0
 12 26  1  0  0  0  0
 13 27  1  0  0  0  0
M  END
> <id>
EN300-1923478

> <smiles>
OCC1(CC=2C=CC=C(Br)C2O)CC1

> <IUPAC Name>
2-bromo-6-{[1-(hydroxymethyl)cyclopropyl]methyl}phenol

> <CAS>
2229283-04-7

> <URL>
https://www.enaminestore.com/catalog/EN300-1923478

> <ROCS_ShapeQuery>
_x1604L0AP1_x0771L0AP1

> <ROCS_TanimotoCombo>
1.035 

> <ROCS_ShapeTanimoto>
0.476 

> <ROCS_ColorTanimoto>
0.559 

> <ROCS_RefTversky>
0.448 

> <ROCS_RefColorTversky>
0.592 

> <ROCS_RefTverskyCombo>
1.040 

> <ROCS_FitTversky>
1.153 

> <ROCS_FitColorTversky>
0.910 

> <ROCS_FitTverskyCombo>
2.063 

> <ROCS_ColorScore>
-5.630

> <ROCS_Overlap>
751.536

> <ROCS_Rank>
31                  

$$$$
untitled-dbase-1481_0
  -OEChem-06052310023D

 16 16  0     0  0  0  0  0  0999 V2000
   -5.5748   11.7821  -29.1288 C   0  0  0  0  0  0  0  0  0  0  0  0
   -4.6019   12.4881  -29.8363 C   0  0  0  0  0  0  0  0  0  0  0  0
   -5.0693   11.1626  -31.8015 C   0  0  0  0  0  0  0  0  0  0  0  0
   -6.2949   10.7663  -29.7575 C   0  0  0  0  0  0  0  0  0  0  0  0
   -4.3492   12.1784  -31.1726 C   0  0  0  0  0  0  0  0  0  0  0  0
   -6.0421   10.4566  -31.0939 C   0  0  0  0  0  0  0  0  0  0  0  0
   -4.7635   10.8664  -33.2347 C   0  0  0  0  0  0  0  0  0  0  0  0
   -7.2381   10.0983  -29.0342 O   0  0  0  0  0  0  0  0  0  0  0  0
   -3.4123   12.8641  -31.8427 F   0  0  0  0  0  0  0  0  0  0  0  0
   -3.7834   11.6593  -33.7568 F   0  0  0  0  0  0  0  0  0  0  0  0
   -4.3410    9.5864  -33.4465 F   0  0  0  0  0  0  0  0  0  0  0  0
   -5.8469   11.0366  -34.0449 F   0  0  0  0  0  0  0  0  0  0  0  0
   -7.0299    9.0688  -31.9418 Br  0  0  0  0  0  0  0  0  0  0  0  0
   -5.7665   12.0297  -28.0881 H   0  0  0  0  0  0  0  0  0  0  0  0
   -4.0411   13.2790  -29.3470 H   0  0  0  0  0  0  0  0  0  0  0  0
   -7.6634    9.4220  -29.5837 H   0  0  0  0  0  0  0  0  0  0  0  0
  1  2  1  0  0  0  0
  1  4  2  0  0  0  0
  2  5  2  0  0  0  0
  3  5  1  0  0  0  0
  3  6  2  0  0  0  0
  3  7  1  0  0  0  0
  4  6  1  0  0  0  0
  4  8  1  0  0  0  0
  5  9  1  0  0  0  0
  6 13  1  0  0  0  0
  7 10  1  0  0  0  0
  7 11  1  0  0  0  0
  7 12  1  0  0  0  0
  1 14  1  0  0  0  0
  2 15  1  0  0  0  0
  8 16  1  0  0  0  0
M  END
> <id>
EN300-7504014

> <smiles>
OC=1C=CC(F)=C(C1Br)C(F)(F)F

> <MDLNUMBER>
MFCD28739058

> <IUPAC Name>
2-bromo-4-fluoro-3-(trifluoromethyl)phenol

> <CAS>
1805498-52-5

> <Purity>
95

> <URL>
https://www.enaminestore.com/catalog/EN300-7504014

> <ROCS_ShapeQuery>
_x1604L0AP1_x0771L0AP1

> <ROCS_TanimotoCombo>
1.035 

> <ROCS_ShapeTanimoto>
0.481 

> <ROCS_ColorTanimoto>
0.554 

> <ROCS_RefTversky>
0.448 

> <ROCS_RefColorTversky>
0.519 

> <ROCS_RefTverskyCombo>
0.966 

> <ROCS_FitTversky>
1.183 

> <ROCS_FitColorTversky>
1.139 

> <ROCS_FitTverskyCombo>
2.322 

> <ROCS_ColorScore>
-4.882

> <ROCS_Overlap>
750.995

> <ROCS_Rank>
32                  

$$$$
untitled-dbase-546_97
  -OEChem-06052310023D

 24 24  0     0  0  0  0  0  0999 V2000
   -4.2951   12.3586  -30.9697 C   0  0  0  0  0  0  0  0  0  0  0  0
   -4.9859   11.3764  -31.6794 C   0  0  0  0  0  0  0  0  0  0  0  0
   -4.5863   12.5816  -29.6239 C   0  0  0  0  0  0  0  0  0  0  0  0
   -5.9681   10.6172  -31.0432 C   0  0  0  0  0  0  0  0  0  0  0  0
   -6.2593   10.8402  -29.6974 C   0  0  0  0  0  0  0  0  0  0  0  0
   -5.5684   11.8224  -28.9878 C   0  0  0  0  0  0  0  0  0  0  0  0
   -6.8264    7.2427  -33.7754 C   0  0  0  0  0  0  0  0  0  0  0  0
   -6.7032    9.5618  -31.8293 C   0  0  0  0  0  0  0  0  0  0  0  0
   -7.2362    8.6541  -34.1207 C   0  0  0  0  0  0  0  0  0  0  0  0
   -6.4559    9.7011  -33.3325 C   0  0  0  0  0  0  0  0  0  0  0  0
   -6.3983    6.4221  -34.5799 O   0  0  0  0  0  0  0  0  0  0  0  0
   -7.2241   10.0904  -29.0895 O   0  0  0  0  0  0  0  0  0  0  0  0
   -5.9341   12.1551  -27.1576 Br  0  0  0  0  0  0  0  0  0  0  0  0
   -3.5300   12.9494  -31.4648 H   0  0  0  0  0  0  0  0  0  0  0  0
   -4.7510   11.2076  -32.7269 H   0  0  0  0  0  0  0  0  0  0  0  0
   -4.0371   13.3510  -29.0872 H   0  0  0  0  0  0  0  0  0  0  0  0
   -6.9375    6.9743  -32.7106 H   0  0  0  0  0  0  0  0  0  0  0  0
   -7.7774    9.6302  -31.6151 H   0  0  0  0  0  0  0  0  0  0  0  0
   -6.3904    8.5678  -31.4847 H   0  0  0  0  0  0  0  0  0  0  0  0
   -7.0784    8.7888  -35.1961 H   0  0  0  0  0  0  0  0  0  0  0  0
   -8.3089    8.7439  -33.9184 H   0  0  0  0  0  0  0  0  0  0  0  0
   -5.3842    9.6008  -33.5475 H   0  0  0  0  0  0  0  0  0  0  0  0
   -6.7433   10.7058  -33.6685 H   0  0  0  0  0  0  0  0  0  0  0  0
   -7.3159   10.3553  -28.1617 H   0  0  0  0  0  0  0  0  0  0  0  0
  1  2  1  0  0  0  0
  1  3  2  0  0  0  0
  2  4  2  0  0  0  0
  3  6  1  0  0  0  0
  4  5  1  0  0  0  0
  4  8  1  0  0  0  0
  5  6  2  0  0  0  0
  5 12  1  0  0  0  0
  6 13  1  0  0  0  0
  7  9  1  0  0  0  0
  7 11  2  0  0  0  0
  8 10  1  0  0  0  0
  9 10  1  0  0  0  0
  1 14  1  0  0  0  0
  2 15  1  0  0  0  0
  3 16  1  0  0  0  0
  7 17  1  0  0  0  0
  8 18  1  0  0  0  0
  8 19  1  0  0  0  0
  9 20  1  0  0  0  0
  9 21  1  0  0  0  0
 10 22  1  0  0  0  0
 10 23  1  0  0  0  0
 12 24  1  0  0  0  0
M  END
> <id>
EN300-1923457

> <smiles>
OC=1C(Br)=CC=CC1CCCC=O

> <IUPAC Name>
4-(3-bromo-2-hydroxyphenyl)butanal

> <CAS>
2229006-63-5

> <URL>
https://www.enaminestore.com/catalog/EN300-1923457

> <ROCS_ShapeQuery>
_x1604L0AP1_x0771L0AP1

> <ROCS_TanimotoCombo>
1.035 

> <ROCS_ShapeTanimoto>
0.543 

> <ROCS_ColorTanimoto>
0.492 

> <ROCS_RefTversky>
0.477 

> <ROCS_RefColorTversky>
0.512 

> <ROCS_RefTverskyCombo>
0.989 

> <ROCS_FitTversky>
1.342 

> <ROCS_FitColorTversky>
0.925 

> <ROCS_FitTverskyCombo>
2.267 

> <ROCS_ColorScore>
-4.845

> <ROCS_Overlap>
799.214

> <ROCS_Rank>
33                  

$$$$
untitled-dbase-1589_20
  -OEChem-06052310023D

 22 22  0     0  0  0  0  0  0999 V2000
   -4.5956   12.4837  -29.8432 C   0  0  0  0  0  0  0  0  0  0  0  0
   -4.3341   12.1611  -31.1748 C   0  0  0  0  0  0  0  0  0  0  0  0
   -5.5740   11.7853  -29.1356 C   0  0  0  0  0  0  0  0  0  0  0  0
   -5.0510   11.1402  -31.7988 C   0  0  0  0  0  0  0  0  0  0  0  0
   -6.2909   10.7643  -29.7596 C   0  0  0  0  0  0  0  0  0  0  0  0
   -6.0294   10.4418  -31.0912 C   0  0  0  0  0  0  0  0  0  0  0  0
   -4.7332   10.8335  -33.2270 C   0  0  0  0  0  0  0  0  0  0  0  0
   -5.3363   11.8422  -34.2046 C   0  0  0  0  0  0  0  0  0  0  0  0
   -7.2946   10.7334  -34.7636 N   0  0  0  0  0  0  0  0  0  0  0  0
   -7.2399   10.1043  -29.0365 O   0  0  0  0  0  0  0  0  0  0  0  0
   -6.7491   11.8754  -34.0472 O   0  0  0  0  0  0  0  0  0  0  0  0
   -7.0136    9.0468  -31.9317 Br  0  0  0  0  0  0  0  0  0  0  0  0
   -4.0377   13.2790  -29.3575 H   0  0  0  0  0  0  0  0  0  0  0  0
   -3.5696   12.7120  -31.7168 H   0  0  0  0  0  0  0  0  0  0  0  0
   -5.7724   12.0429  -28.0986 H   0  0  0  0  0  0  0  0  0  0  0  0
   -3.6429   10.7979  -33.3687 H   0  0  0  0  0  0  0  0  0  0  0  0
   -5.1098    9.8313  -33.4782 H   0  0  0  0  0  0  0  0  0  0  0  0
   -4.9519   12.8451  -33.9926 H   0  0  0  0  0  0  0  0  0  0  0  0
   -5.1027   11.5881  -35.2438 H   0  0  0  0  0  0  0  0  0  0  0  0
   -7.9642   11.2002  -35.3736 H   0  0  0  0  0  0  0  0  0  0  0  0
   -7.8357   10.2909  -34.0226 H   0  0  0  0  0  0  0  0  0  0  0  0
   -7.6621    9.4233  -29.5826 H   0  0  0  0  0  0  0  0  0  0  0  0
  1  2  1  0  0  0  0
  1  3  2  0  0  0  0
  2  4  2  0  0  0  0
  3  5  1  0  0  0  0
  4  6  1  0  0  0  0
  4  7  1  0  0  0  0
  5  6  2  0  0  0  0
  5 10  1  0  0  0  0
  6 12  1  0  0  0  0
  7  8  1  0  0  0  0
  8 11  1  0  0  0  0
  9 11  1  0  0  0  0
  1 13  1  0  0  0  0
  2 14  1  0  0  0  0
  3 15  1  0  0  0  0
  7 16  1  0  0  0  0
  7 17  1  0  0  0  0
  8 18  1  0  0  0  0
  8 19  1  0  0  0  0
  9 20  1  0  0  0  0
  9 21  1  0  0  0  0
 10 22  1  0  0  0  0
M  END
> <id>
EN300-1904522

> <smiles>
NOCCC=1C=CC=C(O)C1Br

> <IUPAC Name>
3-[2-(aminooxy)ethyl]-2-bromophenol

> <CAS>
2228574-21-6

> <URL>
https://www.enaminestore.com/catalog/EN300-1904522

> <ROCS_ShapeQuery>
_x1604L0AP1_x0771L0AP1

> <ROCS_TanimotoCombo>
1.033 

> <ROCS_ShapeTanimoto>
0.480 

> <ROCS_ColorTanimoto>
0.554 

> <ROCS_RefTversky>
0.432 

> <ROCS_RefColorTversky>
0.519 

> <ROCS_RefTverskyCombo>
0.951 

> <ROCS_FitTversky>
1.299 

> <ROCS_FitColorTversky>
1.140 

> <ROCS_FitTverskyCombo>
2.439 

> <ROCS_ColorScore>
-4.883

> <ROCS_Overlap>
722.530

> <ROCS_Rank>
34                  

$$$$
untitled-dbase-515_32
  -OEChem-06052310023D

 25 25  0     0  0  0  0  0  0999 V2000
   -4.2954   12.2206  -31.1167 C   0  0  0  0  0  0  0  0  0  0  0  0
   -5.1132   11.3243  -31.8048 C   0  0  0  0  0  0  0  0  0  0  0  0
   -4.4623   12.4046  -29.7441 C   0  0  0  0  0  0  0  0  0  0  0  0
   -6.0979   10.6120  -31.1203 C   0  0  0  0  0  0  0  0  0  0  0  0
   -6.2648   10.7959  -29.7477 C   0  0  0  0  0  0  0  0  0  0  0  0
   -5.4470   11.6922  -29.0596 C   0  0  0  0  0  0  0  0  0  0  0  0
   -8.0226    8.9210  -31.0195 C   0  0  0  0  0  0  0  0  0  0  0  0
   -6.1034    8.6108  -32.6178 C   0  0  0  0  0  0  0  0  0  0  0  0
   -6.9632    9.6583  -31.8766 C   0  0  0  0  0  0  0  0  0  0  0  0
   -6.8340   10.5688  -34.0052 N   0  0  0  0  0  0  0  0  0  0  0  0
   -7.2337   10.0928  -29.0923 O   0  0  0  0  0  0  0  0  0  0  0  0
   -7.7257   10.3603  -32.8843 O   0  0  0  0  0  0  0  0  0  0  0  0
   -5.6416   11.9695  -27.1943 Br  0  0  0  0  0  0  0  0  0  0  0  0
   -3.5283   12.7750  -31.6495 H   0  0  0  0  0  0  0  0  0  0  0  0
   -4.9747   11.1853  -32.8737 H   0  0  0  0  0  0  0  0  0  0  0  0
   -3.8152   13.1070  -29.2248 H   0  0  0  0  0  0  0  0  0  0  0  0
   -8.6303    8.2343  -31.6210 H   0  0  0  0  0  0  0  0  0  0  0  0
   -7.5680    8.3379  -30.2125 H   0  0  0  0  0  0  0  0  0  0  0  0
   -8.7192    9.6421  -30.5756 H   0  0  0  0  0  0  0  0  0  0  0  0
   -6.7167    7.8980  -33.1814 H   0  0  0  0  0  0  0  0  0  0  0  0
   -5.4748    8.0472  -31.9199 H   0  0  0  0  0  0  0  0  0  0  0  0
   -5.4482    9.0991  -33.3490 H   0  0  0  0  0  0  0  0  0  0  0  0
   -6.9176   11.5787  -34.1111 H   0  0  0  0  0  0  0  0  0  0  0  0
   -7.3881   10.1514  -34.7513 H   0  0  0  0  0  0  0  0  0  0  0  0
   -7.2320   10.3224  -28.1507 H   0  0  0  0  0  0  0  0  0  0  0  0
  1  2  1  0  0  0  0
  1  3  2  0  0  0  0
  2  4  2  0  0  0  0
  3  6  1  0  0  0  0
  4  5  1  0  0  0  0
  4  9  1  0  0  0  0
  5  6  2  0  0  0  0
  5 11  1  0  0  0  0
  6 13  1  0  0  0  0
  7  9  1  0  0  0  0
  8  9  1  0  0  0  0
  9 12  1  0  0  0  0
 10 12  1  0  0  0  0
  1 14  1  0  0  0  0
  2 15  1  0  0  0  0
  3 16  1  0  0  0  0
  7 17  1  0  0  0  0
  7 18  1  0  0  0  0
  7 19  1  0  0  0  0
  8 20  1  0  0  0  0
  8 21  1  0  0  0  0
  8 22  1  0  0  0  0
 10 23  1  0  0  0  0
 10 24  1  0  0  0  0
 11 25  1  0  0  0  0
M  END
> <id>
EN300-1923139

> <smiles>
CC(C)(ON)C=1C=CC=C(Br)C1O

> <IUPAC Name>
2-[2-(aminooxy)propan-2-yl]-6-bromophenol

> <CAS>
2229364-70-7

> <URL>
https://www.enaminestore.com/catalog/EN300-1923139

> <ROCS_ShapeQuery>
_x1604L0AP1_x0771L0AP1

> <ROCS_TanimotoCombo>
1.033 

> <ROCS_ShapeTanimoto>
0.537 

> <ROCS_ColorTanimoto>
0.497 

> <ROCS_RefTversky>
0.477 

> <ROCS_RefColorTversky>
0.515 

> <ROCS_RefTverskyCombo>
0.992 

> <ROCS_FitTversky>
1.306 

> <ROCS_FitColorTversky>
0.932 

> <ROCS_FitTverskyCombo>
2.238 

> <ROCS_ColorScore>
-4.879

> <ROCS_Overlap>
798.903

> <ROCS_Rank>
35                  

$$$$
untitled-dbase-493_57
  -OEChem-06052310023D

 20 20  0     0  0  0  0  0  0999 V2000
   -4.9079   11.7377  -31.5532 C   0  0  0  0  0  0  0  0  0  0  0  0
   -4.4314   12.4798  -29.3039 C   0  0  0  0  0  0  0  0  0  0  0  0
   -5.9265   10.9182  -31.0671 C   0  0  0  0  0  0  0  0  0  0  0  0
   -6.1977   10.8795  -29.6994 C   0  0  0  0  0  0  0  0  0  0  0  0
   -4.1603   12.5185  -30.6716 C   0  0  0  0  0  0  0  0  0  0  0  0
   -5.4501   11.6603  -28.8178 C   0  0  0  0  0  0  0  0  0  0  0  0
   -7.2262    8.9224  -31.6426 C   0  0  0  0  0  0  0  0  0  0  0  0
   -6.6907   10.1136  -32.0116 C   0  0  0  0  0  0  0  0  0  0  0  0
   -6.9451   10.6339  -33.4139 C   0  0  0  0  0  0  0  0  0  0  0  0
   -7.1963   10.0750  -29.2289 O   0  0  0  0  0  0  0  0  0  0  0  0
   -2.9033   13.5296  -31.2715 Cl  0  0  0  0  0  0  0  0  0  0  0  0
   -7.1065    9.2807  -34.5598 Cl  0  0  0  0  0  0  0  0  0  0  0  0
   -5.7874   11.6361  -26.9519 Br  0  0  0  0  0  0  0  0  0  0  0  0
   -4.6943   11.7703  -32.6199 H   0  0  0  0  0  0  0  0  0  0  0  0
   -3.8455   13.0903  -28.6196 H   0  0  0  0  0  0  0  0  0  0  0  0
   -7.7967    8.3168  -32.3395 H   0  0  0  0  0  0  0  0  0  0  0  0
   -7.0996    8.5202  -30.6422 H   0  0  0  0  0  0  0  0  0  0  0  0
   -7.8699   11.2164  -33.4839 H   0  0  0  0  0  0  0  0  0  0  0  0
   -6.1346   11.2815  -33.7598 H   0  0  0  0  0  0  0  0  0  0  0  0
   -7.2621   10.1571  -28.2658 H   0  0  0  0  0  0  0  0  0  0  0  0
  1  3  2  0  0  0  0
  1  5  1  0  0  0  0
  2  5  2  0  0  0  0
  2  6  1  0  0  0  0
  3  4  1  0  0  0  0
  3  8  1  0  0  0  0
  4  6  2  0  0  0  0
  4 10  1  0  0  0  0
  5 11  1  0  0  0  0
  6 13  1  0  0  0  0
  7  8  2  0  0  0  0
  8  9  1  0  0  0  0
  9 12  1  0  0  0  0
  1 14  1  0  0  0  0
  2 15  1  0  0  0  0
  7 16  1  0  0  0  0
  7 17  1  0  0  0  0
  9 18  1  0  0  0  0
  9 19  1  0  0  0  0
 10 20  1  0  0  0  0
M  END
> <id>
EN300-1922944

> <smiles>
OC=1C(Br)=CC(Cl)=CC1C(=C)CCl

> <IUPAC Name>
2-bromo-4-chloro-6-(3-chloroprop-1-en-2-yl)phenol

> <CAS>
2228542-26-3

> <URL>
https://www.enaminestore.com/catalog/EN300-1922944

> <ROCS_ShapeQuery>
_x1604L0AP1_x0771L0AP1

> <ROCS_TanimotoCombo>
1.033 

> <ROCS_ShapeTanimoto>
0.582 

> <ROCS_ColorTanimoto>
0.451 

> <ROCS_RefTversky>
0.498 

> <ROCS_RefColorTversky>
0.483 

> <ROCS_RefTverskyCombo>
0.980 

> <ROCS_FitTversky>
1.412 

> <ROCS_FitColorTversky>
0.873 

> <ROCS_FitTverskyCombo>
2.284 

> <ROCS_ColorScore>
-4.568

> <ROCS_Overlap>
833.641

> <ROCS_Rank>
36                  

$$$$
untitled-dbase-1406_43
  -OEChem-06052310023D

 19 19  0     0  0  0  0  0  0999 V2000
   -4.6039   12.4887  -29.8552 C   0  0  0  0  0  0  0  0  0  0  0  0
   -4.3519   12.1709  -31.1897 C   0  0  0  0  0  0  0  0  0  0  0  0
   -5.5751   11.7858  -29.1422 C   0  0  0  0  0  0  0  0  0  0  0  0
   -5.0712   11.1503  -31.8115 C   0  0  0  0  0  0  0  0  0  0  0  0
   -6.2945   10.7651  -29.7639 C   0  0  0  0  0  0  0  0  0  0  0  0
   -6.0425   10.4473  -31.0985 C   0  0  0  0  0  0  0  0  0  0  0  0
   -4.7636   10.8488  -33.2430 C   0  0  0  0  0  0  0  0  0  0  0  0
   -6.6087   12.2254  -33.5216 N   0  0  0  0  0  0  0  0  0  0  0  0
   -7.2363   10.1006  -29.0357 O   0  0  0  0  0  0  0  0  0  0  0  0
   -5.9357   11.0379  -34.0242 O   0  0  0  0  0  0  0  0  0  0  0  0
   -7.0299    9.0528  -31.9359 Br  0  0  0  0  0  0  0  0  0  0  0  0
   -4.0441   13.2837  -29.3713 H   0  0  0  0  0  0  0  0  0  0  0  0
   -3.5929   12.7252  -31.7359 H   0  0  0  0  0  0  0  0  0  0  0  0
   -5.7661   12.0396  -28.1030 H   0  0  0  0  0  0  0  0  0  0  0  0
   -3.9734   11.5065  -33.6266 H   0  0  0  0  0  0  0  0  0  0  0  0
   -4.4205    9.8134  -33.3620 H   0  0  0  0  0  0  0  0  0  0  0  0
   -7.5351   11.8466  -33.3306 H   0  0  0  0  0  0  0  0  0  0  0  0
   -6.6884   12.7704  -34.3786 H   0  0  0  0  0  0  0  0  0  0  0  0
   -7.6612    9.4203  -29.5807 H   0  0  0  0  0  0  0  0  0  0  0  0
  1  2  1  0  0  0  0
  1  3  2  0  0  0  0
  2  4  2  0  0  0  0
  3  5  1  0  0  0  0
  4  6  1  0  0  0  0
  4  7  1  0  0  0  0
  5  6  2  0  0  0  0
  5  9  1  0  0  0  0
  6 11  1  0  0  0  0
  7 10  1  0  0  0  0
  8 10  1  0  0  0  0
  1 12  1  0  0  0  0
  2 13  1  0  0  0  0
  3 14  1  0  0  0  0
  7 15  1  0  0  0  0
  7 16  1  0  0  0  0
  8 17  1  0  0  0  0
  8 18  1  0  0  0  0
  9 19  1  0  0  0  0
M  END
> <id>
EN300-1904519

> <smiles>
NOCC=1C=CC=C(O)C1Br

> <MDLNUMBER>
MFCD33499664

> <IUPAC Name>
3-[(aminooxy)methyl]-2-bromophenol

> <CAS>
20978-38-5

> <URL>
https://www.enaminestore.com/catalog/EN300-1904519

> <ROCS_ShapeQuery>
_x1604L0AP1_x0771L0AP1

> <ROCS_TanimotoCombo>
1.033 

> <ROCS_ShapeTanimoto>
0.479 

> <ROCS_ColorTanimoto>
0.554 

> <ROCS_RefTversky>
0.425 

> <ROCS_RefColorTversky>
0.519 

> <ROCS_RefTverskyCombo>
0.944 

> <ROCS_FitTversky>
1.364 

> <ROCS_FitColorTversky>
1.139 

> <ROCS_FitTverskyCombo>
2.503 

> <ROCS_ColorScore>
-4.883

> <ROCS_Overlap>
710.238

> <ROCS_Rank>
37                  

$$$$
untitled-dbase-1094_113
  -OEChem-06052310023D

 22 22  0     0  0  0  0  0  0999 V2000
   -4.3599   12.1705  -31.2135 C   0  0  0  0  0  0  0  0  0  0  0  0
   -4.6045   12.4962  -29.8794 C   0  0  0  0  0  0  0  0  0  0  0  0
   -5.0814   11.1449  -31.8246 C   0  0  0  0  0  0  0  0  0  0  0  0
   -5.5704   11.7963  -29.1564 C   0  0  0  0  0  0  0  0  0  0  0  0
   -6.2918   10.7706  -29.7674 C   0  0  0  0  0  0  0  0  0  0  0  0
   -6.0472   10.4450  -31.1015 C   0  0  0  0  0  0  0  0  0  0  0  0
   -5.0160   13.1868  -27.3084 C   0  0  0  0  0  0  0  0  0  0  0  0
   -4.7821   10.8362  -33.2564 C   0  0  0  0  0  0  0  0  0  0  0  0
   -6.6945    8.9664  -35.1898 N   0  5  0  0  0  0  0  0  0  0  0  0
   -5.9688   10.9631  -34.1093 N   0  0  0  0  0  0  0  0  0  0  0  0
   -6.3431    9.9192  -34.6705 N   0  3  0  0  0  0  0  0  0  0  0  0
   -7.2317   10.1007  -29.0392 O   0  0  0  0  0  0  0  0  0  0  0  0
   -5.7978   12.1261  -27.8542 O   0  0  0  0  0  0  0  0  0  0  0  0
   -7.0426    9.0501  -31.9302 Br  0  0  0  0  0  0  0  0  0  0  0  0
   -3.6054   12.7227  -31.7676 H   0  0  0  0  0  0  0  0  0  0  0  0
   -4.0397   13.2971  -29.4099 H   0  0  0  0  0  0  0  0  0  0  0  0
   -5.2967   13.3476  -26.2647 H   0  0  0  0  0  0  0  0  0  0  0  0
   -5.1835   14.0989  -27.8866 H   0  0  0  0  0  0  0  0  0  0  0  0
   -3.9595   12.9132  -27.3612 H   0  0  0  0  0  0  0  0  0  0  0  0
   -3.9935   11.5006  -33.6368 H   0  0  0  0  0  0  0  0  0  0  0  0
   -4.3869    9.8157  -33.3542 H   0  0  0  0  0  0  0  0  0  0  0  0
   -7.2691   10.4553  -28.1379 H   0  0  0  0  0  0  0  0  0  0  0  0
  1  2  1  0  0  0  0
  1  3  2  0  0  0  0
  2  4  2  0  0  0  0
  3  6  1  0  0  0  0
  3  8  1  0  0  0  0
  4  5  1  0  0  0  0
  4 13  1  0  0  0  0
  5  6  2  0  0  0  0
  5 12  1  0  0  0  0
  6 14  1  0  0  0  0
  7 13  1  0  0  0  0
  8 10  1  0  0  0  0
  9 11  2  0  0  0  0
 10 11  2  0  0  0  0
  1 15  1  0  0  0  0
  2 16  1  0  0  0  0
  7 17  1  0  0  0  0
  7 18  1  0  0  0  0
  7 19  1  0  0  0  0
  8 20  1  0  0  0  0
  8 21  1  0  0  0  0
 12 22  1  0  0  0  0
M  CHG  2   9  -1  11   1
M  END
> <id>
EN300-1935945

> <smiles>
COC=1C=CC(CN=[N+]=[N-])=C(Br)C1O

> <IUPAC Name>
3-(azidomethyl)-2-bromo-6-methoxyphenol

> <CAS>
2229478-92-4

> <URL>
https://www.enaminestore.com/catalog/EN300-1935945

> <ROCS_ShapeQuery>
_x1604L0AP1_x0771L0AP1

> <ROCS_TanimotoCombo>
1.033 

> <ROCS_ShapeTanimoto>
0.535 

> <ROCS_ColorTanimoto>
0.497 

> <ROCS_RefTversky>
0.485 

> <ROCS_RefColorTversky>
0.516 

> <ROCS_RefTverskyCombo>
1.001 

> <ROCS_FitTversky>
1.242 

> <ROCS_FitColorTversky>
0.933 

> <ROCS_FitTverskyCombo>
2.175 

> <ROCS_ColorScore>
-4.884

> <ROCS_Overlap>
813.650

> <ROCS_Rank>
38                  

$$$$
untitled-dbase-1222_92
  -OEChem-06052310023D

 26 27  0     0  0  0  0  0  0999 V2000
   -4.6036   12.4840  -29.8416 C   0  0  0  0  0  0  0  0  0  0  0  0
   -5.5782   11.7842  -29.1303 C   0  0  0  0  0  0  0  0  0  0  0  0
   -5.0689   11.1441  -31.7974 C   0  0  0  0  0  0  0  0  0  0  0  0
   -4.3490   12.1640  -31.1752 C   0  0  0  0  0  0  0  0  0  0  0  0
   -6.2981   10.7642  -29.7525 C   0  0  0  0  0  0  0  0  0  0  0  0
   -6.0434   10.4442  -31.0861 C   0  0  0  0  0  0  0  0  0  0  0  0
   -1.8869   12.3784  -31.9065 C   0  0  0  0  0  0  0  0  0  0  0  0
   -2.2235   13.6210  -31.1431 C   0  0  0  0  0  0  0  0  0  0  0  0
   -3.3077   12.9122  -31.9346 C   0  0  0  0  0  0  0  0  0  0  0  0
   -3.7885   13.5608  -33.2029 C   0  0  0  0  0  0  0  0  0  0  0  0
   -5.1521   13.2236  -35.0478 N   0  0  0  0  0  0  0  0  0  0  0  0
   -7.2434   10.0994  -29.0295 O   0  0  0  0  0  0  0  0  0  0  0  0
   -4.2860   12.5616  -34.0857 O   0  0  0  0  0  0  0  0  0  0  0  0
   -7.0021    9.0645  -31.9636 Br  0  0  0  0  0  0  0  0  0  0  0  0
   -4.0480   13.2769  -29.3479 H   0  0  0  0  0  0  0  0  0  0  0  0
   -5.7711   12.0388  -28.0916 H   0  0  0  0  0  0  0  0  0  0  0  0
   -4.8641   10.9007  -32.8377 H   0  0  0  0  0  0  0  0  0  0  0  0
   -1.2764   12.4837  -32.7958 H   0  0  0  0  0  0  0  0  0  0  0  0
   -1.6786   11.4795  -31.3376 H   0  0  0  0  0  0  0  0  0  0  0  0
   -2.2400   13.5563  -30.0611 H   0  0  0  0  0  0  0  0  0  0  0  0
   -1.8405   14.5628  -31.5187 H   0  0  0  0  0  0  0  0  0  0  0  0
   -2.9715   14.0922  -33.7081 H   0  0  0  0  0  0  0  0  0  0  0  0
   -4.5969   14.2749  -32.9988 H   0  0  0  0  0  0  0  0  0  0  0  0
   -6.0061   12.6799  -34.9323 H   0  0  0  0  0  0  0  0  0  0  0  0
   -4.7275   12.9159  -35.9213 H   0  0  0  0  0  0  0  0  0  0  0  0
   -7.6666    9.4202  -29.5771 H   0  0  0  0  0  0  0  0  0  0  0  0
  1  2  1  0  0  0  0
  1  4  2  0  0  0  0
  2  5  2  0  0  0  0
  3  4  1  0  0  0  0
  3  6  2  0  0  0  0
  4  9  1  0  0  0  0
  5  6  1  0  0  0  0
  5 12  1  0  0  0  0
  6 14  1  0  0  0  0
  7  8  1  0  0  0  0
  7  9  1  0  0  0  0
  8  9  1  0  0  0  0
  9 10  1  0  0  0  0
 10 13  1  0  0  0  0
 11 13  1  0  0  0  0
  1 15  1  0  0  0  0
  2 16  1  0  0  0  0
  3 17  1  0  0  0  0
  7 18  1  0  0  0  0
  7 19  1  0  0  0  0
  8 20  1  0  0  0  0
  8 21  1  0  0  0  0
 10 22  1  0  0  0  0
 10 23  1  0  0  0  0
 11 24  1  0  0  0  0
 11 25  1  0  0  0  0
 12 26  1  0  0  0  0
M  END
> <id>
EN300-1906344

> <smiles>
NOCC1(CC1)C=2C=CC(O)=C(Br)C2

> <IUPAC Name>
4-{1-[(aminooxy)methyl]cyclopropyl}-2-bromophenol

> <CAS>
2229616-29-7

> <URL>
https://www.enaminestore.com/catalog/EN300-1906344

> <ROCS_ShapeQuery>
_x1604L0AP1_x0771L0AP1

> <ROCS_TanimotoCombo>
1.032 

> <ROCS_ShapeTanimoto>
0.479 

> <ROCS_ColorTanimoto>
0.553 

> <ROCS_RefTversky>
0.450 

> <ROCS_RefColorTversky>
0.518 

> <ROCS_RefTverskyCombo>
0.968 

> <ROCS_FitTversky>
1.159 

> <ROCS_FitColorTversky>
1.138 

> <ROCS_FitTverskyCombo>
2.297 

> <ROCS_ColorScore>
-4.878

> <ROCS_Overlap>
754.680

> <ROCS_Rank>
39                  

$$$$
untitled-dbase-1742_9
  -OEChem-06052310023D

 22 22  0     1  0  0  0  0  0999 V2000
   -4.6108   12.4942  -29.8584 C   0  0  0  0  0  0  0  0  0  0  0  0
   -4.3632   12.1790  -31.1944 C   0  0  0  0  0  0  0  0  0  0  0  0
   -5.5779   11.7883  -29.1428 C   0  0  0  0  0  0  0  0  0  0  0  0
   -5.0828   11.1578  -31.8149 C   0  0  0  0  0  0  0  0  0  0  0  0
   -6.2975   10.7671  -29.7633 C   0  0  0  0  0  0  0  0  0  0  0  0
   -6.0500   10.4518  -31.0994 C   0  0  0  0  0  0  0  0  0  0  0  0
   -3.7231   11.7909  -33.8395 C   0  0  0  0  0  0  0  0  0  0  0  0
   -4.7801   10.8591  -33.2481 C   0  0  2  0  0  0  0  0  0  0  0  0
   -5.7843   10.2612  -35.2508 N   0  0  0  0  0  0  0  0  0  0  0  0
   -7.2352   10.0996  -29.0326 O   0  0  0  0  0  0  0  0  0  0  0  0
   -5.9807   10.9965  -34.0147 O   0  0  0  0  0  0  0  0  0  0  0  0
   -7.0377    9.0565  -31.9351 Br  0  0  0  0  0  0  0  0  0  0  0  0
   -4.0508   13.2897  -29.3754 H   0  0  0  0  0  0  0  0  0  0  0  0
   -3.6074   12.7357  -31.7425 H   0  0  0  0  0  0  0  0  0  0  0  0
   -5.7655   12.0402  -28.1025 H   0  0  0  0  0  0  0  0  0  0  0  0
   -4.0150   12.8402  -33.7297 H   0  0  0  0  0  0  0  0  0  0  0  0
   -3.5606   11.5868  -34.9039 H   0  0  0  0  0  0  0  0  0  0  0  0
   -2.7564   11.6441  -33.3454 H   0  0  0  0  0  0  0  0  0  0  0  0
   -4.4361    9.8213  -33.3857 H   0  0  0  0  0  0  0  0  0  0  0  0
   -5.9919   10.9909  -35.9310 H   0  0  0  0  0  0  0  0  0  0  0  0
   -6.5961    9.6461  -35.2275 H   0  0  0  0  0  0  0  0  0  0  0  0
   -7.6608    9.4193  -29.5769 H   0  0  0  0  0  0  0  0  0  0  0  0
  1  2  1  0  0  0  0
  1  3  2  0  0  0  0
  2  4  2  0  0  0  0
  3  5  1  0  0  0  0
  4  6  1  0  0  0  0
  4  8  1  0  0  0  0
  5  6  2  0  0  0  0
  5 10  1  0  0  0  0
  6 12  1  0  0  0  0
  7  8  1  0  0  0  0
  8 11  1  0  0  0  0
  9 11  1  0  0  0  0
  1 13  1  0  0  0  0
  2 14  1  0  0  0  0
  3 15  1  0  0  0  0
  7 16  1  0  0  0  0
  7 17  1  0  0  0  0
  7 18  1  0  0  0  0
  8 19  1  0  0  0  0
  9 20  1  0  0  0  0
  9 21  1  0  0  0  0
 10 22  1  0  0  0  0
M  END
> <id>
EN300-1904532

> <smiles>
CC(ON)C=1C=CC=C(O)C1Br

> <IUPAC Name>
3-[1-(aminooxy)ethyl]-2-bromophenol

> <CAS>
2229348-42-7

> <URL>
https://www.enaminestore.com/catalog/EN300-1904532

> <ROCS_ShapeQuery>
_x1604L0AP1_x0771L0AP1

> <ROCS_TanimotoCombo>
1.031 

> <ROCS_ShapeTanimoto>
0.477 

> <ROCS_ColorTanimoto>
0.554 

> <ROCS_RefTversky>
0.432 

> <ROCS_RefColorTversky>
0.518 

> <ROCS_RefTverskyCombo>
0.950 

> <ROCS_FitTversky>
1.283 

> <ROCS_FitColorTversky>
1.139 

> <ROCS_FitTverskyCombo>
2.422 

> <ROCS_ColorScore>
-4.882

> <ROCS_Overlap>
722.754

> <ROCS_Rank>
40                  

$$$$
untitled-dbase-393_72
  -OEChem-06052310023D

 25 25  0     1  0  0  0  0  0999 V2000
   -5.1551   11.1831  -31.9375 C   0  0  0  0  0  0  0  0  0  0  0  0
   -4.4285   12.2729  -29.9074 C   0  0  0  0  0  0  0  0  0  0  0  0
   -6.1374   10.5009  -31.2197 C   0  0  0  0  0  0  0  0  0  0  0  0
   -6.2653   10.7047  -29.8457 C   0  0  0  0  0  0  0  0  0  0  0  0
   -4.3006   12.0691  -31.2814 C   0  0  0  0  0  0  0  0  0  0  0  0
   -5.4108   11.5907  -29.1896 C   0  0  0  0  0  0  0  0  0  0  0  0
   -6.3110    8.4007  -32.6616 C   0  0  0  0  0  0  0  0  0  0  0  0
   -7.1426    7.7235  -33.7461 C   0  0  0  0  0  0  0  0  0  0  0  0
   -7.0544    9.5436  -31.9518 C   0  0  2  0  0  0  0  0  0  0  0  0
   -7.8834   10.2645  -32.8939 N   0  0  0  0  0  0  0  0  0  0  0  0
   -7.2312   10.0296  -29.1573 O   0  0  0  0  0  0  0  0  0  0  0  0
   -6.3745    6.6746  -34.3220 O   0  0  0  0  0  0  0  0  0  0  0  0
   -3.0885   12.9106  -32.1676 Cl  0  0  0  0  0  0  0  0  0  0  0  0
   -5.5533   11.8942  -27.3235 Br  0  0  0  0  0  0  0  0  0  0  0  0
   -5.0590   11.0217  -33.0092 H   0  0  0  0  0  0  0  0  0  0  0  0
   -3.7598   12.9644  -29.3995 H   0  0  0  0  0  0  0  0  0  0  0  0
   -5.3929    8.7927  -33.1210 H   0  0  0  0  0  0  0  0  0  0  0  0
   -5.9627    7.6457  -31.9445 H   0  0  0  0  0  0  0  0  0  0  0  0
   -8.0587    7.2890  -33.3348 H   0  0  0  0  0  0  0  0  0  0  0  0
   -7.4065    8.4340  -34.5357 H   0  0  0  0  0  0  0  0  0  0  0  0
   -7.7601    9.0984  -31.2392 H   0  0  0  0  0  0  0  0  0  0  0  0
   -8.5046    9.6225  -33.3359 H   0  0  0  0  0  0  0  0  0  0  0  0
   -8.4033   10.9582  -32.4021 H   0  0  0  0  0  0  0  0  0  0  0  0
   -7.2007   10.2704  -28.2190 H   0  0  0  0  0  0  0  0  0  0  0  0
   -6.9289    6.2650  -35.0055 H   0  0  0  0  0  0  0  0  0  0  0  0
  1  3  2  0  0  0  0
  1  5  1  0  0  0  0
  2  5  2  0  0  0  0
  2  6  1  0  0  0  0
  3  4  1  0  0  0  0
  3  9  1  0  0  0  0
  4  6  2  0  0  0  0
  4 11  1  0  0  0  0
  5 13  1  0  0  0  0
  6 14  1  0  0  0  0
  7  8  1  0  0  0  0
  7  9  1  0  0  0  0
  8 12  1  0  0  0  0
  9 10  1  0  0  0  0
  1 15  1  0  0  0  0
  2 16  1  0  0  0  0
  7 17  1  0  0  0  0
  7 18  1  0  0  0  0
  8 19  1  0  0  0  0
  8 20  1  0  0  0  0
  9 21  1  0  0  0  0
 10 22  1  0  0  0  0
 10 23  1  0  0  0  0
 11 24  1  0  0  0  0
 12 25  1  0  0  0  0
M  END
> <id>
EN300-1913214

> <smiles>
NC(CCO)C=1C=C(Cl)C=C(Br)C1O

> <MDLNUMBER>
MFCD24395937

> <IUPAC Name>
2-(1-amino-3-hydroxypropyl)-6-bromo-4-chlorophenol

> <CAS>
1337048-28-8

> <URL>
https://www.enaminestore.com/catalog/EN300-1913214

> <ROCS_ShapeQuery>
_x1604L0AP1_x0771L0AP1

> <ROCS_TanimotoCombo>
1.030 

> <ROCS_ShapeTanimoto>
0.556 

> <ROCS_ColorTanimoto>
0.474 

> <ROCS_RefTversky>
0.492 

> <ROCS_RefColorTversky>
0.592 

> <ROCS_RefTverskyCombo>
1.084 

> <ROCS_FitTversky>
1.307 

> <ROCS_FitColorTversky>
0.704 

> <ROCS_FitTverskyCombo>
2.011 

> <ROCS_ColorScore>
-5.693

> <ROCS_Overlap>
824.671

> <ROCS_Rank>
41                  

$$$$
untitled-dbase-549_200
  -OEChem-06052310023D

 29 29  0     0  0  0  0  0  0999 V2000
   -4.3406   12.3489  -31.0669 C   0  0  0  0  0  0  0  0  0  0  0  0
   -5.1481   11.5098  -31.8347 C   0  0  0  0  0  0  0  0  0  0  0  0
   -4.4950   12.3888  -29.6811 C   0  0  0  0  0  0  0  0  0  0  0  0
   -6.1100   10.7107  -31.2168 C   0  0  0  0  0  0  0  0  0  0  0  0
   -6.2645   10.7506  -29.8311 C   0  0  0  0  0  0  0  0  0  0  0  0
   -5.4570   11.5897  -29.0633 C   0  0  0  0  0  0  0  0  0  0  0  0
   -5.0467    8.2224  -32.1688 C   0  0  0  0  0  0  0  0  0  0  0  0
   -5.6719    9.4602  -34.2429 C   0  0  0  0  0  0  0  0  0  0  0  0
   -6.9749    9.8098  -32.0680 C   0  0  0  0  0  0  0  0  0  0  0  0
   -7.1451    7.6121  -33.4105 C   0  0  0  0  0  0  0  0  0  0  0  0
   -6.2364    8.7846  -32.9798 C   0  0  0  0  0  0  0  0  0  0  0  0
   -7.2111    9.9641  -29.2414 O   0  0  0  0  0  0  0  0  0  0  0  0
   -6.4381    6.6934  -34.2332 O   0  0  0  0  0  0  0  0  0  0  0  0
   -5.6351   11.6719  -27.1777 Br  0  0  0  0  0  0  0  0  0  0  0  0
   -3.5913   12.9707  -31.5478 H   0  0  0  0  0  0  0  0  0  0  0  0
   -5.0194   11.4831  -32.9135 H   0  0  0  0  0  0  0  0  0  0  0  0
   -3.8563   13.0486  -29.0993 H   0  0  0  0  0  0  0  0  0  0  0  0
   -5.3898    7.7272  -31.2533 H   0  0  0  0  0  0  0  0  0  0  0  0
   -4.3484    9.0145  -31.8766 H   0  0  0  0  0  0  0  0  0  0  0  0
   -4.4846    7.4849  -32.7531 H   0  0  0  0  0  0  0  0  0  0  0  0
   -6.4740    9.8796  -34.8603 H   0  0  0  0  0  0  0  0  0  0  0  0
   -5.1013    8.7570  -34.8581 H   0  0  0  0  0  0  0  0  0  0  0  0
   -4.9941   10.2808  -33.9802 H   0  0  0  0  0  0  0  0  0  0  0  0
   -7.6605    9.2699  -31.3992 H   0  0  0  0  0  0  0  0  0  0  0  0
   -7.6317   10.4438  -32.6797 H   0  0  0  0  0  0  0  0  0  0  0  0
   -7.5334    7.0695  -32.5424 H   0  0  0  0  0  0  0  0  0  0  0  0
   -8.0055    7.9811  -33.9808 H   0  0  0  0  0  0  0  0  0  0  0  0
   -7.2029   10.0968  -28.2813 H   0  0  0  0  0  0  0  0  0  0  0  0
   -7.0629    5.9877  -34.4658 H   0  0  0  0  0  0  0  0  0  0  0  0
  1  2  1  0  0  0  0
  1  3  2  0  0  0  0
  2  4  2  0  0  0  0
  3  6  1  0  0  0  0
  4  5  1  0  0  0  0
  4  9  1  0  0  0  0
  5  6  2  0  0  0  0
  5 12  1  0  0  0  0
  6 14  1  0  0  0  0
  7 11  1  0  0  0  0
  8 11  1  0  0  0  0
  9 11  1  0  0  0  0
 10 11  1  0  0  0  0
 10 13  1  0  0  0  0
  1 15  1  0  0  0  0
  2 16  1  0  0  0  0
  3 17  1  0  0  0  0
  7 18  1  0  0  0  0
  7 19  1  0  0  0  0
  7 20  1  0  0  0  0
  8 21  1  0  0  0  0
  8 22  1  0  0  0  0
  8 23  1  0  0  0  0
  9 24  1  0  0  0  0
  9 25  1  0  0  0  0
 10 26  1  0  0  0  0
 10 27  1  0  0  0  0
 12 28  1  0  0  0  0
 13 29  1  0  0  0  0
M  END
> <id>
EN300-1923475

> <smiles>
CC(C)(CO)CC=1C=CC=C(Br)C1O

> <IUPAC Name>
2-bromo-6-(3-hydroxy-2,2-dimethylpropyl)phenol

> <CAS>
2229231-88-1

> <URL>
https://www.enaminestore.com/catalog/EN300-1923475

> <ROCS_ShapeQuery>
_x1604L0AP1_x0771L0AP1

> <ROCS_TanimotoCombo>
1.028 

> <ROCS_ShapeTanimoto>
0.532 

> <ROCS_ColorTanimoto>
0.496 

> <ROCS_RefTversky>
0.479 

> <ROCS_RefColorTversky>
0.579 

> <ROCS_RefTverskyCombo>
1.058 

> <ROCS_FitTversky>
1.261 

> <ROCS_FitColorTversky>
0.776 

> <ROCS_FitTverskyCombo>
2.037 

> <ROCS_ColorScore>
-5.535

> <ROCS_Overlap>
804.022

> <ROCS_Rank>
42                  

$$$$
untitled-dbase-1182_117
  -OEChem-06052310023D

 23 23  0     0  0  0  0  0  0999 V2000
   -4.6328   12.5141  -29.8587 C   0  0  0  0  0  0  0  0  0  0  0  0
   -5.5966   11.8050  -29.1419 C   0  0  0  0  0  0  0  0  0  0  0  0
   -5.0907   11.1644  -31.8095 C   0  0  0  0  0  0  0  0  0  0  0  0
   -4.3799   12.1938  -31.1926 C   0  0  0  0  0  0  0  0  0  0  0  0
   -6.3074   10.7756  -29.7588 C   0  0  0  0  0  0  0  0  0  0  0  0
   -6.0545   10.4553  -31.0927 C   0  0  0  0  0  0  0  0  0  0  0  0
   -3.3491   12.9525  -31.9579 C   0  0  0  0  0  0  0  0  0  0  0  0
   -2.1896   13.4953  -31.0999 C   0  0  0  0  0  0  0  0  0  0  0  0
   -1.4081   12.3813  -30.4041 C   0  0  0  0  0  0  0  0  0  0  0  0
   -7.2415   10.1009  -29.0303 O   0  0  0  0  0  0  0  0  0  0  0  0
   -0.7004   11.2376  -31.6256 S   0  0  0  0  0  0  0  0  0  0  0  0
   -7.0002    9.0618  -31.9624 Br  0  0  0  0  0  0  0  0  0  0  0  0
   -4.0842   13.3144  -29.3689 H   0  0  0  0  0  0  0  0  0  0  0  0
   -5.7881   12.0603  -28.1030 H   0  0  0  0  0  0  0  0  0  0  0  0
   -4.8872   10.9219  -32.8504 H   0  0  0  0  0  0  0  0  0  0  0  0
   -3.8054   13.7903  -32.5122 H   0  0  0  0  0  0  0  0  0  0  0  0
   -2.9251   12.2956  -32.7362 H   0  0  0  0  0  0  0  0  0  0  0  0
   -2.6102   14.1728  -30.3454 H   0  0  0  0  0  0  0  0  0  0  0  0
   -1.5163   14.0940  -31.7266 H   0  0  0  0  0  0  0  0  0  0  0  0
   -2.0561   11.8020  -29.7400 H   0  0  0  0  0  0  0  0  0  0  0  0
   -0.5910   12.7975  -29.8063 H   0  0  0  0  0  0  0  0  0  0  0  0
   -7.6592    9.4158  -29.5749 H   0  0  0  0  0  0  0  0  0  0  0  0
    0.0453   12.1526  -32.2592 H   0  0  0  0  0  0  0  0  0  0  0  0
  1  2  1  0  0  0  0
  1  4  2  0  0  0  0
  2  5  2  0  0  0  0
  3  4  1  0  0  0  0
  3  6  2  0  0  0  0
  4  7  1  0  0  0  0
  5  6  1  0  0  0  0
  5 10  1  0  0  0  0
  6 12  1  0  0  0  0
  7  8  1  0  0  0  0
  8  9  1  0  0  0  0
  9 11  1  0  0  0  0
  1 13  1  0  0  0  0
  2 14  1  0  0  0  0
  3 15  1  0  0  0  0
  7 16  1  0  0  0  0
  7 17  1  0  0  0  0
  8 18  1  0  0  0  0
  8 19  1  0  0  0  0
  9 20  1  0  0  0  0
  9 21  1  0  0  0  0
 10 22  1  0  0  0  0
 11 23  1  0  0  0  0
M  END
> <id>
EN300-1905158

> <smiles>
OC=1C=CC(CCCS)=CC1Br

> <IUPAC Name>
2-bromo-4-(3-sulfanylpropyl)phenol

> <CAS>
2228544-80-5

> <URL>
https://www.enaminestore.com/catalog/EN300-1905158

> <ROCS_ShapeQuery>
_x1604L0AP1_x0771L0AP1

> <ROCS_TanimotoCombo>
1.027 

> <ROCS_ShapeTanimoto>
0.475 

> <ROCS_ColorTanimoto>
0.553 

> <ROCS_RefTversky>
0.426 

> <ROCS_RefColorTversky>
0.518 

> <ROCS_RefTverskyCombo>
0.944 

> <ROCS_FitTversky>
1.312 

> <ROCS_FitColorTversky>
1.138 

> <ROCS_FitTverskyCombo>
2.450 

> <ROCS_ColorScore>
-4.876

> <ROCS_Overlap>
713.151

> <ROCS_Rank>
43                  

$$$$
untitled-dbase-149_1
  -OEChem-06052310023D

 18 18  0     0  0  0  0  0  0999 V2000
   -5.0505   11.1287  -31.7919 C   0  0  0  0  0  0  0  0  0  0  0  0
   -5.5640   11.7722  -29.1264 C   0  0  0  0  0  0  0  0  0  0  0  0
   -4.3232   12.1412  -31.1663 C   0  0  0  0  0  0  0  0  0  0  0  0
   -6.2913   10.7596  -29.7520 C   0  0  0  0  0  0  0  0  0  0  0  0
   -4.5799   12.4630  -29.8336 C   0  0  0  0  0  0  0  0  0  0  0  0
   -6.0346   10.4379  -31.0847 C   0  0  0  0  0  0  0  0  0  0  0  0
   -3.2989   12.8603  -31.9074 C   0  0  0  0  0  0  0  0  0  0  0  0
   -2.5839   12.1188  -32.9993 C   0  0  0  0  0  0  0  0  0  0  0  0
   -2.9702   14.0308  -31.7037 O   0  0  0  0  0  0  0  0  0  0  0  0
   -7.2460   10.1035  -29.0332 O   0  0  0  0  0  0  0  0  0  0  0  0
   -3.8881   13.4354  -29.2228 F   0  0  0  0  0  0  0  0  0  0  0  0
   -7.0047    9.0694  -31.9671 Br  0  0  0  0  0  0  0  0  0  0  0  0
   -4.8456   10.8835  -32.8318 H   0  0  0  0  0  0  0  0  0  0  0  0
   -5.7580   12.0279  -28.0882 H   0  0  0  0  0  0  0  0  0  0  0  0
   -3.0650   12.2040  -33.9865 H   0  0  0  0  0  0  0  0  0  0  0  0
   -2.4590   11.0461  -32.7844 H   0  0  0  0  0  0  0  0  0  0  0  0
   -1.5572   12.4861  -33.1752 H   0  0  0  0  0  0  0  0  0  0  0  0
   -7.6734    9.4287  -29.5831 H   0  0  0  0  0  0  0  0  0  0  0  0
  1  3  2  0  0  0  0
  1  6  1  0  0  0  0
  2  4  1  0  0  0  0
  2  5  2  0  0  0  0
  3  5  1  0  0  0  0
  3  7  1  0  0  0  0
  4  6  2  0  0  0  0
  4 10  1  0  0  0  0
  5 11  1  0  0  0  0
  6 12  1  0  0  0  0
  7  8  1  0  0  0  0
  7  9  2  0  0  0  0
  1 13  1  0  0  0  0
  2 14  1  0  0  0  0
  8 15  1  0  0  0  0
  8 16  1  0  0  0  0
  8 17  1  0  0  0  0
 10 18  1  0  0  0  0
M  END
> <id>
EN300-1276899

> <smiles>
CC(=O)C=1C=C(Br)C(O)=CC1F

> <MDLNUMBER>
MFCD24122855

> <IUPAC Name>
1-(5-bromo-2-fluoro-4-hydroxyphenyl)ethan-1-one

> <CAS>
1503357-95-6

> <URL>
https://www.enaminestore.com/catalog/EN300-1276899

> <ROCS_ShapeQuery>
_x1604L0AP1_x0771L0AP1

> <ROCS_TanimotoCombo>
1.027 

> <ROCS_ShapeTanimoto>
0.530 

> <ROCS_ColorTanimoto>
0.497 

> <ROCS_RefTversky>
0.466 

> <ROCS_RefColorTversky>
0.515 

> <ROCS_RefTverskyCombo>
0.981 

> <ROCS_FitTversky>
1.352 

> <ROCS_FitColorTversky>
0.932 

> <ROCS_FitTverskyCombo>
2.284 

> <ROCS_ColorScore>
-4.879

> <ROCS_Overlap>
779.451

> <ROCS_Rank>
44                  

$$$$
untitled-dbase-666_79
  -OEChem-06052310023D

 22 22  0     1  0  0  0  0  0999 V2000
   -4.6002   12.4851  -29.8299 C   0  0  0  0  0  0  0  0  0  0  0  0
   -5.5771   11.7840  -29.1231 C   0  0  0  0  0  0  0  0  0  0  0  0
   -5.0634   11.1530  -31.7916 C   0  0  0  0  0  0  0  0  0  0  0  0
   -4.3433   12.1697  -31.1642 C   0  0  0  0  0  0  0  0  0  0  0  0
   -6.2972   10.7674  -29.7505 C   0  0  0  0  0  0  0  0  0  0  0  0
   -6.0404   10.4519  -31.0848 C   0  0  0  0  0  0  0  0  0  0  0  0
   -3.8417   13.6030  -33.1748 C   0  0  0  0  0  0  0  0  0  0  0  0
   -3.2985   12.9198  -31.9188 C   0  0  2  0  0  0  0  0  0  0  0  0
   -2.7418   11.3130  -33.4951 N   0  0  0  0  0  0  0  0  0  0  0  0
   -7.2440   10.1002  -29.0316 O   0  0  0  0  0  0  0  0  0  0  0  0
   -2.2649   12.0112  -32.3157 O   0  0  0  0  0  0  0  0  0  0  0  0
   -6.9983    9.0756  -31.9685 Br  0  0  0  0  0  0  0  0  0  0  0  0
   -4.0445   13.2754  -29.3320 H   0  0  0  0  0  0  0  0  0  0  0  0
   -5.7717   12.0354  -28.0838 H   0  0  0  0  0  0  0  0  0  0  0  0
   -4.8567   10.9142  -32.8327 H   0  0  0  0  0  0  0  0  0  0  0  0
   -4.3362   12.8819  -33.8334 H   0  0  0  0  0  0  0  0  0  0  0  0
   -3.0413   14.0945  -33.7393 H   0  0  0  0  0  0  0  0  0  0  0  0
   -4.5612   14.3865  -32.9126 H   0  0  0  0  0  0  0  0  0  0  0  0
   -2.8137   13.6910  -31.2962 H   0  0  0  0  0  0  0  0  0  0  0  0
   -2.6310   10.3469  -33.1909 H   0  0  0  0  0  0  0  0  0  0  0  0
   -1.9772   11.5040  -34.1407 H   0  0  0  0  0  0  0  0  0  0  0  0
   -7.6670    9.4237  -29.5829 H   0  0  0  0  0  0  0  0  0  0  0  0
  1  2  1  0  0  0  0
  1  4  2  0  0  0  0
  2  5  2  0  0  0  0
  3  4  1  0  0  0  0
  3  6  2  0  0  0  0
  4  8  1  0  0  0  0
  5  6  1  0  0  0  0
  5 10  1  0  0  0  0
  6 12  1  0  0  0  0
  7  8  1  0  0  0  0
  8 11  1  0  0  0  0
  9 11  1  0  0  0  0
  1 13  1  0  0  0  0
  2 14  1  0  0  0  0
  3 15  1  0  0  0  0
  7 16  1  0  0  0  0
  7 17  1  0  0  0  0
  7 18  1  0  0  0  0
  8 19  1  0  0  0  0
  9 20  1  0  0  0  0
  9 21  1  0  0  0  0
 10 22  1  0  0  0  0
M  END
> <id>
EN300-1906349

> <smiles>
CC(ON)C=1C=CC(O)=C(Br)C1

> <IUPAC Name>
4-[1-(aminooxy)ethyl]-2-bromophenol

> <CAS>
2228145-03-5

> <URL>
https://www.enaminestore.com/catalog/EN300-1906349

> <ROCS_ShapeQuery>
_x1604L0AP1_x0771L0AP1

> <ROCS_TanimotoCombo>
1.026 

> <ROCS_ShapeTanimoto>
0.473 

> <ROCS_ColorTanimoto>
0.553 

> <ROCS_RefTversky>
0.429 

> <ROCS_RefColorTversky>
0.518 

> <ROCS_RefTverskyCombo>
0.947 

> <ROCS_FitTversky>
1.278 

> <ROCS_FitColorTversky>
1.138 

> <ROCS_FitTverskyCombo>
2.416 

> <ROCS_ColorScore>
-4.878

> <ROCS_Overlap>
718.156

> <ROCS_Rank>
45                  

$$$$
untitled-dbase-397_65
  -OEChem-06052310023D

 27 28  0     0  0  0  0  0  0999 V2000
   -4.2583   11.6418  -30.5671 C   0  0  0  0  0  0  0  0  0  0  0  0
   -4.4554   11.2684  -31.8965 C   0  0  0  0  0  0  0  0  0  0  0  0
   -5.1862   11.2713  -29.5937 C   0  0  0  0  0  0  0  0  0  0  0  0
   -5.5803   10.5245  -32.2525 C   0  0  0  0  0  0  0  0  0  0  0  0
   -6.3112   10.5274  -29.9498 C   0  0  0  0  0  0  0  0  0  0  0  0
   -6.5083   10.1540  -31.2792 C   0  0  0  0  0  0  0  0  0  0  0  0
   -3.9018    8.3841  -34.1157 C   0  0  0  0  0  0  0  0  0  0  0  0
   -4.6486    7.9566  -32.8846 C   0  0  0  0  0  0  0  0  0  0  0  0
   -5.3693    8.7146  -33.9748 C   0  0  0  0  0  0  0  0  0  0  0  0
   -5.7474   10.1455  -33.7074 C   0  0  0  0  0  0  0  0  0  0  0  0
   -6.3479    7.9584  -34.8306 C   0  0  0  0  0  0  0  0  0  0  0  0
   -7.1966   10.1842  -28.9714 O   0  0  0  0  0  0  0  0  0  0  0  0
   -6.2435    6.5672  -34.5508 O   0  0  0  0  0  0  0  0  0  0  0  0
   -8.0465    9.1390  -31.7529 Br  0  0  0  0  0  0  0  0  0  0  0  0
   -3.3826   12.2214  -30.2899 H   0  0  0  0  0  0  0  0  0  0  0  0
   -3.7259   11.5626  -32.6468 H   0  0  0  0  0  0  0  0  0  0  0  0
   -5.0261   11.5665  -28.5601 H   0  0  0  0  0  0  0  0  0  0  0  0
   -3.1775    9.1834  -34.0123 H   0  0  0  0  0  0  0  0  0  0  0  0
   -3.6082    7.6137  -34.8188 H   0  0  0  0  0  0  0  0  0  0  0  0
   -4.8550    6.8998  -32.7633 H   0  0  0  0  0  0  0  0  0  0  0  0
   -4.4242    8.4695  -31.9568 H   0  0  0  0  0  0  0  0  0  0  0  0
   -6.7918   10.3328  -34.0074 H   0  0  0  0  0  0  0  0  0  0  0  0
   -5.1418   10.8284  -34.3261 H   0  0  0  0  0  0  0  0  0  0  0  0
   -6.1397    8.1131  -35.8971 H   0  0  0  0  0  0  0  0  0  0  0  0
   -7.3783    8.2760  -34.6253 H   0  0  0  0  0  0  0  0  0  0  0  0
   -7.9288    9.6722  -29.3482 H   0  0  0  0  0  0  0  0  0  0  0  0
   -5.3312    6.3092  -34.7579 H   0  0  0  0  0  0  0  0  0  0  0  0
  1  2  1  0  0  0  0
  1  3  2  0  0  0  0
  2  4  2  0  0  0  0
  3  5  1  0  0  0  0
  4  6  1  0  0  0  0
  4 10  1  0  0  0  0
  5  6  2  0  0  0  0
  5 12  1  0  0  0  0
  6 14  1  0  0  0  0
  7  8  1  0  0  0  0
  7  9  1  0  0  0  0
  8  9  1  0  0  0  0
  9 10  1  0  0  0  0
  9 11  1  0  0  0  0
 11 13  1  0  0  0  0
  1 15  1  0  0  0  0
  2 16  1  0  0  0  0
  3 17  1  0  0  0  0
  7 18  1  0  0  0  0
  7 19  1  0  0  0  0
  8 20  1  0  0  0  0
  8 21  1  0  0  0  0
 10 22  1  0  0  0  0
 10 23  1  0  0  0  0
 11 24  1  0  0  0  0
 11 25  1  0  0  0  0
 12 26  1  0  0  0  0
 13 27  1  0  0  0  0
M  END
> <id>
EN300-1904805

> <smiles>
OCC1(CC=2C=CC=C(O)C2Br)CC1

> <IUPAC Name>
2-bromo-3-{[1-(hydroxymethyl)cyclopropyl]methyl}phenol

> <CAS>
2229356-05-0

> <URL>
https://www.enaminestore.com/catalog/EN300-1904805

> <ROCS_ShapeQuery>
_x1604L0AP1_x0771L0AP1

> <ROCS_TanimotoCombo>
1.026 

> <ROCS_ShapeTanimoto>
0.449 

> <ROCS_ColorTanimoto>
0.576 

> <ROCS_RefTversky>
0.430 

> <ROCS_RefColorTversky>
0.603 

> <ROCS_RefTverskyCombo>
1.033 

> <ROCS_FitTversky>
1.109 

> <ROCS_FitColorTversky>
0.928 

> <ROCS_FitTverskyCombo>
2.037 

> <ROCS_ColorScore>
-5.741

> <ROCS_Overlap>
721.828

> <ROCS_Rank>
46                  

$$$$
untitled-dbase-2103_0
  -OEChem-06052310023D

 37 37  0     0  0  0  0  0  0999 V2000
   -5.0445   11.1729  -31.7651 C   0  0  0  0  0  0  0  0  0  0  0  0
   -4.5809   12.5022  -29.8017 C   0  0  0  0  0  0  0  0  0  0  0  0
   -4.3233   12.1876  -31.1360 C   0  0  0  0  0  0  0  0  0  0  0  0
   -6.0235   10.4728  -31.0600 C   0  0  0  0  0  0  0  0  0  0  0  0
   -6.2811   10.7874  -29.7257 C   0  0  0  0  0  0  0  0  0  0  0  0
   -5.5599   11.8021  -29.0965 C   0  0  0  0  0  0  0  0  0  0  0  0
   -3.8860   13.6621  -33.1310 C   0  0  0  0  0  0  0  0  0  0  0  0
   -2.1575   11.9819  -32.4063 C   0  0  0  0  0  0  0  0  0  0  0  0
   -2.5344   14.0512  -31.0807 C   0  0  0  0  0  0  0  0  0  0  0  0
   -6.3168    9.2306  -33.2318 C   0  0  0  0  0  0  0  0  0  0  0  0
   -8.3131    9.7001  -31.7722 C   0  0  0  0  0  0  0  0  0  0  0  0
   -6.6544    7.9680  -31.1167 C   0  0  0  0  0  0  0  0  0  0  0  0
   -3.2454   12.9606  -31.9138 C   0  0  0  0  0  0  0  0  0  0  0  0
   -6.7847    9.3908  -31.7528 C   0  0  0  0  0  0  0  0  0  0  0  0
   -7.2434   10.0948  -29.0497 O   0  0  0  0  0  0  0  0  0  0  0  0
   -5.8809   12.2593  -27.2847 Br  0  0  0  0  0  0  0  0  0  0  0  0
   -4.8442   10.9292  -32.8058 H   0  0  0  0  0  0  0  0  0  0  0  0
   -4.0132   13.2944  -29.3186 H   0  0  0  0  0  0  0  0  0  0  0  0
   -3.1373   14.2217  -33.7040 H   0  0  0  0  0  0  0  0  0  0  0  0
   -4.3515   12.9508  -33.8220 H   0  0  0  0  0  0  0  0  0  0  0  0
   -4.6618   14.3697  -32.8153 H   0  0  0  0  0  0  0  0  0  0  0  0
   -1.3659   12.4901  -32.9677 H   0  0  0  0  0  0  0  0  0  0  0  0
   -1.6754   11.4706  -31.5648 H   0  0  0  0  0  0  0  0  0  0  0  0
   -2.5852   11.2144  -33.0623 H   0  0  0  0  0  0  0  0  0  0  0  0
   -1.7767   14.5730  -31.6776 H   0  0  0  0  0  0  0  0  0  0  0  0
   -3.2402   14.8098  -30.7225 H   0  0  0  0  0  0  0  0  0  0  0  0
   -2.0212   13.6242  -30.2112 H   0  0  0  0  0  0  0  0  0  0  0  0
   -6.8607    8.4414  -33.7639 H   0  0  0  0  0  0  0  0  0  0  0  0
   -6.4585   10.1561  -33.8006 H   0  0  0  0  0  0  0  0  0  0  0  0
   -5.2493    8.9827  -33.2677 H   0  0  0  0  0  0  0  0  0  0  0  0
   -8.8768    8.9095  -32.2794 H   0  0  0  0  0  0  0  0  0  0  0  0
   -8.7367    9.8002  -30.7659 H   0  0  0  0  0  0  0  0  0  0  0  0
   -8.5043   10.6367  -32.3092 H   0  0  0  0  0  0  0  0  0  0  0  0
   -7.2303    7.2091  -31.6601 H   0  0  0  0  0  0  0  0  0  0  0  0
   -5.6095    7.6364  -31.1121 H   0  0  0  0  0  0  0  0  0  0  0  0
   -7.0175    7.9679  -30.0823 H   0  0  0  0  0  0  0  0  0  0  0  0
   -7.3104   10.4208  -28.1394 H   0  0  0  0  0  0  0  0  0  0  0  0
  1  3  1  0  0  0  0
  1  4  2  0  0  0  0
  2  3  2  0  0  0  0
  2  6  1  0  0  0  0
  3 13  1  0  0  0  0
  4  5  1  0  0  0  0
  4 14  1  0  0  0  0
  5  6  2  0  0  0  0
  5 15  1  0  0  0  0
  6 16  1  0  0  0  0
  7 13  1  0  0  0  0
  8 13  1  0  0  0  0
  9 13  1  0  0  0  0
 10 14  1  0  0  0  0
 11 14  1  0  0  0  0
 12 14  1  0  0  0  0
  1 17  1  0  0  0  0
  2 18  1  0  0  0  0
  7 19  1  0  0  0  0
  7 20  1  0  0  0  0
  7 21  1  0  0  0  0
  8 22  1  0  0  0  0
  8 23  1  0  0  0  0
  8 24  1  0  0  0  0
  9 25  1  0  0  0  0
  9 26  1  0  0  0  0
  9 27  1  0  0  0  0
 10 28  1  0  0  0  0
 10 29  1  0  0  0  0
 10 30  1  0  0  0  0
 11 31  1  0  0  0  0
 11 32  1  0  0  0  0
 11 33  1  0  0  0  0
 12 34  1  0  0  0  0
 12 35  1  0  0  0  0
 12 36  1  0  0  0  0
 15 37  1  0  0  0  0
M  END
> <id>
EN300-62308

> <smiles>
CC(C)(C)C=1C=C(Br)C(O)=C(C1)C(C)(C)C

> <MDLNUMBER>
MFCD00051597

> <IUPAC Name>
2-bromo-4,6-di-tert-butylphenol

> <CAS>
20834-61-1

> <Purity>
95

> <URL>
https://www.enaminestore.com/catalog/EN300-62308

> <ROCS_ShapeQuery>
_x1604L0AP1_x0771L0AP1

> <ROCS_TanimotoCombo>
1.025 

> <ROCS_ShapeTanimoto>
0.574 

> <ROCS_ColorTanimoto>
0.451 

> <ROCS_RefTversky>
0.521 

> <ROCS_RefColorTversky>
0.513 

> <ROCS_RefTverskyCombo>
1.034 

> <ROCS_FitTversky>
1.215 

> <ROCS_FitColorTversky>
0.789 

> <ROCS_FitTverskyCombo>
2.004 

> <ROCS_ColorScore>
-4.880

> <ROCS_Overlap>
875.984

> <ROCS_Rank>
47                  

$$$$
untitled-dbase-1998_7
  -OEChem-06052310023D

 23 23  0     0  0  0  0  0  0999 V2000
   -6.9386   10.0410  -33.3370 C   0  0  0  0  0  0  0  0  0  0  0  0
   -5.0144   11.3418  -31.7564 C   0  0  0  0  0  0  0  0  0  0  0  0
   -4.4983   12.4609  -29.6783 C   0  0  0  0  0  0  0  0  0  0  0  0
   -6.0116   10.6083  -31.1137 C   0  0  0  0  0  0  0  0  0  0  0  0
   -6.2523   10.8011  -29.7533 C   0  0  0  0  0  0  0  0  0  0  0  0
   -4.2577   12.2681  -31.0387 C   0  0  0  0  0  0  0  0  0  0  0  0
   -5.4956   11.7274  -29.0356 C   0  0  0  0  0  0  0  0  0  0  0  0
   -8.2736    9.3899  -31.4025 C   0  0  0  0  0  0  0  0  0  0  0  0
   -6.1327    8.2176  -31.8831 C   0  0  0  0  0  0  0  0  0  0  0  0
   -6.8101    9.6216  -31.9008 C   0  0  0  0  0  0  0  0  0  0  0  0
   -7.0228   10.3887  -34.4412 N   0  0  0  0  0  0  0  0  0  0  0  0
   -7.2314   10.0756  -29.1388 O   0  0  0  0  0  0  0  0  0  0  0  0
   -3.0271   13.1729  -31.8322 Cl  0  0  0  0  0  0  0  0  0  0  0  0
   -5.7928   12.0175  -27.1857 Br  0  0  0  0  0  0  0  0  0  0  0  0
   -4.8302   11.1888  -32.8177 H   0  0  0  0  0  0  0  0  0  0  0  0
   -3.9057   13.1840  -29.1222 H   0  0  0  0  0  0  0  0  0  0  0  0
   -8.2855    9.0768  -30.3511 H   0  0  0  0  0  0  0  0  0  0  0  0
   -8.7719    8.6139  -31.9953 H   0  0  0  0  0  0  0  0  0  0  0  0
   -8.8911   10.2947  -31.4693 H   0  0  0  0  0  0  0  0  0  0  0  0
   -6.0046    7.8433  -30.8605 H   0  0  0  0  0  0  0  0  0  0  0  0
   -6.7479    7.4901  -32.4259 H   0  0  0  0  0  0  0  0  0  0  0  0
   -5.1364    8.2214  -32.3423 H   0  0  0  0  0  0  0  0  0  0  0  0
   -7.2835   10.3147  -28.2010 H   0  0  0  0  0  0  0  0  0  0  0  0
  1 10  1  0  0  0  0
  1 11  3  0  0  0  0
  2  4  2  0  0  0  0
  2  6  1  0  0  0  0
  3  6  2  0  0  0  0
  3  7  1  0  0  0  0
  4  5  1  0  0  0  0
  4 10  1  0  0  0  0
  5  7  2  0  0  0  0
  5 12  1  0  0  0  0
  6 13  1  0  0  0  0
  7 14  1  0  0  0  0
  8 10  1  0  0  0  0
  9 10  1  0  0  0  0
  2 15  1  0  0  0  0
  3 16  1  0  0  0  0
  8 17  1  0  0  0  0
  8 18  1  0  0  0  0
  8 19  1  0  0  0  0
  9 20  1  0  0  0  0
  9 21  1  0  0  0  0
  9 22  1  0  0  0  0
 12 23  1  0  0  0  0
M  END
> <id>
EN300-1894037

> <smiles>
CC(C)(C#N)C=1C=C(Cl)C=C(Br)C1O

> <MDLNUMBER>
MFCD19695247

> <IUPAC Name>
2-(3-bromo-5-chloro-2-hydroxyphenyl)-2-methylpropanenitrile

> <CAS>
1314650-10-6

> <URL>
https://www.enaminestore.com/catalog/EN300-1894037

> <ROCS_ShapeQuery>
_x1604L0AP1_x0771L0AP1

> <ROCS_TanimotoCombo>
1.024 

> <ROCS_ShapeTanimoto>
0.580 

> <ROCS_ColorTanimoto>
0.444 

> <ROCS_RefTversky>
0.508 

> <ROCS_RefColorTversky>
0.508 

> <ROCS_RefTverskyCombo>
1.015 

> <ROCS_FitTversky>
1.326 

> <ROCS_FitColorTversky>
0.781 

> <ROCS_FitTverskyCombo>
2.107 

> <ROCS_ColorScore>
-4.831

> <ROCS_Overlap>
851.663

> <ROCS_Rank>
48                  

$$$$
untitled-dbase-875_5
  -OEChem-06052310023D

 24 24  0     0  0  0  0  0  0999 V2000
   -7.0145   10.4056  -34.4802 C   0  0  0  0  0  0  0  0  0  0  0  0
   -6.9289   10.0451  -33.3377 C   0  0  0  0  0  0  0  0  0  0  0  0
   -5.0074   11.3442  -31.7512 C   0  0  0  0  0  0  0  0  0  0  0  0
   -4.4954   12.4619  -29.6714 C   0  0  0  0  0  0  0  0  0  0  0  0
   -6.0063   10.6107  -31.1111 C   0  0  0  0  0  0  0  0  0  0  0  0
   -6.2499   10.8029  -29.7512 C   0  0  0  0  0  0  0  0  0  0  0  0
   -4.2518   12.2698  -31.0313 C   0  0  0  0  0  0  0  0  0  0  0  0
   -5.4944   11.7285  -29.0313 C   0  0  0  0  0  0  0  0  0  0  0  0
   -6.1281    8.2192  -31.8811 C   0  0  0  0  0  0  0  0  0  0  0  0
   -8.2682    9.3929  -31.4040 C   0  0  0  0  0  0  0  0  0  0  0  0
   -6.8264    9.5966  -31.9233 C   0  0  0  0  0  0  0  0  0  0  0  0
   -7.2306   10.0775  -29.1392 O   0  0  0  0  0  0  0  0  0  0  0  0
   -3.0191   13.1744  -31.8216 Cl  0  0  0  0  0  0  0  0  0  0  0  0
   -5.7955   12.0176  -27.1818 Br  0  0  0  0  0  0  0  0  0  0  0  0
   -7.0904   10.7252  -35.4931 H   0  0  0  0  0  0  0  0  0  0  0  0
   -4.8209   11.1917  -32.8122 H   0  0  0  0  0  0  0  0  0  0  0  0
   -3.9036   13.1844  -29.1135 H   0  0  0  0  0  0  0  0  0  0  0  0
   -6.0237    7.8356  -30.8595 H   0  0  0  0  0  0  0  0  0  0  0  0
   -5.1157    8.2733  -32.3002 H   0  0  0  0  0  0  0  0  0  0  0  0
   -6.6888    7.4738  -32.4577 H   0  0  0  0  0  0  0  0  0  0  0  0
   -8.2706    9.0593  -30.3585 H   0  0  0  0  0  0  0  0  0  0  0  0
   -8.8493   10.3215  -31.4486 H   0  0  0  0  0  0  0  0  0  0  0  0
   -8.8026    8.6276  -31.9803 H   0  0  0  0  0  0  0  0  0  0  0  0
   -7.2848   10.3161  -28.2013 H   0  0  0  0  0  0  0  0  0  0  0  0
  1  2  3  0  0  0  0
  2 11  1  0  0  0  0
  3  5  2  0  0  0  0
  3  7  1  0  0  0  0
  4  7  2  0  0  0  0
  4  8  1  0  0  0  0
  5  6  1  0  0  0  0
  5 11  1  0  0  0  0
  6  8  2  0  0  0  0
  6 12  1  0  0  0  0
  7 13  1  0  0  0  0
  8 14  1  0  0  0  0
  9 11  1  0  0  0  0
 10 11  1  0  0  0  0
  1 15  1  0  0  0  0
  3 16  1  0  0  0  0
  4 17  1  0  0  0  0
  9 18  1  0  0  0  0
  9 19  1  0  0  0  0
  9 20  1  0  0  0  0
 10 21  1  0  0  0  0
 10 22  1  0  0  0  0
 10 23  1  0  0  0  0
 12 24  1  0  0  0  0
M  END
> <id>
EN300-1922887

> <smiles>
CC(C)(C#C)C=1C=C(Cl)C=C(Br)C1O

> <IUPAC Name>
2-bromo-4-chloro-6-(2-methylbut-3-yn-2-yl)phenol

> <CAS>
2228245-83-6

> <URL>
https://www.enaminestore.com/catalog/EN300-1922887

> <ROCS_ShapeQuery>
_x1604L0AP1_x0771L0AP1

> <ROCS_TanimotoCombo>
1.024 

> <ROCS_ShapeTanimoto>
0.580 

> <ROCS_ColorTanimoto>
0.445 

> <ROCS_RefTversky>
0.507 

> <ROCS_RefColorTversky>
0.508 

> <ROCS_RefTverskyCombo>
1.015 

> <ROCS_FitTversky>
1.327 

> <ROCS_FitColorTversky>
0.781 

> <ROCS_FitTverskyCombo>
2.108 

> <ROCS_ColorScore>
-4.832

> <ROCS_Overlap>
850.574

> <ROCS_Rank>
49                  

$$$$
untitled-dbase-575_51
  -OEChem-06052310023D

 21 21  0     0  0  0  0  0  0999 V2000
   -5.0321   11.1170  -31.8514 C   0  0  0  0  0  0  0  0  0  0  0  0
   -4.5776   12.4581  -29.8939 C   0  0  0  0  0  0  0  0  0  0  0  0
   -6.0102   10.4172  -31.1449 C   0  0  0  0  0  0  0  0  0  0  0  0
   -6.2720   10.7378  -29.8128 C   0  0  0  0  0  0  0  0  0  0  0  0
   -4.3158   12.1375  -31.2259 C   0  0  0  0  0  0  0  0  0  0  0  0
   -5.5557   11.7583  -29.1873 C   0  0  0  0  0  0  0  0  0  0  0  0
   -6.8796    7.8428  -33.8855 C   0  0  0  0  0  0  0  0  0  0  0  0
   -6.7654    9.3283  -31.8337 C   0  0  0  0  0  0  0  0  0  0  0  0
   -6.1248    8.9354  -33.1673 C   0  0  0  0  0  0  0  0  0  0  0  0
   -6.4005    6.7642  -34.2183 O   0  0  0  0  0  0  0  0  0  0  0  0
   -7.2319   10.0438  -29.1350 O   0  0  0  0  0  0  0  0  0  0  0  0
   -3.1089   13.0007  -32.0982 Cl  0  0  0  0  0  0  0  0  0  0  0  0
   -5.8826   12.2230  -27.3785 Br  0  0  0  0  0  0  0  0  0  0  0  0
   -4.8313   10.8642  -32.8904 H   0  0  0  0  0  0  0  0  0  0  0  0
   -4.0164   13.2543  -29.4096 H   0  0  0  0  0  0  0  0  0  0  0  0
   -7.9355    8.0760  -34.1062 H   0  0  0  0  0  0  0  0  0  0  0  0
   -6.8353    8.4430  -31.1807 H   0  0  0  0  0  0  0  0  0  0  0  0
   -7.8098    9.6382  -32.0009 H   0  0  0  0  0  0  0  0  0  0  0  0
   -5.1003    8.5792  -33.0109 H   0  0  0  0  0  0  0  0  0  0  0  0
   -6.0785    9.7994  -33.8400 H   0  0  0  0  0  0  0  0  0  0  0  0
   -7.6293    9.3748  -29.7129 H   0  0  0  0  0  0  0  0  0  0  0  0
  1  3  2  0  0  0  0
  1  5  1  0  0  0  0
  2  5  2  0  0  0  0
  2  6  1  0  0  0  0
  3  4  1  0  0  0  0
  3  8  1  0  0  0  0
  4  6  2  0  0  0  0
  4 11  1  0  0  0  0
  5 12  1  0  0  0  0
  6 13  1  0  0  0  0
  7  9  1  0  0  0  0
  7 10  2  0  0  0  0
  8  9  1  0  0  0  0
  1 14  1  0  0  0  0
  2 15  1  0  0  0  0
  7 16  1  0  0  0  0
  8 17  1  0  0  0  0
  8 18  1  0  0  0  0
  9 19  1  0  0  0  0
  9 20  1  0  0  0  0
 11 21  1  0  0  0  0
M  END
> <id>
EN300-1922924

> <smiles>
OC=1C(Br)=CC(Cl)=CC1CCC=O

> <IUPAC Name>
3-(3-bromo-5-chloro-2-hydroxyphenyl)propanal

> <CAS>
1783491-41-7

> <URL>
https://www.enaminestore.com/catalog/EN300-1922924

> <ROCS_ShapeQuery>
_x1604L0AP1_x0771L0AP1

> <ROCS_TanimotoCombo>
1.024 

> <ROCS_ShapeTanimoto>
0.553 

> <ROCS_ColorTanimoto>
0.471 

> <ROCS_RefTversky>
0.482 

> <ROCS_RefColorTversky>
0.497 

> <ROCS_RefTverskyCombo>
0.979 

> <ROCS_FitTversky>
1.360 

> <ROCS_FitColorTversky>
0.899 

> <ROCS_FitTverskyCombo>
2.259 

> <ROCS_ColorScore>
-4.708

> <ROCS_Overlap>
807.506

> <ROCS_Rank>
50                  

$$$$
untitled-dbase-2278_5
  -OEChem-06052310023D

 15 15  0     0  0  0  0  0  0999 V2000
   -5.5776   11.7888  -29.1428 C   0  0  0  0  0  0  0  0  0  0  0  0
   -4.3634   12.1739  -31.1957 C   0  0  0  0  0  0  0  0  0  0  0  0
   -6.2989   10.7675  -29.7610 C   0  0  0  0  0  0  0  0  0  0  0  0
   -4.6099   12.4921  -29.8602 C   0  0  0  0  0  0  0  0  0  0  0  0
   -5.0847   11.1526  -31.8139 C   0  0  0  0  0  0  0  0  0  0  0  0
   -6.0525   10.4494  -31.0966 C   0  0  0  0  0  0  0  0  0  0  0  0
   -3.3538   12.9085  -31.9421 C   0  0  0  0  0  0  0  0  0  0  0  0
   -2.1699   12.5644  -31.9921 O   0  0  0  0  0  0  0  0  0  0  0  0
   -7.2382   10.1008  -29.0318 O   0  0  0  0  0  0  0  0  0  0  0  0
   -3.9237   13.4726  -29.2559 F   0  0  0  0  0  0  0  0  0  0  0  0
   -4.8398   10.8521  -33.0989 F   0  0  0  0  0  0  0  0  0  0  0  0
   -7.0184    9.0633  -31.9586 Br  0  0  0  0  0  0  0  0  0  0  0  0
   -5.7646   12.0426  -28.1030 H   0  0  0  0  0  0  0  0  0  0  0  0
   -3.6831   13.8202  -32.4864 H   0  0  0  0  0  0  0  0  0  0  0  0
   -7.6635    9.4207  -29.5767 H   0  0  0  0  0  0  0  0  0  0  0  0
  1  3  2  0  0  0  0
  1  4  1  0  0  0  0
  2  4  2  0  0  0  0
  2  5  1  0  0  0  0
  2  7  1  0  0  0  0
  3  6  1  0  0  0  0
  3  9  1  0  0  0  0
  4 10  1  0  0  0  0
  5  6  2  0  0  0  0
  5 11  1  0  0  0  0
  6 12  1  0  0  0  0
  7  8  2  0  0  0  0
  1 13  1  0  0  0  0
  7 14  1  0  0  0  0
  9 15  1  0  0  0  0
M  END
> <id>
EN300-29234197

> <smiles>
OC=1C=C(F)C(C=O)=C(F)C1Br

> <IUPAC Name>
3-bromo-2,6-difluoro-4-hydroxybenzaldehyde

> <CAS>
1780889-40-8

> <Purity>
95

> <URL>
https://www.enaminestore.com/catalog/EN300-29234197

> <ROCS_ShapeQuery>
_x1604L0AP1_x0771L0AP1

> <ROCS_TanimotoCombo>
1.023 

> <ROCS_ShapeTanimoto>
0.527 

> <ROCS_ColorTanimoto>
0.497 

> <ROCS_RefTversky>
0.465 

> <ROCS_RefColorTversky>
0.515 

> <ROCS_RefTverskyCombo>
0.980 

> <ROCS_FitTversky>
1.336 

> <ROCS_FitColorTversky>
0.932 

> <ROCS_FitTverskyCombo>
2.268 

> <ROCS_ColorScore>
-4.879

> <ROCS_Overlap>
778.516

> <ROCS_Rank>
51                  

$$$$
untitled-dbase-949_83
  -OEChem-06052310023D

 26 27  0     0  0  0  0  0  0999 V2000
   -4.6021   12.4882  -29.8484 C   0  0  0  0  0  0  0  0  0  0  0  0
   -4.3441   12.1684  -31.1814 C   0  0  0  0  0  0  0  0  0  0  0  0
   -5.5758   11.7856  -29.1385 C   0  0  0  0  0  0  0  0  0  0  0  0
   -5.0599   11.1461  -31.8045 C   0  0  0  0  0  0  0  0  0  0  0  0
   -6.2916   10.7633  -29.7616 C   0  0  0  0  0  0  0  0  0  0  0  0
   -6.0337   10.4436  -31.0946 C   0  0  0  0  0  0  0  0  0  0  0  0
   -4.2638    9.4463  -33.5706 C   0  0  0  0  0  0  0  0  0  0  0  0
   -3.3011   10.5918  -33.6047 C   0  0  0  0  0  0  0  0  0  0  0  0
   -4.7497   10.8424  -33.2347 C   0  0  0  0  0  0  0  0  0  0  0  0
   -5.6229   11.5459  -34.2335 C   0  0  0  0  0  0  0  0  0  0  0  0
   -7.0835   12.6212  -32.7889 N   0  0  0  0  0  0  0  0  0  0  0  0
   -7.2372   10.1010  -29.0362 O   0  0  0  0  0  0  0  0  0  0  0  0
   -6.9680   11.5519  -33.7670 O   0  0  0  0  0  0  0  0  0  0  0  0
   -7.0227    9.0500  -31.9336 Br  0  0  0  0  0  0  0  0  0  0  0  0
   -4.0441   13.2840  -29.3638 H   0  0  0  0  0  0  0  0  0  0  0  0
   -3.5821   12.7219  -31.7241 H   0  0  0  0  0  0  0  0  0  0  0  0
   -5.7709   12.0412  -28.1005 H   0  0  0  0  0  0  0  0  0  0  0  0
   -4.5613    9.0102  -34.5172 H   0  0  0  0  0  0  0  0  0  0  0  0
   -4.1559    8.7224  -32.7709 H   0  0  0  0  0  0  0  0  0  0  0  0
   -2.5461   10.6362  -32.8282 H   0  0  0  0  0  0  0  0  0  0  0  0
   -2.9513   10.9276  -34.5741 H   0  0  0  0  0  0  0  0  0  0  0  0
   -5.5987   11.0384  -35.2074 H   0  0  0  0  0  0  0  0  0  0  0  0
   -5.3031   12.5872  -34.3753 H   0  0  0  0  0  0  0  0  0  0  0  0
   -7.4540   12.1040  -31.9930 H   0  0  0  0  0  0  0  0  0  0  0  0
   -7.8625   13.1474  -33.1817 H   0  0  0  0  0  0  0  0  0  0  0  0
   -7.6594    9.4192  -29.5814 H   0  0  0  0  0  0  0  0  0  0  0  0
  1  2  1  0  0  0  0
  1  3  2  0  0  0  0
  2  4  2  0  0  0  0
  3  5  1  0  0  0  0
  4  6  1  0  0  0  0
  4  9  1  0  0  0  0
  5  6  2  0  0  0  0
  5 12  1  0  0  0  0
  6 14  1  0  0  0  0
  7  8  1  0  0  0  0
  7  9  1  0  0  0  0
  8  9  1  0  0  0  0
  9 10  1  0  0  0  0
 10 13  1  0  0  0  0
 11 13  1  0  0  0  0
  1 15  1  0  0  0  0
  2 16  1  0  0  0  0
  3 17  1  0  0  0  0
  7 18  1  0  0  0  0
  7 19  1  0  0  0  0
  8 20  1  0  0  0  0
  8 21  1  0  0  0  0
 10 22  1  0  0  0  0
 10 23  1  0  0  0  0
 11 24  1  0  0  0  0
 11 25  1  0  0  0  0
 12 26  1  0  0  0  0
M  END
> <id>
EN300-1904527

> <smiles>
NOCC1(CC1)C=2C=CC=C(O)C2Br

> <IUPAC Name>
3-{1-[(aminooxy)methyl]cyclopropyl}-2-bromophenol

> <CAS>
2228963-77-5

> <URL>
https://www.enaminestore.com/catalog/EN300-1904527

> <ROCS_ShapeQuery>
_x1604L0AP1_x0771L0AP1

> <ROCS_TanimotoCombo>
1.023 

> <ROCS_ShapeTanimoto>
0.469 

> <ROCS_ColorTanimoto>
0.554 

> <ROCS_RefTversky>
0.444 

> <ROCS_RefColorTversky>
0.519 

> <ROCS_RefTverskyCombo>
0.962 

> <ROCS_FitTversky>
1.141 

> <ROCS_FitColorTversky>
1.140 

> <ROCS_FitTverskyCombo>
2.281 

> <ROCS_ColorScore>
-4.883

> <ROCS_Overlap>
744.601

> <ROCS_Rank>
52                  

$$$$
untitled-dbase-1529_6
  -OEChem-06052310023D

 24 24  0     0  0  0  0  0  0999 V2000
   -4.9395   11.2928  -31.7294 C   0  0  0  0  0  0  0  0  0  0  0  0
   -4.5778   12.5489  -29.6975 C   0  0  0  0  0  0  0  0  0  0  0  0
   -5.9330   10.5490  -31.0928 C   0  0  0  0  0  0  0  0  0  0  0  0
   -6.2489   10.8052  -29.7586 C   0  0  0  0  0  0  0  0  0  0  0  0
   -4.2618   12.2927  -31.0318 C   0  0  0  0  0  0  0  0  0  0  0  0
   -5.5713   11.8051  -29.0609 C   0  0  0  0  0  0  0  0  0  0  0  0
   -6.1438    9.3659  -33.3135 C   0  0  0  0  0  0  0  0  0  0  0  0
   -6.5073    8.0341  -31.3016 C   0  0  0  0  0  0  0  0  0  0  0  0
   -8.1719    9.7767  -31.9328 C   0  0  0  0  0  0  0  0  0  0  0  0
   -6.6650    9.4549  -31.8785 C   0  0  0  0  0  0  0  0  0  0  0  0
   -6.5989    9.9995  -34.2618 O   0  0  0  0  0  0  0  0  0  0  0  0
   -7.2233   10.0687  -29.1496 O   0  0  0  0  0  0  0  0  0  0  0  0
   -3.0358   13.2101  -31.8178 Cl  0  0  0  0  0  0  0  0  0  0  0  0
   -5.9723   12.1826  -27.2466 Br  0  0  0  0  0  0  0  0  0  0  0  0
   -4.6963   11.0902  -32.7704 H   0  0  0  0  0  0  0  0  0  0  0  0
   -4.0466   13.3292  -29.1569 H   0  0  0  0  0  0  0  0  0  0  0  0
   -5.2544    8.7266  -33.4583 H   0  0  0  0  0  0  0  0  0  0  0  0
   -7.0488    7.2919  -31.8993 H   0  0  0  0  0  0  0  0  0  0  0  0
   -5.4537    7.7292  -31.2791 H   0  0  0  0  0  0  0  0  0  0  0  0
   -6.8727    7.9764  -30.2692 H   0  0  0  0  0  0  0  0  0  0  0  0
   -8.7216    9.0091  -32.4899 H   0  0  0  0  0  0  0  0  0  0  0  0
   -8.6149    9.8454  -30.9327 H   0  0  0  0  0  0  0  0  0  0  0  0
   -8.3563   10.7410  -32.4215 H   0  0  0  0  0  0  0  0  0  0  0  0
   -7.3325   10.3566  -28.2306 H   0  0  0  0  0  0  0  0  0  0  0  0
  1  3  2  0  0  0  0
  1  5  1  0  0  0  0
  2  5  2  0  0  0  0
  2  6  1  0  0  0  0
  3  4  1  0  0  0  0
  3 10  1  0  0  0  0
  4  6  2  0  0  0  0
  4 12  1  0  0  0  0
  5 13  1  0  0  0  0
  6 14  1  0  0  0  0
  7 10  1  0  0  0  0
  7 11  2  0  0  0  0
  8 10  1  0  0  0  0
  9 10  1  0  0  0  0
  1 15  1  0  0  0  0
  2 16  1  0  0  0  0
  7 17  1  0  0  0  0
  8 18  1  0  0  0  0
  8 19  1  0  0  0  0
  8 20  1  0  0  0  0
  9 21  1  0  0  0  0
  9 22  1  0  0  0  0
  9 23  1  0  0  0  0
 12 24  1  0  0  0  0
M  END
> <id>
EN300-1922596

> <smiles>
CC(C)(C=O)C=1C=C(Cl)C=C(Br)C1O

> <IUPAC Name>
2-(3-bromo-5-chloro-2-hydroxyphenyl)-2-methylpropanal

> <CAS>
2228203-32-3

> <URL>
https://www.enaminestore.com/catalog/EN300-1922596

> <ROCS_ShapeQuery>
_x1604L0AP1_x0771L0AP1

> <ROCS_TanimotoCombo>
1.022 

> <ROCS_ShapeTanimoto>
0.580 

> <ROCS_ColorTanimoto>
0.441 

> <ROCS_RefTversky>
0.508 

> <ROCS_RefColorTversky>
0.505 

> <ROCS_RefTverskyCombo>
1.013 

> <ROCS_FitTversky>
1.326 

> <ROCS_FitColorTversky>
0.777 

> <ROCS_FitTverskyCombo>
2.103 

> <ROCS_ColorScore>
-4.808

> <ROCS_Overlap>
851.751

> <ROCS_Rank>
53                  

$$$$
untitled-dbase-1753_104
  -OEChem-06052310023D

 26 26  0     1  0  0  0  0  0999 V2000
   -4.5883   12.4752  -29.8397 C   0  0  0  0  0  0  0  0  0  0  0  0
   -5.0649   11.1416  -31.7970 C   0  0  0  0  0  0  0  0  0  0  0  0
   -4.3382   12.1564  -31.1744 C   0  0  0  0  0  0  0  0  0  0  0  0
   -5.5651   11.7791  -29.1276 C   0  0  0  0  0  0  0  0  0  0  0  0
   -6.2918   10.7643  -29.7502 C   0  0  0  0  0  0  0  0  0  0  0  0
   -6.0417   10.4455  -31.0850 C   0  0  0  0  0  0  0  0  0  0  0  0
   -2.1510   12.0066  -32.4164 C   0  0  0  0  0  0  0  0  0  0  0  0
   -5.0379   11.4072  -26.8385 C   0  0  0  0  0  0  0  0  0  0  0  0
   -3.2945   12.9015  -31.9356 C   0  0  2  0  0  0  0  0  0  0  0  0
   -3.6719   15.0346  -31.1084 N   0  0  0  0  0  0  0  0  0  0  0  0
   -7.2438   10.0955  -29.0373 O   0  0  0  0  0  0  0  0  0  0  0  0
   -5.7982   12.1023  -27.8248 O   0  0  0  0  0  0  0  0  0  0  0  0
   -2.7412   13.9212  -31.0957 O   0  0  0  0  0  0  0  0  0  0  0  0
   -7.0089    9.0729  -31.9651 Br  0  0  0  0  0  0  0  0  0  0  0  0
   -4.0233   13.2661  -29.3521 H   0  0  0  0  0  0  0  0  0  0  0  0
   -4.8629   10.9005  -32.8384 H   0  0  0  0  0  0  0  0  0  0  0  0
   -1.6938   11.4677  -31.5805 H   0  0  0  0  0  0  0  0  0  0  0  0
   -1.3718   12.5906  -32.9190 H   0  0  0  0  0  0  0  0  0  0  0  0
   -2.5098   11.2749  -33.1487 H   0  0  0  0  0  0  0  0  0  0  0  0
   -5.3212   11.7597  -25.8437 H   0  0  0  0  0  0  0  0  0  0  0  0
   -3.9725   11.5816  -27.0088 H   0  0  0  0  0  0  0  0  0  0  0  0
   -5.2471   10.3378  -26.9170 H   0  0  0  0  0  0  0  0  0  0  0  0
   -3.7150   13.4167  -32.8160 H   0  0  0  0  0  0  0  0  0  0  0  0
   -3.0491   15.7881  -31.3958 H   0  0  0  0  0  0  0  0  0  0  0  0
   -3.8282   15.1519  -30.1086 H   0  0  0  0  0  0  0  0  0  0  0  0
   -7.2871   10.4419  -28.1330 H   0  0  0  0  0  0  0  0  0  0  0  0
  1  3  1  0  0  0  0
  1  4  2  0  0  0  0
  2  3  2  0  0  0  0
  2  6  1  0  0  0  0
  3  9  1  0  0  0  0
  4  5  1  0  0  0  0
  4 12  1  0  0  0  0
  5  6  2  0  0  0  0
  5 11  1  0  0  0  0
  6 14  1  0  0  0  0
  7  9  1  0  0  0  0
  8 12  1  0  0  0  0
  9 13  1  0  0  0  0
 10 13  1  0  0  0  0
  1 15  1  0  0  0  0
  2 16  1  0  0  0  0
  7 17  1  0  0  0  0
  7 18  1  0  0  0  0
  7 19  1  0  0  0  0
  8 20  1  0  0  0  0
  8 21  1  0  0  0  0
  8 22  1  0  0  0  0
  9 23  1  0  0  0  0
 10 24  1  0  0  0  0
 10 25  1  0  0  0  0
 11 26  1  0  0  0  0
M  END
> <id>
EN300-1927005

> <smiles>
COC=1C=C(C=C(Br)C1O)C(C)ON

> <IUPAC Name>
4-[1-(aminooxy)ethyl]-2-bromo-6-methoxyphenol

> <CAS>
2228424-95-9

> <URL>
https://www.enaminestore.com/catalog/EN300-1927005

> <ROCS_ShapeQuery>
_x1604L0AP1_x0771L0AP1

> <ROCS_TanimotoCombo>
1.021 

> <ROCS_ShapeTanimoto>
0.524 

> <ROCS_ColorTanimoto>
0.497 

> <ROCS_RefTversky>
0.477 

> <ROCS_RefColorTversky>
0.516 

> <ROCS_RefTverskyCombo>
0.992 

> <ROCS_FitTversky>
1.234 

> <ROCS_FitColorTversky>
0.932 

> <ROCS_FitTverskyCombo>
2.167 

> <ROCS_ColorScore>
-4.881

> <ROCS_Overlap>
799.890

> <ROCS_Rank>
54                  

$$$$
untitled-dbase-780_67
  -OEChem-06052310023D

 20 20  0     0  0  0  0  0  0999 V2000
   -4.6074   12.4939  -29.8633 C   0  0  0  0  0  0  0  0  0  0  0  0
   -4.3605   12.1768  -31.1990 C   0  0  0  0  0  0  0  0  0  0  0  0
   -5.5747   11.7893  -29.1465 C   0  0  0  0  0  0  0  0  0  0  0  0
   -5.0809   11.1552  -31.8180 C   0  0  0  0  0  0  0  0  0  0  0  0
   -6.2950   10.7678  -29.7655 C   0  0  0  0  0  0  0  0  0  0  0  0
   -6.0482   10.4507  -31.1012 C   0  0  0  0  0  0  0  0  0  0  0  0
   -4.7788   10.8545  -33.2509 C   0  0  0  0  0  0  0  0  0  0  0  0
   -5.9921   10.9060  -34.1920 C   0  0  0  0  0  0  0  0  0  0  0  0
   -7.2329   10.1016  -29.0335 O   0  0  0  0  0  0  0  0  0  0  0  0
   -5.5562   10.5110  -35.9138 S   0  0  0  0  0  0  0  0  0  0  0  0
   -7.0370    9.0548  -31.9348 Br  0  0  0  0  0  0  0  0  0  0  0  0
   -4.0468   13.2896  -29.3815 H   0  0  0  0  0  0  0  0  0  0  0  0
   -3.6046   12.7324  -31.7481 H   0  0  0  0  0  0  0  0  0  0  0  0
   -5.7617   12.0427  -28.1064 H   0  0  0  0  0  0  0  0  0  0  0  0
   -3.9870   11.5181  -33.6370 H   0  0  0  0  0  0  0  0  0  0  0  0
   -4.3465    9.8417  -33.3077 H   0  0  0  0  0  0  0  0  0  0  0  0
   -6.7389   10.1735  -33.8690 H   0  0  0  0  0  0  0  0  0  0  0  0
   -6.4669   11.8921  -34.1719 H   0  0  0  0  0  0  0  0  0  0  0  0
   -7.6590    9.4209  -29.5769 H   0  0  0  0  0  0  0  0  0  0  0  0
   -5.0932    9.2801  -35.6597 H   0  0  0  0  0  0  0  0  0  0  0  0
  1  2  2  0  0  0  0
  1  3  1  0  0  0  0
  2  4  1  0  0  0  0
  3  5  2  0  0  0  0
  4  6  2  0  0  0  0
  4  7  1  0  0  0  0
  5  6  1  0  0  0  0
  5  9  1  0  0  0  0
  6 11  1  0  0  0  0
  7  8  1  0  0  0  0
  8 10  1  0  0  0  0
  1 12  1  0  0  0  0
  2 13  1  0  0  0  0
  3 14  1  0  0  0  0
  7 15  1  0  0  0  0
  7 16  1  0  0  0  0
  8 17  1  0  0  0  0
  8 18  1  0  0  0  0
  9 19  1  0  0  0  0
 10 20  1  0  0  0  0
M  END
> <id>
EN300-1904620

> <smiles>
OC=1C=CC=C(CCS)C1Br

> <MDLNUMBER>
MFCD33499794

> <IUPAC Name>
2-bromo-3-(2-sulfanylethyl)phenol

> <CAS>
2229351-06-6

> <URL>
https://www.enaminestore.com/catalog/EN300-1904620

> <ROCS_ShapeQuery>
_x1604L0AP1_x0771L0AP1

> <ROCS_TanimotoCombo>
1.020 

> <ROCS_ShapeTanimoto>
0.467 

> <ROCS_ColorTanimoto>
0.554 

> <ROCS_RefTversky>
0.415 

> <ROCS_RefColorTversky>
0.518 

> <ROCS_RefTverskyCombo>
0.933 

> <ROCS_FitTversky>
1.364 

> <ROCS_FitColorTversky>
1.139 

> <ROCS_FitTverskyCombo>
2.503 

> <ROCS_ColorScore>
-4.882

> <ROCS_Overlap>
693.029

> <ROCS_Rank>
55                  

$$$$
untitled-dbase-750_1
  -OEChem-06052310023D

 16 16  0     0  0  0  0  0  0999 V2000
   -4.6143   12.4994  -29.8597 C   0  0  0  0  0  0  0  0  0  0  0  0
   -5.5823   11.7960  -29.1429 C   0  0  0  0  0  0  0  0  0  0  0  0
   -5.0821   11.1543  -31.8114 C   0  0  0  0  0  0  0  0  0  0  0  0
   -4.3642   12.1786  -31.1940 C   0  0  0  0  0  0  0  0  0  0  0  0
   -6.3001   10.7717  -29.7603 C   0  0  0  0  0  0  0  0  0  0  0  0
   -6.0500   10.4508  -31.0946 C   0  0  0  0  0  0  0  0  0  0  0  0
   -3.3290   12.9311  -31.9593 C   0  0  0  0  0  0  0  0  0  0  0  0
   -7.2381   10.1024  -29.0318 O   0  0  0  0  0  0  0  0  0  0  0  0
   -1.6956   12.4229  -31.4743 Cl  0  0  0  0  0  0  0  0  0  0  0  0
   -7.0052    9.0642  -31.9649 Br  0  0  0  0  0  0  0  0  0  0  0  0
   -4.0603   13.2957  -29.3696 H   0  0  0  0  0  0  0  0  0  0  0  0
   -5.7716   12.0516  -28.1037 H   0  0  0  0  0  0  0  0  0  0  0  0
   -4.8807   10.9113  -32.8526 H   0  0  0  0  0  0  0  0  0  0  0  0
   -3.4109   14.0131  -31.7905 H   0  0  0  0  0  0  0  0  0  0  0  0
   -3.4280   12.7658  -33.0404 H   0  0  0  0  0  0  0  0  0  0  0  0
   -7.6605    9.4205  -29.5768 H   0  0  0  0  0  0  0  0  0  0  0  0
  1  2  1  0  0  0  0
  1  4  2  0  0  0  0
  2  5  2  0  0  0  0
  3  4  1  0  0  0  0
  3  6  2  0  0  0  0
  4  7  1  0  0  0  0
  5  6  1  0  0  0  0
  5  8  1  0  0  0  0
  6 10  1  0  0  0  0
  7  9  1  0  0  0  0
  1 11  1  0  0  0  0
  2 12  1  0  0  0  0
  3 13  1  0  0  0  0
  7 14  1  0  0  0  0
  7 15  1  0  0  0  0
  8 16  1  0  0  0  0
M  END
> <id>
EN300-1893115

> <smiles>
OC=1C=CC(CCl)=CC1Br

> <MDLNUMBER>
MFCD18391438

> <IUPAC Name>
2-bromo-4-(chloromethyl)phenol

> <CAS>
1261815-29-5

> <URL>
https://www.enaminestore.com/catalog/EN300-1893115

> <ROCS_ShapeQuery>
_x1604L0AP1_x0771L0AP1

> <ROCS_TanimotoCombo>
1.020 

> <ROCS_ShapeTanimoto>
0.467 

> <ROCS_ColorTanimoto>
0.553 

> <ROCS_RefTversky>
0.408 

> <ROCS_RefColorTversky>
0.518 

> <ROCS_RefTverskyCombo>
0.926 

> <ROCS_FitTversky>
1.442 

> <ROCS_FitColorTversky>
1.138 

> <ROCS_FitTverskyCombo>
2.580 

> <ROCS_ColorScore>
-4.878

> <ROCS_Overlap>
681.310

> <ROCS_Rank>
56                  

$$$$
untitled-dbase-2122_0
  -OEChem-06052310023D

 19 19  0     0  0  0  0  0  0999 V2000
   -4.3472   12.1737  -31.1894 C   0  0  0  0  0  0  0  0  0  0  0  0
   -5.5727   11.7872  -29.1436 C   0  0  0  0  0  0  0  0  0  0  0  0
   -4.6003   12.4903  -29.8548 C   0  0  0  0  0  0  0  0  0  0  0  0
   -5.0665   11.1542  -31.8130 C   0  0  0  0  0  0  0  0  0  0  0  0
   -6.2920   10.7675  -29.7671 C   0  0  0  0  0  0  0  0  0  0  0  0
   -6.0389   10.4511  -31.1018 C   0  0  0  0  0  0  0  0  0  0  0  0
   -3.8315   13.5814  -29.1894 C   0  0  0  0  0  0  0  0  0  0  0  0
   -4.7577   10.8544  -33.2447 C   0  0  0  0  0  0  0  0  0  0  0  0
   -7.2348   10.1025  -29.0404 O   0  0  0  0  0  0  0  0  0  0  0  0
   -7.0251    9.0574  -31.9424 Br  0  0  0  0  0  0  0  0  0  0  0  0
   -3.5907   12.7249  -31.7432 H   0  0  0  0  0  0  0  0  0  0  0  0
   -5.7714   12.0331  -28.1032 H   0  0  0  0  0  0  0  0  0  0  0  0
   -4.3453   14.5423  -29.3154 H   0  0  0  0  0  0  0  0  0  0  0  0
   -3.7137   13.3880  -28.1153 H   0  0  0  0  0  0  0  0  0  0  0  0
   -2.8208   13.6695  -29.6089 H   0  0  0  0  0  0  0  0  0  0  0  0
   -3.9693   10.0964  -33.3110 H   0  0  0  0  0  0  0  0  0  0  0  0
   -5.6455   10.4842  -33.7710 H   0  0  0  0  0  0  0  0  0  0  0  0
   -4.4239   11.7551  -33.7735 H   0  0  0  0  0  0  0  0  0  0  0  0
   -7.6594    9.4231  -29.5866 H   0  0  0  0  0  0  0  0  0  0  0  0
  1  3  2  0  0  0  0
  1  4  1  0  0  0  0
  2  3  1  0  0  0  0
  2  5  2  0  0  0  0
  3  7  1  0  0  0  0
  4  6  2  0  0  0  0
  4  8  1  0  0  0  0
  5  6  1  0  0  0  0
  5  9  1  0  0  0  0
  6 10  1  0  0  0  0
  1 11  1  0  0  0  0
  2 12  1  0  0  0  0
  7 13  1  0  0  0  0
  7 14  1  0  0  0  0
  7 15  1  0  0  0  0
  8 16  1  0  0  0  0
  8 17  1  0  0  0  0
  8 18  1  0  0  0  0
  9 19  1  0  0  0  0
M  END
> <id>
EN300-190926

> <smiles>
CC=1C=C(C)C(Br)=C(O)C1

> <MDLNUMBER>
MFCD22058629

> <IUPAC Name>
2-bromo-3,5-dimethylphenol

> <CAS>
125237-08-3

> <Purity>
95

> <URL>
https://www.enaminestore.com/catalog/EN300-190926

> <MP>
51-54

> <ROCS_ShapeQuery>
_x1604L0AP1_x0771L0AP1

> <ROCS_TanimotoCombo>
1.020 

> <ROCS_ShapeTanimoto>
0.466 

> <ROCS_ColorTanimoto>
0.554 

> <ROCS_RefTversky>
0.409 

> <ROCS_RefColorTversky>
0.519 

> <ROCS_RefTverskyCombo>
0.928 

> <ROCS_FitTversky>
1.419 

> <ROCS_FitColorTversky>
1.140 

> <ROCS_FitTverskyCombo>
2.559 

> <ROCS_ColorScore>
-4.883

> <ROCS_Overlap>
683.342

> <ROCS_Rank>
57                  

$$$$
untitled-dbase-42_0
  -OEChem-06052310023D

 16 16  0     0  0  0  0  0  0999 V2000
   -4.3473   12.1479  -31.2163 C   0  0  0  0  0  0  0  0  0  0  0  0
   -5.0755   11.1263  -31.8259 C   0  0  0  0  0  0  0  0  0  0  0  0
   -4.5912   12.4786  -29.8833 C   0  0  0  0  0  0  0  0  0  0  0  0
   -6.2916   10.7661  -29.7696 C   0  0  0  0  0  0  0  0  0  0  0  0
   -5.5633   11.7878  -29.1600 C   0  0  0  0  0  0  0  0  0  0  0  0
   -6.0477   10.4354  -31.1026 C   0  0  0  0  0  0  0  0  0  0  0  0
   -3.8103   13.5714  -29.2351 C   0  0  0  0  0  0  0  0  0  0  0  0
   -7.2344   10.1084  -29.0368 O   0  0  0  0  0  0  0  0  0  0  0  0
   -5.7985   12.1040  -27.8780 F   0  0  0  0  0  0  0  0  0  0  0  0
   -7.0181    9.0539  -31.9639 Br  0  0  0  0  0  0  0  0  0  0  0  0
   -3.5919   12.6809  -31.7880 H   0  0  0  0  0  0  0  0  0  0  0  0
   -4.8717   10.8828  -32.8658 H   0  0  0  0  0  0  0  0  0  0  0  0
   -4.3181   14.5345  -29.3681 H   0  0  0  0  0  0  0  0  0  0  0  0
   -3.6865   13.3889  -28.1597 H   0  0  0  0  0  0  0  0  0  0  0  0
   -2.8018   13.6479  -29.6623 H   0  0  0  0  0  0  0  0  0  0  0  0
   -7.2679   10.4670  -28.1364 H   0  0  0  0  0  0  0  0  0  0  0  0
  1  2  1  0  0  0  0
  1  3  2  0  0  0  0
  2  6  2  0  0  0  0
  3  5  1  0  0  0  0
  3  7  1  0  0  0  0
  4  5  2  0  0  0  0
  4  6  1  0  0  0  0
  4  8  1  0  0  0  0
  5  9  1  0  0  0  0
  6 10  1  0  0  0  0
  1 11  1  0  0  0  0
  2 12  1  0  0  0  0
  7 13  1  0  0  0  0
  7 14  1  0  0  0  0
  7 15  1  0  0  0  0
  8 16  1  0  0  0  0
M  END
> <id>
EN300-187070

> <smiles>
CC=1C=CC(Br)=C(O)C1F

> <MDLNUMBER>
MFCD19105384

> <IUPAC Name>
6-bromo-2-fluoro-3-methylphenol

> <CAS>
1310416-52-4

> <Purity>
95

> <URL>
https://www.enaminestore.com/catalog/EN300-187070

> <ROCS_ShapeQuery>
_x1604L0AP1_x0771L0AP1

> <ROCS_TanimotoCombo>
1.019 

> <ROCS_ShapeTanimoto>
0.466 

> <ROCS_ColorTanimoto>
0.553 

> <ROCS_RefTversky>
0.411 

> <ROCS_RefColorTversky>
0.518 

> <ROCS_RefTverskyCombo>
0.929 

> <ROCS_FitTversky>
1.403 

> <ROCS_FitColorTversky>
1.138 

> <ROCS_FitTverskyCombo>
2.541 

> <ROCS_ColorScore>
-4.878

> <ROCS_Overlap>
686.128

> <ROCS_Rank>
58                  

$$$$
untitled-dbase-2316_0
  -OEChem-06052310023D

 16 16  0     0  0  0  0  0  0999 V2000
   -4.3491   12.1754  -31.1915 C   0  0  0  0  0  0  0  0  0  0  0  0
   -5.5730   11.7881  -29.1447 C   0  0  0  0  0  0  0  0  0  0  0  0
   -5.0683   11.1555  -31.8145 C   0  0  0  0  0  0  0  0  0  0  0  0
   -6.2922   10.7682  -29.7677 C   0  0  0  0  0  0  0  0  0  0  0  0
   -4.6015   12.4917  -29.8565 C   0  0  0  0  0  0  0  0  0  0  0  0
   -6.0398   10.4519  -31.1026 C   0  0  0  0  0  0  0  0  0  0  0  0
   -4.7605   10.8552  -33.2464 C   0  0  0  0  0  0  0  0  0  0  0  0
   -7.2339   10.1025  -29.0403 O   0  0  0  0  0  0  0  0  0  0  0  0
   -3.7145   13.7502  -29.0878 Cl  0  0  0  0  0  0  0  0  0  0  0  0
   -7.0262    9.0579  -31.9424 Br  0  0  0  0  0  0  0  0  0  0  0  0
   -3.5918   12.7228  -31.7491 H   0  0  0  0  0  0  0  0  0  0  0  0
   -5.7748   12.0299  -28.1037 H   0  0  0  0  0  0  0  0  0  0  0  0
   -3.9719   10.0976  -33.3130 H   0  0  0  0  0  0  0  0  0  0  0  0
   -5.6486   10.4845  -33.7717 H   0  0  0  0  0  0  0  0  0  0  0  0
   -4.4275   11.7559  -33.7758 H   0  0  0  0  0  0  0  0  0  0  0  0
   -7.6586    9.4229  -29.5862 H   0  0  0  0  0  0  0  0  0  0  0  0
  1  3  2  0  0  0  0
  1  5  1  0  0  0  0
  2  4  1  0  0  0  0
  2  5  2  0  0  0  0
  3  6  1  0  0  0  0
  3  7  1  0  0  0  0
  4  6  2  0  0  0  0
  4  8  1  0  0  0  0
  5  9  1  0  0  0  0
  6 10  1  0  0  0  0
  1 11  1  0  0  0  0
  2 12  1  0  0  0  0
  7 13  1  0  0  0  0
  7 14  1  0  0  0  0
  7 15  1  0  0  0  0
  8 16  1  0  0  0  0
M  END
> <id>
EN300-33887700

> <smiles>
CC=1C=C(Cl)C=C(O)C1Br

> <MDLNUMBER>
MFCD33401552

> <IUPAC Name>
2-bromo-5-chloro-3-methylphenol

> <CAS>
2092417-16-6

> <Purity>
95

> <URL>
https://www.enaminestore.com/catalog/EN300-33887700

> <ROCS_ShapeQuery>
_x1604L0AP1_x0771L0AP1

> <ROCS_TanimotoCombo>
1.019 

> <ROCS_ShapeTanimoto>
0.465 

> <ROCS_ColorTanimoto>
0.554 

> <ROCS_RefTversky>
0.408 

> <ROCS_RefColorTversky>
0.519 

> <ROCS_RefTverskyCombo>
0.927 

> <ROCS_FitTversky>
1.432 

> <ROCS_FitColorTversky>
1.139 

> <ROCS_FitTverskyCombo>
2.572 

> <ROCS_ColorScore>
-4.883

> <ROCS_Overlap>
680.700

> <ROCS_Rank>
59                  

$$$$
untitled-dbase-1514_2
  -OEChem-06052310023D

 15 15  0     0  0  0  0  0  0999 V2000
   -5.0626   11.1272  -31.8060 C   0  0  0  0  0  0  0  0  0  0  0  0
   -5.5662   11.7785  -29.1405 C   0  0  0  0  0  0  0  0  0  0  0  0
   -4.3360   12.1445  -31.1874 C   0  0  0  0  0  0  0  0  0  0  0  0
   -6.2928   10.7612  -29.7592 C   0  0  0  0  0  0  0  0  0  0  0  0
   -4.5878   12.4702  -29.8546 C   0  0  0  0  0  0  0  0  0  0  0  0
   -6.0411   10.4356  -31.0919 C   0  0  0  0  0  0  0  0  0  0  0  0
   -3.3175   12.8644  -31.9357 C   0  0  0  0  0  0  0  0  0  0  0  0
   -2.6405   13.7740  -31.4486 O   0  0  0  0  0  0  0  0  0  0  0  0
   -7.2420   10.1044  -29.0338 O   0  0  0  0  0  0  0  0  0  0  0  0
   -3.8965   13.4472  -29.2505 F   0  0  0  0  0  0  0  0  0  0  0  0
   -7.0104    9.0606  -31.9650 Br  0  0  0  0  0  0  0  0  0  0  0  0
   -4.8615   10.8790  -32.8459 H   0  0  0  0  0  0  0  0  0  0  0  0
   -5.7564   12.0373  -28.1024 H   0  0  0  0  0  0  0  0  0  0  0  0
   -3.1558   12.5678  -32.9948 H   0  0  0  0  0  0  0  0  0  0  0  0
   -7.6696    9.4262  -29.5793 H   0  0  0  0  0  0  0  0  0  0  0  0
  1  3  1  0  0  0  0
  1  6  2  0  0  0  0
  2  4  2  0  0  0  0
  2  5  1  0  0  0  0
  3  5  2  0  0  0  0
  3  7  1  0  0  0  0
  4  6  1  0  0  0  0
  4  9  1  0  0  0  0
  5 10  1  0  0  0  0
  6 11  1  0  0  0  0
  7  8  2  0  0  0  0
  1 12  1  0  0  0  0
  2 13  1  0  0  0  0
  7 14  1  0  0  0  0
  9 15  1  0  0  0  0
M  END
> <id>
EN300-1276385

> <smiles>
OC=1C=C(F)C(C=O)=CC1Br

> <MDLNUMBER>
MFCD22036550

> <IUPAC Name>
5-bromo-2-fluoro-4-hydroxybenzaldehyde

> <CAS>
914397-21-0

> <Purity>
95

> <URL>
https://www.enaminestore.com/catalog/EN300-1276385

> <ROCS_ShapeQuery>
_x1604L0AP1_x0771L0AP1

> <ROCS_TanimotoCombo>
1.019 

> <ROCS_ShapeTanimoto>
0.522 

> <ROCS_ColorTanimoto>
0.497 

> <ROCS_RefTversky>
0.452 

> <ROCS_RefColorTversky>
0.515 

> <ROCS_RefTverskyCombo>
0.968 

> <ROCS_FitTversky>
1.419 

> <ROCS_FitColorTversky>
0.932 

> <ROCS_FitTverskyCombo>
2.351 

> <ROCS_ColorScore>
-4.879

> <ROCS_Overlap>
756.187

> <ROCS_Rank>
60                  

$$$$
untitled-dbase-113_0
  -OEChem-06052310023D

 13 13  0     0  0  0  0  0  0999 V2000
   -4.3445   12.1421  -31.2198 C   0  0  0  0  0  0  0  0  0  0  0  0
   -5.0735   11.1198  -31.8273 C   0  0  0  0  0  0  0  0  0  0  0  0
   -6.2901   10.7649  -29.7704 C   0  0  0  0  0  0  0  0  0  0  0  0
   -5.5611   11.7872  -29.1628 C   0  0  0  0  0  0  0  0  0  0  0  0
   -4.5883   12.4758  -29.8875 C   0  0  0  0  0  0  0  0  0  0  0  0
   -6.0463   10.4312  -31.1027 C   0  0  0  0  0  0  0  0  0  0  0  0
   -7.2340   10.1096  -29.0367 O   0  0  0  0  0  0  0  0  0  0  0  0
   -5.8038   12.1042  -27.8821 F   0  0  0  0  0  0  0  0  0  0  0  0
   -3.6856   13.7395  -29.1446 Cl  0  0  0  0  0  0  0  0  0  0  0  0
   -7.0164    9.0478  -31.9610 Br  0  0  0  0  0  0  0  0  0  0  0  0
   -3.5899   12.6702  -31.7970 H   0  0  0  0  0  0  0  0  0  0  0  0
   -4.8695   10.8730  -32.8662 H   0  0  0  0  0  0  0  0  0  0  0  0
   -7.2676   10.4702  -28.1371 H   0  0  0  0  0  0  0  0  0  0  0  0
  1  2  1  0  0  0  0
  1  5  2  0  0  0  0
  2  6  2  0  0  0  0
  3  4  2  0  0  0  0
  3  6  1  0  0  0  0
  3  7  1  0  0  0  0
  4  5  1  0  0  0  0
  4  8  1  0  0  0  0
  5  9  1  0  0  0  0
  6 10  1  0  0  0  0
  1 11  1  0  0  0  0
  2 12  1  0  0  0  0
  7 13  1  0  0  0  0
M  END
> <id>
EN300-207641

> <smiles>
OC=1C(F)=C(Cl)C=CC1Br

> <MDLNUMBER>
MFCD19105360

> <IUPAC Name>
6-bromo-3-chloro-2-fluorophenol

> <CAS>
186590-40-9

> <URL>
https://www.enaminestore.com/catalog/EN300-207641

> <ROCS_ShapeQuery>
_x1604L0AP1_x0771L0AP1

> <ROCS_TanimotoCombo>
1.019 

> <ROCS_ShapeTanimoto>
0.466 

> <ROCS_ColorTanimoto>
0.553 

> <ROCS_RefTversky>
0.410 

> <ROCS_RefColorTversky>
0.518 

> <ROCS_RefTverskyCombo>
0.928 

> <ROCS_FitTversky>
1.417 

> <ROCS_FitColorTversky>
1.138 

> <ROCS_FitTverskyCombo>
2.555 

> <ROCS_ColorScore>
-4.878

> <ROCS_Overlap>
683.556

> <ROCS_Rank>
61                  

$$$$
untitled-dbase-1941_157
  -OEChem-06052310023D

 22 22  0     0  0  0  0  0  0999 V2000
   -4.5793   12.4621  -29.8427 C   0  0  0  0  0  0  0  0  0  0  0  0
   -5.0587   11.1255  -31.7972 C   0  0  0  0  0  0  0  0  0  0  0  0
   -4.3284   12.1386  -31.1761 C   0  0  0  0  0  0  0  0  0  0  0  0
   -5.5605   11.7725  -29.1303 C   0  0  0  0  0  0  0  0  0  0  0  0
   -6.2908   10.7594  -29.7515 C   0  0  0  0  0  0  0  0  0  0  0  0
   -6.0400   10.4358  -31.0849 C   0  0  0  0  0  0  0  0  0  0  0  0
   -5.0389   11.4045  -26.8394 C   0  0  0  0  0  0  0  0  0  0  0  0
   -3.2799   12.8768  -31.9375 C   0  0  0  0  0  0  0  0  0  0  0  0
   -3.1907   15.8783  -30.5685 N   0  5  0  0  0  0  0  0  0  0  0  0
   -2.4169   13.6792  -31.0617 N   0  0  0  0  0  0  0  0  0  0  0  0
   -2.8251   14.8247  -30.8080 N   0  3  0  0  0  0  0  0  0  0  0  0
   -7.2471   10.0970  -29.0384 O   0  0  0  0  0  0  0  0  0  0  0  0
   -5.7943   12.1004  -27.8289 O   0  0  0  0  0  0  0  0  0  0  0  0
   -7.0120    9.0653  -31.9629 Br  0  0  0  0  0  0  0  0  0  0  0  0
   -4.0114   13.2518  -29.3563 H   0  0  0  0  0  0  0  0  0  0  0  0
   -4.8561   10.8806  -32.8376 H   0  0  0  0  0  0  0  0  0  0  0  0
   -5.3222   11.7610  -25.8461 H   0  0  0  0  0  0  0  0  0  0  0  0
   -3.9724   11.5735  -27.0084 H   0  0  0  0  0  0  0  0  0  0  0  0
   -5.2529   10.3358  -26.9153 H   0  0  0  0  0  0  0  0  0  0  0  0
   -2.6536   12.1786  -32.5131 H   0  0  0  0  0  0  0  0  0  0  0  0
   -3.7394   13.5448  -32.6809 H   0  0  0  0  0  0  0  0  0  0  0  0
   -7.2904   10.4460  -28.1351 H   0  0  0  0  0  0  0  0  0  0  0  0
  1  3  1  0  0  0  0
  1  4  2  0  0  0  0
  2  3  2  0  0  0  0
  2  6  1  0  0  0  0
  3  8  1  0  0  0  0
  4  5  1  0  0  0  0
  4 13  1  0  0  0  0
  5  6  2  0  0  0  0
  5 12  1  0  0  0  0
  6 14  1  0  0  0  0
  7 13  1  0  0  0  0
  8 10  1  0  0  0  0
  9 11  2  0  0  0  0
 10 11  2  0  0  0  0
  1 15  1  0  0  0  0
  2 16  1  0  0  0  0
  7 17  1  0  0  0  0
  7 18  1  0  0  0  0
  7 19  1  0  0  0  0
  8 20  1  0  0  0  0
  8 21  1  0  0  0  0
 12 22  1  0  0  0  0
M  CHG  2   9  -1  11   1
M  END
> <id>
EN300-2004352

> <smiles>
COC=1C=C(CN=[N+]=[N-])C=C(Br)C1O

> <IUPAC Name>
4-(azidomethyl)-2-bromo-6-methoxyphenol

> <CAS>
2228518-45-2

> <URL>
https://www.enaminestore.com/catalog/EN300-2004352

> <ROCS_ShapeQuery>
_x1604L0AP1_x0771L0AP1

> <ROCS_TanimotoCombo>
1.018 

> <ROCS_ShapeTanimoto>
0.521 

> <ROCS_ColorTanimoto>
0.497 

> <ROCS_RefTversky>
0.476 

> <ROCS_RefColorTversky>
0.516 

> <ROCS_RefTverskyCombo>
0.992 

> <ROCS_FitTversky>
1.223 

> <ROCS_FitColorTversky>
0.932 

> <ROCS_FitTverskyCombo>
2.155 

> <ROCS_ColorScore>
-4.881

> <ROCS_Overlap>
798.985

> <ROCS_Rank>
62                  

$$$$
untitled-dbase-21_0
  -OEChem-06052310023D

 13 13  0     0  0  0  0  0  0999 V2000
   -4.5871   12.4745  -29.8621 C   0  0  0  0  0  0  0  0  0  0  0  0
   -5.0621   11.1272  -31.8105 C   0  0  0  0  0  0  0  0  0  0  0  0
   -6.2910   10.7646  -29.7622 C   0  0  0  0  0  0  0  0  0  0  0  0
   -4.3357   12.1462  -31.1943 C   0  0  0  0  0  0  0  0  0  0  0  0
   -5.5647   11.7836  -29.1461 C   0  0  0  0  0  0  0  0  0  0  0  0
   -6.0397   10.4364  -31.0945 C   0  0  0  0  0  0  0  0  0  0  0  0
   -7.2397   10.1076  -29.0364 O   0  0  0  0  0  0  0  0  0  0  0  0
   -3.3960   12.8088  -31.8815 F   0  0  0  0  0  0  0  0  0  0  0  0
   -5.8025   12.1062  -27.8672 F   0  0  0  0  0  0  0  0  0  0  0  0
   -7.0088    9.0601  -31.9657 Br  0  0  0  0  0  0  0  0  0  0  0  0
   -4.0208   13.2670  -29.3822 H   0  0  0  0  0  0  0  0  0  0  0  0
   -4.8524   10.8855  -32.8492 H   0  0  0  0  0  0  0  0  0  0  0  0
   -7.2780   10.4648  -28.1356 H   0  0  0  0  0  0  0  0  0  0  0  0
  1  4  2  0  0  0  0
  1  5  1  0  0  0  0
  2  4  1  0  0  0  0
  2  6  2  0  0  0  0
  3  5  2  0  0  0  0
  3  6  1  0  0  0  0
  3  7  1  0  0  0  0
  4  8  1  0  0  0  0
  5  9  1  0  0  0  0
  6 10  1  0  0  0  0
  1 11  1  0  0  0  0
  2 12  1  0  0  0  0
  7 13  1  0  0  0  0
M  END
> <id>
EN300-109212

> <smiles>
OC=1C(F)=CC(F)=CC1Br

> <MDLNUMBER>
MFCD00070752

> <IUPAC Name>
2-bromo-4,6-difluorophenol

> <CAS>
98130-56-4

> <Purity>
95

> <URL>
https://www.enaminestore.com/catalog/EN300-109212

> <ROCS_ShapeQuery>
_x1604L0AP1_x0771L0AP1

> <ROCS_TanimotoCombo>
1.018 

> <ROCS_ShapeTanimoto>
0.465 

> <ROCS_ColorTanimoto>
0.553 

> <ROCS_RefTversky>
0.411 

> <ROCS_RefColorTversky>
0.518 

> <ROCS_RefTverskyCombo>
0.929 

> <ROCS_FitTversky>
1.394 

> <ROCS_FitColorTversky>
1.139 

> <ROCS_FitTverskyCombo>
2.532 

> <ROCS_ColorScore>
-4.879

> <ROCS_Overlap>
686.310

> <ROCS_Rank>
63                  

$$$$
untitled-dbase-1509_0
  -OEChem-06052310023D

 13 13  0     0  0  0  0  0  0999 V2000
   -4.5856   12.4716  -29.8585 C   0  0  0  0  0  0  0  0  0  0  0  0
   -5.0623   11.1288  -31.8096 C   0  0  0  0  0  0  0  0  0  0  0  0
   -6.2907   10.7628  -29.7617 C   0  0  0  0  0  0  0  0  0  0  0  0
   -5.5635   11.7800  -29.1436 C   0  0  0  0  0  0  0  0  0  0  0  0
   -4.3350   12.1460  -31.1916 C   0  0  0  0  0  0  0  0  0  0  0  0
   -6.0401   10.4372  -31.0947 C   0  0  0  0  0  0  0  0  0  0  0  0
   -7.2396   10.1053  -29.0368 O   0  0  0  0  0  0  0  0  0  0  0  0
   -5.7988   12.0980  -27.8631 F   0  0  0  0  0  0  0  0  0  0  0  0
   -3.1287   13.0005  -32.0728 Cl  0  0  0  0  0  0  0  0  0  0  0  0
   -7.0088    9.0610  -31.9667 Br  0  0  0  0  0  0  0  0  0  0  0  0
   -4.0270   13.2619  -29.3638 H   0  0  0  0  0  0  0  0  0  0  0  0
   -4.8641   10.8781  -32.8496 H   0  0  0  0  0  0  0  0  0  0  0  0
   -7.2774   10.4608  -28.1353 H   0  0  0  0  0  0  0  0  0  0  0  0
  1  4  1  0  0  0  0
  1  5  2  0  0  0  0
  2  5  1  0  0  0  0
  2  6  2  0  0  0  0
  3  4  2  0  0  0  0
  3  6  1  0  0  0  0
  3  7  1  0  0  0  0
  4  8  1  0  0  0  0
  5  9  1  0  0  0  0
  6 10  1  0  0  0  0
  1 11  1  0  0  0  0
  2 12  1  0  0  0  0
  7 13  1  0  0  0  0
M  END
> <id>
EN300-2163608

> <smiles>
OC=1C(F)=CC(Cl)=CC1Br

> <MDLNUMBER>
MFCD04115955

> <IUPAC Name>
2-bromo-4-chloro-6-fluorophenol

> <CAS>
886499-88-3

> <Purity>
95

> <URL>
https://www.enaminestore.com/catalog/EN300-2163608

> <ROCS_ShapeQuery>
_x1604L0AP1_x0771L0AP1

> <ROCS_TanimotoCombo>
1.018 

> <ROCS_ShapeTanimoto>
0.465 

> <ROCS_ColorTanimoto>
0.553 

> <ROCS_RefTversky>
0.409 

> <ROCS_RefColorTversky>
0.518 

> <ROCS_RefTverskyCombo>
0.927 

> <ROCS_FitTversky>
1.418 

> <ROCS_FitColorTversky>
1.139 

> <ROCS_FitTverskyCombo>
2.556 

> <ROCS_ColorScore>
-4.879

> <ROCS_Overlap>
682.652

> <ROCS_Rank>
64                  

$$$$
untitled-dbase-38_585
  -OEChem-06052310023D

 25 25  0     0  0  0  0  0  0999 V2000
   -4.3377   11.9991  -31.3510 C   0  0  0  0  0  0  0  0  0  0  0  0
   -5.2021   11.0777  -31.9422 C   0  0  0  0  0  0  0  0  0  0  0  0
   -4.4453   12.2824  -29.9894 C   0  0  0  0  0  0  0  0  0  0  0  0
   -6.1742   10.4397  -31.1718 C   0  0  0  0  0  0  0  0  0  0  0  0
   -6.2819   10.7229  -29.8102 C   0  0  0  0  0  0  0  0  0  0  0  0
   -5.4175   11.6443  -29.2191 C   0  0  0  0  0  0  0  0  0  0  0  0
   -7.0901    9.4575  -31.8251 C   0  0  0  0  0  0  0  0  0  0  0  0
   -7.7021    8.5033  -33.9412 C   0  0  0  0  0  0  0  0  0  0  0  0
   -7.1188    7.6306  -35.0375 C   0  0  0  0  0  0  0  0  0  0  0  0
   -6.6205    9.0548  -33.1256 N   0  0  0  0  0  0  0  0  0  0  0  0
   -7.2391   10.0917  -29.0701 O   0  0  0  0  0  0  0  0  0  0  0  0
   -6.3494    6.5881  -34.4520 O   0  0  0  0  0  0  0  0  0  0  0  0
   -5.5309   12.0557  -27.3719 Br  0  0  0  0  0  0  0  0  0  0  0  0
   -3.5804   12.4957  -31.9507 H   0  0  0  0  0  0  0  0  0  0  0  0
   -5.1097   10.8612  -33.0031 H   0  0  0  0  0  0  0  0  0  0  0  0
   -3.7625   13.0029  -29.5463 H   0  0  0  0  0  0  0  0  0  0  0  0
   -7.1950    8.5503  -31.2150 H   0  0  0  0  0  0  0  0  0  0  0  0
   -8.0981    9.8734  -31.9537 H   0  0  0  0  0  0  0  0  0  0  0  0
   -8.2750    9.3368  -34.3601 H   0  0  0  0  0  0  0  0  0  0  0  0
   -8.3532    7.9125  -33.2900 H   0  0  0  0  0  0  0  0  0  0  0  0
   -6.4552    8.2232  -35.6750 H   0  0  0  0  0  0  0  0  0  0  0  0
   -7.9035    7.1840  -35.6568 H   0  0  0  0  0  0  0  0  0  0  0  0
   -5.8894    8.3424  -33.0308 H   0  0  0  0  0  0  0  0  0  0  0  0
   -7.7504    9.4894  -29.6316 H   0  0  0  0  0  0  0  0  0  0  0  0
   -6.9530    6.0778  -33.8885 H   0  0  0  0  0  0  0  0  0  0  0  0
  1  2  1  0  0  0  0
  1  3  2  0  0  0  0
  2  4  2  0  0  0  0
  3  6  1  0  0  0  0
  4  5  1  0  0  0  0
  4  7  1  0  0  0  0
  5  6  2  0  0  0  0
  5 11  1  0  0  0  0
  6 13  1  0  0  0  0
  7 10  1  0  0  0  0
  8  9  1  0  0  0  0
  8 10  1  0  0  0  0
  9 12  1  0  0  0  0
  1 14  1  0  0  0  0
  2 15  1  0  0  0  0
  3 16  1  0  0  0  0
  7 17  1  0  0  0  0
  7 18  1  0  0  0  0
  8 19  1  0  0  0  0
  8 20  1  0  0  0  0
  9 21  1  0  0  0  0
  9 22  1  0  0  0  0
 10 23  1  0  0  0  0
 11 24  1  0  0  0  0
 12 25  1  0  0  0  0
M  END
> <id>
EN300-167851

> <smiles>
OCCNCC=1C=CC=C(Br)C1O

> <MDLNUMBER>
MFCD14656593

> <IUPAC Name>
2-bromo-6-{[(2-hydroxyethyl)amino]methyl}phenol

> <CAS>
1167416-80-9

> <URL>
https://www.enaminestore.com/catalog/EN300-167851

> <ROCS_ShapeQuery>
_x1604L0AP1_x0771L0AP1

> <ROCS_TanimotoCombo>
1.018 

> <ROCS_ShapeTanimoto>
0.526 

> <ROCS_ColorTanimoto>
0.492 

> <ROCS_RefTversky>
0.468 

> <ROCS_RefColorTversky>
0.607 

> <ROCS_RefTverskyCombo>
1.075 

> <ROCS_FitTversky>
1.312 

> <ROCS_FitColorTversky>
0.722 

> <ROCS_FitTverskyCombo>
2.034 

> <ROCS_ColorScore>
-5.835

> <ROCS_Overlap>
783.582

> <ROCS_Rank>
65                  

$$$$
untitled-dbase-1781_0
  -OEChem-06052310023D

 13 13  0     0  0  0  0  0  0999 V2000
   -5.5745   11.7776  -29.1210 C   0  0  0  0  0  0  0  0  0  0  0  0
   -4.5939   12.4876  -29.8138 C   0  0  0  0  0  0  0  0  0  0  0  0
   -6.2877   10.7655  -29.7635 C   0  0  0  0  0  0  0  0  0  0  0  0
   -4.3266   12.1856  -31.1491 C   0  0  0  0  0  0  0  0  0  0  0  0
   -5.0399   11.1736  -31.7916 C   0  0  0  0  0  0  0  0  0  0  0  0
   -6.0204   10.4635  -31.0988 C   0  0  0  0  0  0  0  0  0  0  0  0
   -7.2382   10.0973  -29.0496 O   0  0  0  0  0  0  0  0  0  0  0  0
   -3.0958   13.1118  -31.9390 Cl  0  0  0  0  0  0  0  0  0  0  0  0
   -4.6944   10.8099  -33.4572 Cl  0  0  0  0  0  0  0  0  0  0  0  0
   -7.0281    9.0667  -31.9244 Br  0  0  0  0  0  0  0  0  0  0  0  0
   -5.7773   12.0187  -28.0812 H   0  0  0  0  0  0  0  0  0  0  0  0
   -4.0486   13.2733  -29.2966 H   0  0  0  0  0  0  0  0  0  0  0  0
   -7.6598    9.4231  -29.6044 H   0  0  0  0  0  0  0  0  0  0  0  0
  1  2  1  0  0  0  0
  1  3  2  0  0  0  0
  2  4  2  0  0  0  0
  3  6  1  0  0  0  0
  3  7  1  0  0  0  0
  4  5  1  0  0  0  0
  4  8  1  0  0  0  0
  5  6  2  0  0  0  0
  5  9  1  0  0  0  0
  6 10  1  0  0  0  0
  1 11  1  0  0  0  0
  2 12  1  0  0  0  0
  7 13  1  0  0  0  0
M  END
> <id>
EN300-7655133

> <smiles>
OC=1C=CC(Cl)=C(Cl)C1Br

> <MDLNUMBER>
MFCD19707188

> <IUPAC Name>
2-bromo-3,4-dichlorophenol

> <CAS>
1379356-93-0

> <Purity>
95

> <URL>
https://www.enaminestore.com/catalog/EN300-7655133

> <ROCS_ShapeQuery>
_x1604L0AP1_x0771L0AP1

> <ROCS_TanimotoCombo>
1.018 

> <ROCS_ShapeTanimoto>
0.463 

> <ROCS_ColorTanimoto>
0.554 

> <ROCS_RefTversky>
0.406 

> <ROCS_RefColorTversky>
0.519 

> <ROCS_RefTverskyCombo>
0.925 

> <ROCS_FitTversky>
1.443 

> <ROCS_FitColorTversky>
1.140 

> <ROCS_FitTverskyCombo>
2.583 

> <ROCS_ColorScore>
-4.886

> <ROCS_Overlap>
676.769

> <ROCS_Rank>
66                  

$$$$
untitled-dbase-120_1
  -OEChem-06052310023D

 15 15  0     1  0  0  0  0  0999 V2000
   -4.3519   12.1417  -31.2357 C   0  0  0  0  0  0  0  0  0  0  0  0
   -5.0812   11.1164  -31.8378 C   0  0  0  0  0  0  0  0  0  0  0  0
   -5.5609   11.7907  -29.1736 C   0  0  0  0  0  0  0  0  0  0  0  0
   -6.2903   10.7655  -29.7757 C   0  0  0  0  0  0  0  0  0  0  0  0
   -4.5917   12.4788  -29.9035 C   0  0  0  0  0  0  0  0  0  0  0  0
   -6.0504   10.4284  -31.1078 C   0  0  0  0  0  0  0  0  0  0  0  0
   -4.6401   14.7678  -28.7265 O   0  5  0  0  0  0  0  0  0  0  0  0
   -2.7742   13.1382  -28.2037 O   0  0  0  0  0  0  0  0  0  0  0  0
   -7.2309   10.1130  -29.0355 O   0  0  0  0  0  0  0  0  0  0  0  0
   -3.6805   13.7637  -29.1502 S   0  0  1  0  0  0  0  0  0  0  0  0
   -7.0220    9.0414  -31.9590 Br  0  0  0  0  0  0  0  0  0  0  0  0
   -3.5991   12.6708  -31.8137 H   0  0  0  0  0  0  0  0  0  0  0  0
   -4.8799   10.8679  -32.8768 H   0  0  0  0  0  0  0  0  0  0  0  0
   -5.7505   12.0520  -28.1354 H   0  0  0  0  0  0  0  0  0  0  0  0
   -7.6615    9.4284  -29.5707 H   0  0  0  0  0  0  0  0  0  0  0  0
  1  2  1  0  0  0  0
  1  5  2  0  0  0  0
  2  6  2  0  0  0  0
  3  4  2  0  0  0  0
  3  5  1  0  0  0  0
  4  6  1  0  0  0  0
  4  9  1  0  0  0  0
  5 10  1  0  0  0  0
  6 11  1  0  0  0  0
  7 10  1  0  0  0  0
  8 10  2  0  0  0  0
  1 12  1  0  0  0  0
  2 13  1  0  0  0  0
  3 14  1  0  0  0  0
  9 15  1  0  0  0  0
M  CHG  1   7  -1
M  END
> <id>
EN300-724388

> <smiles>
[Na+].OC=1C=C(C=CC1Br)S(=O)[O-]

> <MDLNUMBER>
MFCD31442498

> <IUPAC Name>
sodium 4-bromo-3-hydroxybenzene-1-sulfinate

> <CAS>
2137989-65-0

> <URL>
https://www.enaminestore.com/catalog/EN300-724388

> <Saltdate>
[Na+]

> <ROCS_ShapeQuery>
_x1604L0AP1_x0771L0AP1

> <ROCS_TanimotoCombo>
1.017 

> <ROCS_ShapeTanimoto>
0.464 

> <ROCS_ColorTanimoto>
0.553 

> <ROCS_RefTversky>
0.415 

> <ROCS_RefColorTversky>
0.518 

> <ROCS_RefTverskyCombo>
0.933 

> <ROCS_FitTversky>
1.350 

> <ROCS_FitColorTversky>
1.138 

> <ROCS_FitTverskyCombo>
2.489 

> <ROCS_ColorScore>
-4.877

> <ROCS_Overlap>
692.539

> <ROCS_Rank>
67                  

$$$$
untitled-dbase-2267_0
  -OEChem-06052310023D

 19 19  0     0  0  0  0  0  0999 V2000
   -4.3455   12.1469  -31.2206 C   0  0  0  0  0  0  0  0  0  0  0  0
   -5.0765   11.1242  -31.8250 C   0  0  0  0  0  0  0  0  0  0  0  0
   -4.5851   12.4818  -29.8878 C   0  0  0  0  0  0  0  0  0  0  0  0
   -5.5559   11.7941  -29.1596 C   0  0  0  0  0  0  0  0  0  0  0  0
   -6.2870   10.7714  -29.7641 C   0  0  0  0  0  0  0  0  0  0  0  0
   -6.0472   10.4365  -31.0968 C   0  0  0  0  0  0  0  0  0  0  0  0
   -3.7869   13.5790  -29.2633 C   0  0  0  0  0  0  0  0  0  0  0  0
   -5.8140   12.1515  -27.7303 C   0  0  0  0  0  0  0  0  0  0  0  0
   -7.2343   10.1070  -29.0400 O   0  0  0  0  0  0  0  0  0  0  0  0
   -7.0203    9.0542  -31.9550 Br  0  0  0  0  0  0  0  0  0  0  0  0
   -3.5900   12.6750  -31.7963 H   0  0  0  0  0  0  0  0  0  0  0  0
   -4.8755   10.8767  -32.8643 H   0  0  0  0  0  0  0  0  0  0  0  0
   -4.2907   14.5422  -29.4036 H   0  0  0  0  0  0  0  0  0  0  0  0
   -3.6519   13.4081  -28.1882 H   0  0  0  0  0  0  0  0  0  0  0  0
   -2.7847   13.6406  -29.7052 H   0  0  0  0  0  0  0  0  0  0  0  0
   -6.5872   12.9249  -27.6682 H   0  0  0  0  0  0  0  0  0  0  0  0
   -6.1452   11.2766  -27.1589 H   0  0  0  0  0  0  0  0  0  0  0  0
   -4.9036   12.5248  -27.2469 H   0  0  0  0  0  0  0  0  0  0  0  0
   -7.6568    9.4288  -29.5884 H   0  0  0  0  0  0  0  0  0  0  0  0
  1  2  1  0  0  0  0
  1  3  2  0  0  0  0
  2  6  2  0  0  0  0
  3  4  1  0  0  0  0
  3  7  1  0  0  0  0
  4  5  2  0  0  0  0
  4  8  1  0  0  0  0
  5  6  1  0  0  0  0
  5  9  1  0  0  0  0
  6 10  1  0  0  0  0
  1 11  1  0  0  0  0
  2 12  1  0  0  0  0
  7 13  1  0  0  0  0
  7 14  1  0  0  0  0
  7 15  1  0  0  0  0
  8 16  1  0  0  0  0
  8 17  1  0  0  0  0
  8 18  1  0  0  0  0
  9 19  1  0  0  0  0
M  END
> <id>
EN300-3218350

> <smiles>
CC=1C=CC(Br)=C(O)C1C

> <MDLNUMBER>
MFCD22414708

> <IUPAC Name>
6-bromo-2,3-dimethylphenol

> <CAS>
951161-67-4

> <Purity>
95

> <URL>
https://www.enaminestore.com/catalog/EN300-3218350

> <ROCS_ShapeQuery>
_x1604L0AP1_x0771L0AP1

> <ROCS_TanimotoCombo>
1.016 

> <ROCS_ShapeTanimoto>
0.463 

> <ROCS_ColorTanimoto>
0.553 

> <ROCS_RefTversky>
0.408 

> <ROCS_RefColorTversky>
0.518 

> <ROCS_RefTverskyCombo>
0.926 

> <ROCS_FitTversky>
1.409 

> <ROCS_FitColorTversky>
1.139 

> <ROCS_FitTverskyCombo>
2.548 

> <ROCS_ColorScore>
-4.880

> <ROCS_Overlap>
681.181

> <ROCS_Rank>
68                  

$$$$
untitled-dbase-79_648
  -OEChem-06052310023D

 31 31  0     0  0  0  0  0  0999 V2000
   -4.2891   12.5312  -30.7650 C   0  0  0  0  0  0  0  0  0  0  0  0
   -4.8316   11.4866  -31.5133 C   0  0  0  0  0  0  0  0  0  0  0  0
   -4.7271   12.7549  -29.4597 C   0  0  0  0  0  0  0  0  0  0  0  0
   -5.8122   10.6657  -30.9563 C   0  0  0  0  0  0  0  0  0  0  0  0
   -6.2502   10.8894  -29.6510 C   0  0  0  0  0  0  0  0  0  0  0  0
   -5.7077   11.9340  -28.9027 C   0  0  0  0  0  0  0  0  0  0  0  0
   -7.3668    9.2974  -35.3530 C   0  0  0  0  0  0  0  0  0  0  0  0
   -8.1475    8.1848  -33.2496 C   0  0  0  0  0  0  0  0  0  0  0  0
   -6.3835    9.5478  -31.7798 C   0  0  0  0  0  0  0  0  0  0  0  0
   -5.8418    7.6940  -34.1772 C   0  0  0  0  0  0  0  0  0  0  0  0
   -6.9297    8.7646  -33.9818 C   0  0  0  0  0  0  0  0  0  0  0  0
   -6.3865    9.8648  -33.2026 N   0  0  0  0  0  0  0  0  0  0  0  0
   -7.2115   10.0787  -29.1206 O   0  0  0  0  0  0  0  0  0  0  0  0
   -6.4027    6.4400  -34.5490 O   0  0  0  0  0  0  0  0  0  0  0  0
   -6.2754   12.2700  -27.1254 Br  0  0  0  0  0  0  0  0  0  0  0  0
   -3.5252   13.1702  -31.1984 H   0  0  0  0  0  0  0  0  0  0  0  0
   -4.4829   11.3179  -32.5286 H   0  0  0  0  0  0  0  0  0  0  0  0
   -4.2922   13.5736  -28.8918 H   0  0  0  0  0  0  0  0  0  0  0  0
   -6.5197    9.7199  -35.9048 H   0  0  0  0  0  0  0  0  0  0  0  0
   -7.8051    8.5009  -35.9657 H   0  0  0  0  0  0  0  0  0  0  0  0
   -8.1262   10.0813  -35.2497 H   0  0  0  0  0  0  0  0  0  0  0  0
   -7.8771    7.7924  -32.2628 H   0  0  0  0  0  0  0  0  0  0  0  0
   -8.6046    7.3710  -33.8232 H   0  0  0  0  0  0  0  0  0  0  0  0
   -8.9120    8.9539  -33.0881 H   0  0  0  0  0  0  0  0  0  0  0  0
   -5.8027    8.6295  -31.6401 H   0  0  0  0  0  0  0  0  0  0  0  0
   -7.4147    9.3286  -31.4834 H   0  0  0  0  0  0  0  0  0  0  0  0
   -5.1460    7.9872  -34.9708 H   0  0  0  0  0  0  0  0  0  0  0  0
   -5.2591    7.5441  -33.2611 H   0  0  0  0  0  0  0  0  0  0  0  0
   -6.9519   10.7005  -33.3568 H   0  0  0  0  0  0  0  0  0  0  0  0
   -7.4136   10.3521  -28.2130 H   0  0  0  0  0  0  0  0  0  0  0  0
   -6.8777    6.5839  -35.3829 H   0  0  0  0  0  0  0  0  0  0  0  0
  1  2  1  0  0  0  0
  1  3  2  0  0  0  0
  2  4  2  0  0  0  0
  3  6  1  0  0  0  0
  4  5  1  0  0  0  0
  4  9  1  0  0  0  0
  5  6  2  0  0  0  0
  5 13  1  0  0  0  0
  6 15  1  0  0  0  0
  7 11  1  0  0  0  0
  8 11  1  0  0  0  0
  9 12  1  0  0  0  0
 10 11  1  0  0  0  0
 10 14  1  0  0  0  0
 11 12  1  0  0  0  0
  1 16  1  0  0  0  0
  2 17  1  0  0  0  0
  3 18  1  0  0  0  0
  7 19  1  0  0  0  0
  7 20  1  0  0  0  0
  7 21  1  0  0  0  0
  8 22  1  0  0  0  0
  8 23  1  0  0  0  0
  8 24  1  0  0  0  0
  9 25  1  0  0  0  0
  9 26  1  0  0  0  0
 10 27  1  0  0  0  0
 10 28  1  0  0  0  0
 12 29  1  0  0  0  0
 13 30  1  0  0  0  0
 14 31  1  0  0  0  0
M  END
> <id>
EN300-167849

> <smiles>
CC(C)(CO)NCC=1C=CC=C(Br)C1O

> <MDLNUMBER>
MFCD14656585

> <IUPAC Name>
2-bromo-6-{[(1-hydroxy-2-methylpropan-2-yl)amino]methyl}phenol

> <CAS>
1249545-88-7

> <URL>
https://www.enaminestore.com/catalog/EN300-167849

> <ROCS_ShapeQuery>
_x1604L0AP1_x0771L0AP1

> <ROCS_TanimotoCombo>
1.016 

> <ROCS_ShapeTanimoto>
0.571 

> <ROCS_ColorTanimoto>
0.445 

> <ROCS_RefTversky>
0.511 

> <ROCS_RefColorTversky>
0.596 

> <ROCS_RefTverskyCombo>
1.107 

> <ROCS_FitTversky>
1.260 

> <ROCS_FitColorTversky>
0.638 

> <ROCS_FitTverskyCombo>
1.897 

> <ROCS_ColorScore>
-5.761

> <ROCS_Overlap>
858.037

> <ROCS_Rank>
69                  

$$$$
untitled-dbase-1073_0
  -OEChem-06052310023D

 16 16  0     0  0  0  0  0  0999 V2000
   -5.5749   11.7865  -29.1401 C   0  0  0  0  0  0  0  0  0  0  0  0
   -4.3405   12.1821  -31.1788 C   0  0  0  0  0  0  0  0  0  0  0  0
   -4.6002   12.4934  -29.8442 C   0  0  0  0  0  0  0  0  0  0  0  0
   -6.2900   10.7682  -29.7706 C   0  0  0  0  0  0  0  0  0  0  0  0
   -5.0555   11.1638  -31.8094 C   0  0  0  0  0  0  0  0  0  0  0  0
   -6.0302   10.4569  -31.1053 C   0  0  0  0  0  0  0  0  0  0  0  0
   -3.8362   13.5823  -29.1698 C   0  0  0  0  0  0  0  0  0  0  0  0
   -7.2341   10.1012  -29.0472 O   0  0  0  0  0  0  0  0  0  0  0  0
   -4.6759   10.8374  -33.4654 Cl  0  0  0  0  0  0  0  0  0  0  0  0
   -7.0315    9.0575  -31.9284 Br  0  0  0  0  0  0  0  0  0  0  0  0
   -5.7788   12.0281  -28.0994 H   0  0  0  0  0  0  0  0  0  0  0  0
   -3.5786   12.7389  -31.7197 H   0  0  0  0  0  0  0  0  0  0  0  0
   -2.9310   13.1791  -28.6995 H   0  0  0  0  0  0  0  0  0  0  0  0
   -3.5398   14.3620  -29.8833 H   0  0  0  0  0  0  0  0  0  0  0  0
   -4.4411   14.0732  -28.3962 H   0  0  0  0  0  0  0  0  0  0  0  0
   -7.6569    9.4226  -29.5956 H   0  0  0  0  0  0  0  0  0  0  0  0
  1  3  2  0  0  0  0
  1  4  1  0  0  0  0
  2  3  1  0  0  0  0
  2  5  2  0  0  0  0
  3  7  1  0  0  0  0
  4  6  2  0  0  0  0
  4  8  1  0  0  0  0
  5  6  1  0  0  0  0
  5  9  1  0  0  0  0
  6 10  1  0  0  0  0
  1 11  1  0  0  0  0
  2 12  1  0  0  0  0
  7 13  1  0  0  0  0
  7 14  1  0  0  0  0
  7 15  1  0  0  0  0
  8 16  1  0  0  0  0
M  END
> <id>
EN300-6478405

> <smiles>
CC=1C=C(O)C(Br)=C(Cl)C1

> <MDLNUMBER>
MFCD31667454

> <IUPAC Name>
2-bromo-3-chloro-5-methylphenol

> <CAS>
1780800-51-2

> <Purity>
95

> <URL>
https://www.enaminestore.com/catalog/EN300-6478405

> <ROCS_ShapeQuery>
_x1604L0AP1_x0771L0AP1

> <ROCS_TanimotoCombo>
1.016 

> <ROCS_ShapeTanimoto>
0.462 

> <ROCS_ColorTanimoto>
0.554 

> <ROCS_RefTversky>
0.406 

> <ROCS_RefColorTversky>
0.519 

> <ROCS_RefTverskyCombo>
0.925 

> <ROCS_FitTversky>
1.426 

> <ROCS_FitColorTversky>
1.140 

> <ROCS_FitTverskyCombo>
2.566 

> <ROCS_ColorScore>
-4.885

> <ROCS_Overlap>
677.363

> <ROCS_Rank>
70                  

$$$$
untitled-dbase-937_9
  -OEChem-06052310023D

 23 23  0     0  0  0  0  0  0999 V2000
   -4.6088   12.4928  -29.8714 C   0  0  0  0  0  0  0  0  0  0  0  0
   -4.3671   12.1755  -31.2079 C   0  0  0  0  0  0  0  0  0  0  0  0
   -5.5732   11.7883  -29.1507 C   0  0  0  0  0  0  0  0  0  0  0  0
   -5.0897   11.1537  -31.8239 C   0  0  0  0  0  0  0  0  0  0  0  0
   -6.2959   10.7665  -29.7666 C   0  0  0  0  0  0  0  0  0  0  0  0
   -6.0542   10.4492  -31.1032 C   0  0  0  0  0  0  0  0  0  0  0  0
   -4.7932   10.8528  -33.2579 C   0  0  0  0  0  0  0  0  0  0  0  0
   -5.8138   11.4367  -34.2519 C   0  0  0  0  0  0  0  0  0  0  0  0
   -5.4829   11.0860  -35.7023 C   0  0  0  0  0  0  0  0  0  0  0  0
   -7.2308   10.1005  -29.0309 O   0  0  0  0  0  0  0  0  0  0  0  0
   -5.4579    9.2843  -35.9348 S   0  0  0  0  0  0  0  0  0  0  0  0
   -7.0460    9.0531  -31.9327 Br  0  0  0  0  0  0  0  0  0  0  0  0
   -4.0465   13.2887  -29.3919 H   0  0  0  0  0  0  0  0  0  0  0  0
   -3.6134   12.7311  -31.7601 H   0  0  0  0  0  0  0  0  0  0  0  0
   -5.7563   12.0418  -28.1099 H   0  0  0  0  0  0  0  0  0  0  0  0
   -4.7132    9.7659  -33.4215 H   0  0  0  0  0  0  0  0  0  0  0  0
   -3.7970   11.2534  -33.5056 H   0  0  0  0  0  0  0  0  0  0  0  0
   -5.8193   12.5279  -34.1320 H   0  0  0  0  0  0  0  0  0  0  0  0
   -6.8211   11.0826  -33.9985 H   0  0  0  0  0  0  0  0  0  0  0  0
   -4.5001   11.4733  -35.9861 H   0  0  0  0  0  0  0  0  0  0  0  0
   -6.2273   11.5120  -36.3825 H   0  0  0  0  0  0  0  0  0  0  0  0
   -7.6589    9.4195  -29.5725 H   0  0  0  0  0  0  0  0  0  0  0  0
   -6.7304    9.0779  -35.5702 H   0  0  0  0  0  0  0  0  0  0  0  0
  1  2  2  0  0  0  0
  1  3  1  0  0  0  0
  2  4  1  0  0  0  0
  3  5  2  0  0  0  0
  4  6  2  0  0  0  0
  4  7  1  0  0  0  0
  5  6  1  0  0  0  0
  5 10  1  0  0  0  0
  6 12  1  0  0  0  0
  7  8  1  0  0  0  0
  8  9  1  0  0  0  0
  9 11  1  0  0  0  0
  1 13  1  0  0  0  0
  2 14  1  0  0  0  0
  3 15  1  0  0  0  0
  7 16  1  0  0  0  0
  7 17  1  0  0  0  0
  8 18  1  0  0  0  0
  8 19  1  0  0  0  0
  9 20  1  0  0  0  0
  9 21  1  0  0  0  0
 10 22  1  0  0  0  0
 11 23  1  0  0  0  0
M  END
> <id>
EN300-1904623

> <smiles>
OC=1C=CC=C(CCCS)C1Br

> <IUPAC Name>
2-bromo-3-(3-sulfanylpropyl)phenol

> <CAS>
2228489-31-2

> <URL>
https://www.enaminestore.com/catalog/EN300-1904623

> <ROCS_ShapeQuery>
_x1604L0AP1_x0771L0AP1

> <ROCS_TanimotoCombo>
1.016 

> <ROCS_ShapeTanimoto>
0.462 

> <ROCS_ColorTanimoto>
0.553 

> <ROCS_RefTversky>
0.419 

> <ROCS_RefColorTversky>
0.518 

> <ROCS_RefTverskyCombo>
0.937 

> <ROCS_FitTversky>
1.288 

> <ROCS_FitColorTversky>
1.139 

> <ROCS_FitTverskyCombo>
2.427 

> <ROCS_ColorScore>
-4.881

> <ROCS_Overlap>
700.682

> <ROCS_Rank>
71                  

$$$$
untitled-dbase-230_0
  -OEChem-06052310023D

 19 19  0     0  0  0  0  0  0999 V2000
   -4.5770   12.4721  -29.8630 C   0  0  0  0  0  0  0  0  0  0  0  0
   -5.0613   11.1243  -31.8087 C   0  0  0  0  0  0  0  0  0  0  0  0
   -4.3299   12.1414  -31.1953 C   0  0  0  0  0  0  0  0  0  0  0  0
   -5.5554   11.7856  -29.1439 C   0  0  0  0  0  0  0  0  0  0  0  0
   -6.2868   10.7685  -29.7572 C   0  0  0  0  0  0  0  0  0  0  0  0
   -6.0398   10.4378  -31.0896 C   0  0  0  0  0  0  0  0  0  0  0  0
   -3.2825   12.8742  -31.9636 C   0  0  0  0  0  0  0  0  0  0  0  0
   -5.8033   12.1549  -27.7182 C   0  0  0  0  0  0  0  0  0  0  0  0
   -7.2395   10.1047  -29.0399 O   0  0  0  0  0  0  0  0  0  0  0  0
   -7.0124    9.0616  -31.9583 Br  0  0  0  0  0  0  0  0  0  0  0  0
   -4.0053   13.2641  -29.3849 H   0  0  0  0  0  0  0  0  0  0  0  0
   -4.8627   10.8735  -32.8484 H   0  0  0  0  0  0  0  0  0  0  0  0
   -2.3120   12.3737  -31.8594 H   0  0  0  0  0  0  0  0  0  0  0  0
   -3.5343   12.9262  -33.0308 H   0  0  0  0  0  0  0  0  0  0  0  0
   -3.1802   13.9088  -31.6108 H   0  0  0  0  0  0  0  0  0  0  0  0
   -6.5695   12.9363  -27.6559 H   0  0  0  0  0  0  0  0  0  0  0  0
   -6.1403   11.2877  -27.1369 H   0  0  0  0  0  0  0  0  0  0  0  0
   -4.8878   12.5239  -27.2394 H   0  0  0  0  0  0  0  0  0  0  0  0
   -7.6623    9.4302  -29.5928 H   0  0  0  0  0  0  0  0  0  0  0  0
  1  3  2  0  0  0  0
  1  4  1  0  0  0  0
  2  3  1  0  0  0  0
  2  6  2  0  0  0  0
  3  7  1  0  0  0  0
  4  5  2  0  0  0  0
  4  8  1  0  0  0  0
  5  6  1  0  0  0  0
  5  9  1  0  0  0  0
  6 10  1  0  0  0  0
  1 11  1  0  0  0  0
  2 12  1  0  0  0  0
  7 13  1  0  0  0  0
  7 14  1  0  0  0  0
  7 15  1  0  0  0  0
  8 16  1  0  0  0  0
  8 17  1  0  0  0  0
  8 18  1  0  0  0  0
  9 19  1  0  0  0  0
M  END
> <id>
EN300-192641

> <smiles>
CC=1C=C(C)C(O)=C(Br)C1

> <MDLNUMBER>
MFCD08443978

> <IUPAC Name>
2-bromo-4,6-dimethylphenol

> <CAS>
15191-36-3

> <Purity>
95

> <URL>
https://www.enaminestore.com/catalog/EN300-192641

> <MP>
6-7

> <ROCS_ShapeQuery>
_x1604L0AP1_x0771L0AP1

> <ROCS_TanimotoCombo>
1.015 

> <ROCS_ShapeTanimoto>
0.462 

> <ROCS_ColorTanimoto>
0.553 

> <ROCS_RefTversky>
0.407 

> <ROCS_RefColorTversky>
0.518 

> <ROCS_RefTverskyCombo>
0.926 

> <ROCS_FitTversky>
1.409 

> <ROCS_FitColorTversky>
1.139 

> <ROCS_FitTverskyCombo>
2.548 

> <ROCS_ColorScore>
-4.881

> <ROCS_Overlap>
679.709

> <ROCS_Rank>
72                  

$$$$
untitled-dbase-1344_19
  -OEChem-06052310023D

 17 17  0     0  0  0  0  0  0999 V2000
   -4.6021   12.4904  -29.8510 C   0  0  0  0  0  0  0  0  0  0  0  0
   -4.3496   12.1749  -31.1860 C   0  0  0  0  0  0  0  0  0  0  0  0
   -5.5739   11.7865  -29.1398 C   0  0  0  0  0  0  0  0  0  0  0  0
   -5.0689   11.1556  -31.8099 C   0  0  0  0  0  0  0  0  0  0  0  0
   -6.2932   10.7672  -29.7636 C   0  0  0  0  0  0  0  0  0  0  0  0
   -6.0408   10.4517  -31.0987 C   0  0  0  0  0  0  0  0  0  0  0  0
   -4.7608   10.8566  -33.2419 C   0  0  0  0  0  0  0  0  0  0  0  0
   -7.2356   10.1016  -29.0370 O   0  0  0  0  0  0  0  0  0  0  0  0
   -6.2157   11.0359  -34.3162 S   0  0  0  0  0  0  0  0  0  0  0  0
   -7.0282    9.0589  -31.9390 Br  0  0  0  0  0  0  0  0  0  0  0  0
   -4.0423   13.2844  -29.3654 H   0  0  0  0  0  0  0  0  0  0  0  0
   -3.5902   12.7300  -31.7308 H   0  0  0  0  0  0  0  0  0  0  0  0
   -5.7653   12.0386  -28.1001 H   0  0  0  0  0  0  0  0  0  0  0  0
   -3.9686   11.5201  -33.6153 H   0  0  0  0  0  0  0  0  0  0  0  0
   -4.3764    9.8328  -33.3478 H   0  0  0  0  0  0  0  0  0  0  0  0
   -7.6604    9.4225  -29.5834 H   0  0  0  0  0  0  0  0  0  0  0  0
   -6.4307   12.3302  -34.0455 H   0  0  0  0  0  0  0  0  0  0  0  0
  1  2  2  0  0  0  0
  1  3  1  0  0  0  0
  2  4  1  0  0  0  0
  3  5  2  0  0  0  0
  4  6  2  0  0  0  0
  4  7  1  0  0  0  0
  5  6  1  0  0  0  0
  5  8  1  0  0  0  0
  6 10  1  0  0  0  0
  7  9  1  0  0  0  0
  1 11  1  0  0  0  0
  2 12  1  0  0  0  0
  3 13  1  0  0  0  0
  7 14  1  0  0  0  0
  7 15  1  0  0  0  0
  8 16  1  0  0  0  0
  9 17  1  0  0  0  0
M  END
> <id>
EN300-1288200

> <smiles>
OC=1C=CC=C(CS)C1Br

> <MDLNUMBER>
MFCD33497260

> <IUPAC Name>
2-bromo-3-(sulfanylmethyl)phenol

> <CAS>
2172151-36-7

> <URL>
https://www.enaminestore.com/catalog/EN300-1288200

> <ROCS_ShapeQuery>
_x1604L0AP1_x0771L0AP1

> <ROCS_TanimotoCombo>
1.015 

> <ROCS_ShapeTanimoto>
0.461 

> <ROCS_ColorTanimoto>
0.554 

> <ROCS_RefTversky>
0.405 

> <ROCS_RefColorTversky>
0.519 

> <ROCS_RefTverskyCombo>
0.924 

> <ROCS_FitTversky>
1.431 

> <ROCS_FitColorTversky>
1.140 

> <ROCS_FitTverskyCombo>
2.570 

> <ROCS_ColorScore>
-4.883

> <ROCS_Overlap>
675.764

> <ROCS_Rank>
73                  

$$$$
untitled-dbase-43_0
  -OEChem-06052310023D

 16 16  0     0  0  0  0  0  0999 V2000
   -4.5795   12.4756  -29.8624 C   0  0  0  0  0  0  0  0  0  0  0  0
   -5.0633   11.1276  -31.8081 C   0  0  0  0  0  0  0  0  0  0  0  0
   -5.5564   11.7877  -29.1428 C   0  0  0  0  0  0  0  0  0  0  0  0
   -6.2868   10.7696  -29.7557 C   0  0  0  0  0  0  0  0  0  0  0  0
   -4.3330   12.1456  -31.1951 C   0  0  0  0  0  0  0  0  0  0  0  0
   -6.0403   10.4395  -31.0884 C   0  0  0  0  0  0  0  0  0  0  0  0
   -5.8043   12.1570  -27.7172 C   0  0  0  0  0  0  0  0  0  0  0  0
   -7.2393   10.1056  -29.0386 O   0  0  0  0  0  0  0  0  0  0  0  0
   -3.3948   12.8064  -31.8862 F   0  0  0  0  0  0  0  0  0  0  0  0
   -7.0112    9.0625  -31.9573 Br  0  0  0  0  0  0  0  0  0  0  0  0
   -4.0049   13.2704  -29.3942 H   0  0  0  0  0  0  0  0  0  0  0  0
   -4.8571   10.8845  -32.8473 H   0  0  0  0  0  0  0  0  0  0  0  0
   -6.5718   12.9372  -27.6547 H   0  0  0  0  0  0  0  0  0  0  0  0
   -6.1396   11.2895  -27.1354 H   0  0  0  0  0  0  0  0  0  0  0  0
   -4.8892   12.5277  -27.2388 H   0  0  0  0  0  0  0  0  0  0  0  0
   -7.6613    9.4304  -29.5912 H   0  0  0  0  0  0  0  0  0  0  0  0
  1  3  2  0  0  0  0
  1  5  1  0  0  0  0
  2  5  2  0  0  0  0
  2  6  1  0  0  0  0
  3  4  1  0  0  0  0
  3  7  1  0  0  0  0
  4  6  2  0  0  0  0
  4  8  1  0  0  0  0
  5  9  1  0  0  0  0
  6 10  1  0  0  0  0
  1 11  1  0  0  0  0
  2 12  1  0  0  0  0
  7 13  1  0  0  0  0
  7 14  1  0  0  0  0
  7 15  1  0  0  0  0
  8 16  1  0  0  0  0
M  END
> <id>
EN300-93412

> <smiles>
CC=1C=C(F)C=C(Br)C1O

> <MDLNUMBER>
MFCD22414711

> <IUPAC Name>
2-bromo-4-fluoro-6-methylphenol

> <CAS>
1572185-50-2

> <Purity>
95

> <URL>
https://www.enaminestore.com/catalog/EN300-93412

> <ROCS_ShapeQuery>
_x1604L0AP1_x0771L0AP1

> <ROCS_TanimotoCombo>
1.015 

> <ROCS_ShapeTanimoto>
0.461 

> <ROCS_ColorTanimoto>
0.553 

> <ROCS_RefTversky>
0.408 

> <ROCS_RefColorTversky>
0.518 

> <ROCS_RefTverskyCombo>
0.926 

> <ROCS_FitTversky>
1.398 

> <ROCS_FitColorTversky>
1.139 

> <ROCS_FitTverskyCombo>
2.537 

> <ROCS_ColorScore>
-4.881

> <ROCS_Overlap>
680.858

> <ROCS_Rank>
74                  

$$$$
untitled-dbase-68_0
  -OEChem-06052310023D

 16 16  0     0  0  0  0  0  0999 V2000
   -4.5791   12.4740  -29.8590 C   0  0  0  0  0  0  0  0  0  0  0  0
   -5.0609   11.1276  -31.8064 C   0  0  0  0  0  0  0  0  0  0  0  0
   -5.5569   11.7855  -29.1411 C   0  0  0  0  0  0  0  0  0  0  0  0
   -6.2867   10.7680  -29.7557 C   0  0  0  0  0  0  0  0  0  0  0  0
   -4.3311   12.1451  -31.1917 C   0  0  0  0  0  0  0  0  0  0  0  0
   -6.0387   10.4390  -31.0884 C   0  0  0  0  0  0  0  0  0  0  0  0
   -5.8063   12.1536  -27.7153 C   0  0  0  0  0  0  0  0  0  0  0  0
   -7.2401   10.1037  -29.0400 O   0  0  0  0  0  0  0  0  0  0  0  0
   -3.1246   12.9951  -32.0773 Cl  0  0  0  0  0  0  0  0  0  0  0  0
   -7.0098    9.0626  -31.9585 Br  0  0  0  0  0  0  0  0  0  0  0  0
   -4.0117   13.2666  -29.3758 H   0  0  0  0  0  0  0  0  0  0  0  0
   -4.8648   10.8745  -32.8460 H   0  0  0  0  0  0  0  0  0  0  0  0
   -6.5738   12.9338  -27.6532 H   0  0  0  0  0  0  0  0  0  0  0  0
   -6.1423   11.2856  -27.1348 H   0  0  0  0  0  0  0  0  0  0  0  0
   -4.8917   12.5238  -27.2358 H   0  0  0  0  0  0  0  0  0  0  0  0
   -7.6617    9.4290  -29.5935 H   0  0  0  0  0  0  0  0  0  0  0  0
  1  3  2  0  0  0  0
  1  5  1  0  0  0  0
  2  5  2  0  0  0  0
  2  6  1  0  0  0  0
  3  4  1  0  0  0  0
  3  7  1  0  0  0  0
  4  6  2  0  0  0  0
  4  8  1  0  0  0  0
  5  9  1  0  0  0  0
  6 10  1  0  0  0  0
  1 11  1  0  0  0  0
  2 12  1  0  0  0  0
  7 13  1  0  0  0  0
  7 14  1  0  0  0  0
  7 15  1  0  0  0  0
  8 16  1  0  0  0  0
M  END
> <id>
EN300-245419

> <smiles>
CC=1C=C(Cl)C=C(Br)C1O

> <MDLNUMBER>
MFCD00029750

> <IUPAC Name>
2-bromo-4-chloro-6-methylphenol

> <CAS>
54852-68-5

> <Purity>
95

> <URL>
https://www.enaminestore.com/catalog/EN300-245419

> <MP>
51-52

> <ROCS_ShapeQuery>
_x1604L0AP1_x0771L0AP1

> <ROCS_TanimotoCombo>
1.015 

> <ROCS_ShapeTanimoto>
0.461 

> <ROCS_ColorTanimoto>
0.553 

> <ROCS_RefTversky>
0.406 

> <ROCS_RefColorTversky>
0.518 

> <ROCS_RefTverskyCombo>
0.924 

> <ROCS_FitTversky>
1.422 

> <ROCS_FitColorTversky>
1.139 

> <ROCS_FitTverskyCombo>
2.561 

> <ROCS_ColorScore>
-4.881

> <ROCS_Overlap>
677.211

> <ROCS_Rank>
75                  

$$$$
untitled-dbase-981_1300
  -OEChem-06052310023D

 29 29  0     1  0  0  0  0  0999 V2000
   -4.5831   12.4704  -29.8496 C   0  0  0  0  0  0  0  0  0  0  0  0
   -5.0660   11.1342  -31.8036 C   0  0  0  0  0  0  0  0  0  0  0  0
   -4.3361   12.1487  -31.1841 C   0  0  0  0  0  0  0  0  0  0  0  0
   -5.5600   11.7776  -29.1344 C   0  0  0  0  0  0  0  0  0  0  0  0
   -6.2899   10.7631  -29.7539 C   0  0  0  0  0  0  0  0  0  0  0  0
   -6.0429   10.4414  -31.0885 C   0  0  0  0  0  0  0  0  0  0  0  0
   -5.7003   14.4747  -27.5115 C   0  0  0  0  0  0  0  0  0  0  0  0
   -2.1515   11.9921  -32.4299 C   0  0  0  0  0  0  0  0  0  0  0  0
   -4.9998   13.1533  -27.2772 C   0  0  0  0  0  0  0  0  0  0  0  0
   -3.2923   12.8903  -31.9486 C   0  0  2  0  0  0  0  0  0  0  0  0
   -3.6639   15.0256  -31.1247 N   0  0  0  0  0  0  0  0  0  0  0  0
   -7.2420   10.0976  -29.0380 O   0  0  0  0  0  0  0  0  0  0  0  0
   -5.7902   12.1037  -27.8318 O   0  0  0  0  0  0  0  0  0  0  0  0
   -2.7354   13.9104  -31.1116 O   0  0  0  0  0  0  0  0  0  0  0  0
   -7.0145    9.0692  -31.9644 Br  0  0  0  0  0  0  0  0  0  0  0  0
   -4.0157   13.2611  -29.3645 H   0  0  0  0  0  0  0  0  0  0  0  0
   -4.8664   10.8909  -32.8449 H   0  0  0  0  0  0  0  0  0  0  0  0
   -5.8300   14.6633  -28.5808 H   0  0  0  0  0  0  0  0  0  0  0  0
   -6.6834   14.4812  -27.0295 H   0  0  0  0  0  0  0  0  0  0  0  0
   -5.1262   15.2985  -27.0746 H   0  0  0  0  0  0  0  0  0  0  0  0
   -1.6939   11.4539  -31.5938 H   0  0  0  0  0  0  0  0  0  0  0  0
   -1.3720   12.5736  -32.9349 H   0  0  0  0  0  0  0  0  0  0  0  0
   -2.5131   11.2599  -33.1602 H   0  0  0  0  0  0  0  0  0  0  0  0
   -4.8731   12.9707  -26.2059 H   0  0  0  0  0  0  0  0  0  0  0  0
   -4.0180   13.1482  -27.7601 H   0  0  0  0  0  0  0  0  0  0  0  0
   -3.7133   13.4047  -32.8292 H   0  0  0  0  0  0  0  0  0  0  0  0
   -3.0401   15.7773  -31.4145 H   0  0  0  0  0  0  0  0  0  0  0  0
   -3.8181   15.1451  -30.1247 H   0  0  0  0  0  0  0  0  0  0  0  0
   -7.2829   10.4457  -28.1343 H   0  0  0  0  0  0  0  0  0  0  0  0
  1  3  1  0  0  0  0
  1  4  2  0  0  0  0
  2  3  2  0  0  0  0
  2  6  1  0  0  0  0
  3 10  1  0  0  0  0
  4  5  1  0  0  0  0
  4 13  1  0  0  0  0
  5  6  2  0  0  0  0
  5 12  1  0  0  0  0
  6 15  1  0  0  0  0
  7  9  1  0  0  0  0
  8 10  1  0  0  0  0
  9 13  1  0  0  0  0
 10 14  1  0  0  0  0
 11 14  1  0  0  0  0
  1 16  1  0  0  0  0
  2 17  1  0  0  0  0
  7 18  1  0  0  0  0
  7 19  1  0  0  0  0
  7 20  1  0  0  0  0
  8 21  1  0  0  0  0
  8 22  1  0  0  0  0
  8 23  1  0  0  0  0
  9 24  1  0  0  0  0
  9 25  1  0  0  0  0
 10 26  1  0  0  0  0
 11 27  1  0  0  0  0
 11 28  1  0  0  0  0
 12 29  1  0  0  0  0
M  END
> <id>
EN300-1920285

> <smiles>
CCOC=1C=C(C=C(Br)C1O)C(C)ON

> <IUPAC Name>
4-[1-(aminooxy)ethyl]-2-bromo-6-ethoxyphenol

> <CAS>
2229624-89-7

> <URL>
https://www.enaminestore.com/catalog/EN300-1920285

> <ROCS_ShapeQuery>
_x1604L0AP1_x0771L0AP1

> <ROCS_TanimotoCombo>
1.014 

> <ROCS_ShapeTanimoto>
0.517 

> <ROCS_ColorTanimoto>
0.497 

> <ROCS_RefTversky>
0.480 

> <ROCS_RefColorTversky>
0.516 

> <ROCS_RefTverskyCombo>
0.995 

> <ROCS_FitTversky>
1.176 

> <ROCS_FitColorTversky>
0.932 

> <ROCS_FitTverskyCombo>
2.108 

> <ROCS_ColorScore>
-4.881

> <ROCS_Overlap>
805.565

> <ROCS_Rank>
76                  

$$$$
untitled-dbase-1425_28
  -OEChem-06052310023D

 18 18  0     0  0  0  0  0  0999 V2000
   -4.5793   12.4594  -29.8271 C   0  0  0  0  0  0  0  0  0  0  0  0
   -5.5646   11.7684  -29.1219 C   0  0  0  0  0  0  0  0  0  0  0  0
   -5.0508   11.1300  -31.7886 C   0  0  0  0  0  0  0  0  0  0  0  0
   -4.3225   12.1403  -31.1605 C   0  0  0  0  0  0  0  0  0  0  0  0
   -6.2929   10.7581  -29.7500 C   0  0  0  0  0  0  0  0  0  0  0  0
   -6.0360   10.4389  -31.0833 C   0  0  0  0  0  0  0  0  0  0  0  0
   -2.5652   13.9448  -31.1015 C   0  0  0  0  0  0  0  0  0  0  0  0
   -3.2688   12.8796  -31.9134 C   0  0  0  0  0  0  0  0  0  0  0  0
   -3.1131   14.9352  -30.6291 O   0  0  0  0  0  0  0  0  0  0  0  0
   -7.2477   10.1007  -29.0327 O   0  0  0  0  0  0  0  0  0  0  0  0
   -7.0051    9.0710  -31.9680 Br  0  0  0  0  0  0  0  0  0  0  0  0
   -4.0173   13.2449  -29.3286 H   0  0  0  0  0  0  0  0  0  0  0  0
   -5.7591   12.0226  -28.0833 H   0  0  0  0  0  0  0  0  0  0  0  0
   -4.8440   10.8882  -32.8290 H   0  0  0  0  0  0  0  0  0  0  0  0
   -1.4845   13.7814  -30.9467 H   0  0  0  0  0  0  0  0  0  0  0  0
   -3.6955   13.3715  -32.8005 H   0  0  0  0  0  0  0  0  0  0  0  0
   -2.4979   12.1884  -32.2861 H   0  0  0  0  0  0  0  0  0  0  0  0
   -7.6759    9.4277  -29.5842 H   0  0  0  0  0  0  0  0  0  0  0  0
  1  2  1  0  0  0  0
  1  4  2  0  0  0  0
  2  5  2  0  0  0  0
  3  4  1  0  0  0  0
  3  6  2  0  0  0  0
  4  8  1  0  0  0  0
  5  6  1  0  0  0  0
  5 10  1  0  0  0  0
  6 11  1  0  0  0  0
  7  8  1  0  0  0  0
  7  9  2  0  0  0  0
  1 12  1  0  0  0  0
  2 13  1  0  0  0  0
  3 14  1  0  0  0  0
  7 15  1  0  0  0  0
  8 16  1  0  0  0  0
  8 17  1  0  0  0  0
 10 18  1  0  0  0  0
M  END
> <id>
EN300-1907260

> <smiles>
OC=1C=CC(CC=O)=CC1Br

> <MDLNUMBER>
MFCD33418260

> <IUPAC Name>
2-(3-bromo-4-hydroxyphenyl)acetaldehyde

> <CAS>
1435263-42-5

> <URL>
https://www.enaminestore.com/catalog/EN300-1907260

> <ROCS_ShapeQuery>
_x1604L0AP1_x0771L0AP1

> <ROCS_TanimotoCombo>
1.013 

> <ROCS_ShapeTanimoto>
0.517 

> <ROCS_ColorTanimoto>
0.497 

> <ROCS_RefTversky>
0.447 

> <ROCS_RefColorTversky>
0.515 

> <ROCS_RefTverskyCombo>
0.963 

> <ROCS_FitTversky>
1.431 

> <ROCS_FitColorTversky>
0.932 

> <ROCS_FitTverskyCombo>
2.363 

> <ROCS_ColorScore>
-4.878

> <ROCS_Overlap>
747.436

> <ROCS_Rank>
77                  

$$$$
untitled-dbase-565_64
  -OEChem-06052310023D

 18 18  0     0  0  0  0  0  0999 V2000
   -4.6094   12.4968  -29.8391 C   0  0  0  0  0  0  0  0  0  0  0  0
   -5.5797   11.7903  -29.1285 C   0  0  0  0  0  0  0  0  0  0  0  0
   -5.0755   11.1645  -31.8000 C   0  0  0  0  0  0  0  0  0  0  0  0
   -4.3573   12.1839  -31.1749 C   0  0  0  0  0  0  0  0  0  0  0  0
   -6.2978   10.7709  -29.7535 C   0  0  0  0  0  0  0  0  0  0  0  0
   -6.0458   10.4580  -31.0893 C   0  0  0  0  0  0  0  0  0  0  0  0
   -3.3195   12.9397  -31.9336 C   0  0  0  0  0  0  0  0  0  0  0  0
   -2.5976    9.7700  -32.5023 N   0  5  0  0  0  0  0  0  0  0  0  0
   -2.6565   12.1102  -32.9476 N   0  0  0  0  0  0  0  0  0  0  0  0
   -2.6286   10.8911  -32.7103 N   0  3  0  0  0  0  0  0  0  0  0  0
   -7.2381   10.0985  -29.0310 O   0  0  0  0  0  0  0  0  0  0  0  0
   -7.0013    9.0782  -31.9700 Br  0  0  0  0  0  0  0  0  0  0  0  0
   -4.0551   13.2892  -29.3430 H   0  0  0  0  0  0  0  0  0  0  0  0
   -5.7706   12.0397  -28.0880 H   0  0  0  0  0  0  0  0  0  0  0  0
   -4.8725   10.9278  -32.8423 H   0  0  0  0  0  0  0  0  0  0  0  0
   -3.7613   13.8194  -32.4256 H   0  0  0  0  0  0  0  0  0  0  0  0
   -2.5526   13.3355  -31.2515 H   0  0  0  0  0  0  0  0  0  0  0  0
   -7.6605    9.4206  -29.5809 H   0  0  0  0  0  0  0  0  0  0  0  0
  1  2  1  0  0  0  0
  1  4  2  0  0  0  0
  2  5  2  0  0  0  0
  3  4  1  0  0  0  0
  3  6  2  0  0  0  0
  4  7  1  0  0  0  0
  5  6  1  0  0  0  0
  5 11  1  0  0  0  0
  6 12  1  0  0  0  0
  7  9  1  0  0  0  0
  8 10  2  0  0  0  0
  9 10  2  0  0  0  0
  1 13  1  0  0  0  0
  2 14  1  0  0  0  0
  3 15  1  0  0  0  0
  7 16  1  0  0  0  0
  7 17  1  0  0  0  0
 11 18  1  0  0  0  0
M  CHG  2   8  -1  10   1
M  END
> <id>
EN300-1906355

> <smiles>
OC=1C=CC(CN=[N+]=[N-])=CC1Br

> <IUPAC Name>
4-(azidomethyl)-2-bromophenol

> <CAS>
2228468-62-8

> <URL>
https://www.enaminestore.com/catalog/EN300-1906355

> <ROCS_ShapeQuery>
_x1604L0AP1_x0771L0AP1

> <ROCS_TanimotoCombo>
1.011 

> <ROCS_ShapeTanimoto>
0.459 

> <ROCS_ColorTanimoto>
0.553 

> <ROCS_RefTversky>
0.421 

> <ROCS_RefColorTversky>
0.518 

> <ROCS_RefTverskyCombo>
0.939 

> <ROCS_FitTversky>
1.242 

> <ROCS_FitColorTversky>
1.138 

> <ROCS_FitTverskyCombo>
2.380 

> <ROCS_ColorScore>
-4.877

> <ROCS_Overlap>
704.774

> <ROCS_Rank>
78                  

$$$$
untitled-dbase-1208_446
  -OEChem-06052310023D

 25 25  0     0  0  0  0  0  0999 V2000
   -5.0344   11.4096  -31.7116 C   0  0  0  0  0  0  0  0  0  0  0  0
   -4.5440   12.5231  -29.6243 C   0  0  0  0  0  0  0  0  0  0  0  0
   -6.0159   10.6496  -31.0756 C   0  0  0  0  0  0  0  0  0  0  0  0
   -6.2615   10.8263  -29.7140 C   0  0  0  0  0  0  0  0  0  0  0  0
   -4.2984   12.3464  -30.9859 C   0  0  0  0  0  0  0  0  0  0  0  0
   -5.5256   11.7630  -28.9883 C   0  0  0  0  0  0  0  0  0  0  0  0
   -6.3377    8.8934  -34.0104 C   0  0  0  0  0  0  0  0  0  0  0  0
   -6.9867    7.5456  -33.7246 C   0  0  0  0  0  0  0  0  0  0  0  0
   -6.9324   10.0236  -33.1790 C   0  0  0  0  0  0  0  0  0  0  0  0
   -6.4087    6.4810  -34.4983 N   0  0  0  0  0  0  0  0  0  0  0  0
   -7.2258   10.0732  -29.1100 O   0  0  0  0  0  0  0  0  0  0  0  0
   -6.7309    9.7334  -31.8021 O   0  0  0  0  0  0  0  0  0  0  0  0
   -3.0875   13.2843  -31.7714 Cl  0  0  0  0  0  0  0  0  0  0  0  0
   -5.8308   12.0308  -27.1365 Br  0  0  0  0  0  0  0  0  0  0  0  0
   -4.8486   11.2666  -32.7736 H   0  0  0  0  0  0  0  0  0  0  0  0
   -3.9675   13.2544  -29.0619 H   0  0  0  0  0  0  0  0  0  0  0  0
   -5.2621    8.8284  -33.8039 H   0  0  0  0  0  0  0  0  0  0  0  0
   -6.4238    9.1419  -35.0758 H   0  0  0  0  0  0  0  0  0  0  0  0
   -6.8560    7.2812  -32.6707 H   0  0  0  0  0  0  0  0  0  0  0  0
   -8.0596    7.5717  -33.9404 H   0  0  0  0  0  0  0  0  0  0  0  0
   -6.4484   10.9790  -33.4040 H   0  0  0  0  0  0  0  0  0  0  0  0
   -8.0079   10.1168  -33.3605 H   0  0  0  0  0  0  0  0  0  0  0  0
   -5.4384    6.3935  -34.2729 H   0  0  0  0  0  0  0  0  0  0  0  0
   -6.8784    5.6236  -34.2882 H   0  0  0  0  0  0  0  0  0  0  0  0
   -7.6360    9.4775  -29.7554 H   0  0  0  0  0  0  0  0  0  0  0  0
  1  3  2  0  0  0  0
  1  5  1  0  0  0  0
  2  5  2  0  0  0  0
  2  6  1  0  0  0  0
  3  4  1  0  0  0  0
  3 12  1  0  0  0  0
  4  6  2  0  0  0  0
  4 11  1  0  0  0  0
  5 13  1  0  0  0  0
  6 14  1  0  0  0  0
  7  8  1  0  0  0  0
  7  9  1  0  0  0  0
  8 10  1  0  0  0  0
  9 12  1  0  0  0  0
  1 15  1  0  0  0  0
  2 16  1  0  0  0  0
  7 17  1  0  0  0  0
  7 18  1  0  0  0  0
  8 19  1  0  0  0  0
  8 20  1  0  0  0  0
  9 21  1  0  0  0  0
  9 22  1  0  0  0  0
 10 23  1  0  0  0  0
 10 24  1  0  0  0  0
 11 25  1  0  0  0  0
M  END
> <id>
EN300-1922921

> <smiles>
NCCCOC=1C=C(Cl)C=C(Br)C1O

> <IUPAC Name>
2-(3-aminopropoxy)-6-bromo-4-chlorophenol

> <CAS>
2228220-52-6

> <URL>
https://www.enaminestore.com/catalog/EN300-1922921

> <ROCS_ShapeQuery>
_x1604L0AP1_x0771L0AP1

> <ROCS_TanimotoCombo>
1.011 

> <ROCS_ShapeTanimoto>
0.602 

> <ROCS_ColorTanimoto>
0.410 

> <ROCS_RefTversky>
0.517 

> <ROCS_RefColorTversky>
0.507 

> <ROCS_RefTverskyCombo>
1.025 

> <ROCS_FitTversky>
1.372 

> <ROCS_FitColorTversky>
0.680 

> <ROCS_FitTverskyCombo>
2.053 

> <ROCS_ColorScore>
-4.854

> <ROCS_Overlap>
867.324

> <ROCS_Rank>
79                  

$$$$
untitled-dbase-1269_178
  -OEChem-06052310023D

 22 22  0     0  0  0  0  0  0999 V2000
   -4.5984   12.4823  -29.8288 C   0  0  0  0  0  0  0  0  0  0  0  0
   -5.5767   11.7823  -29.1227 C   0  0  0  0  0  0  0  0  0  0  0  0
   -5.0596   11.1488  -31.7900 C   0  0  0  0  0  0  0  0  0  0  0  0
   -4.3399   12.1656  -31.1625 C   0  0  0  0  0  0  0  0  0  0  0  0
   -6.2964   10.7655  -29.7502 C   0  0  0  0  0  0  0  0  0  0  0  0
   -6.0379   10.4488  -31.0839 C   0  0  0  0  0  0  0  0  0  0  0  0
   -3.2936   12.9146  -31.9162 C   0  0  0  0  0  0  0  0  0  0  0  0
   -2.6197   12.0769  -33.0050 C   0  0  0  0  0  0  0  0  0  0  0  0
   -3.8157   12.7960  -34.8568 N   0  0  0  0  0  0  0  0  0  0  0  0
   -7.2445   10.0994  -29.0321 O   0  0  0  0  0  0  0  0  0  0  0  0
   -3.5883   11.6711  -33.9636 O   0  0  0  0  0  0  0  0  0  0  0  0
   -6.9953    9.0723  -31.9678 Br  0  0  0  0  0  0  0  0  0  0  0  0
   -4.0430   13.2728  -29.3308 H   0  0  0  0  0  0  0  0  0  0  0  0
   -5.7726   12.0347  -28.0840 H   0  0  0  0  0  0  0  0  0  0  0  0
   -4.8516   10.9090  -32.8306 H   0  0  0  0  0  0  0  0  0  0  0  0
   -3.7298   13.8165  -32.3736 H   0  0  0  0  0  0  0  0  0  0  0  0
   -2.5192   13.2696  -31.2190 H   0  0  0  0  0  0  0  0  0  0  0  0
   -1.8631   12.6733  -33.5251 H   0  0  0  0  0  0  0  0  0  0  0  0
   -2.1398   11.1851  -32.5886 H   0  0  0  0  0  0  0  0  0  0  0  0
   -4.8270   12.8929  -34.7787 H   0  0  0  0  0  0  0  0  0  0  0  0
   -3.6344   12.3568  -35.7580 H   0  0  0  0  0  0  0  0  0  0  0  0
   -7.6672    9.4227  -29.5834 H   0  0  0  0  0  0  0  0  0  0  0  0
  1  2  1  0  0  0  0
  1  4  2  0  0  0  0
  2  5  2  0  0  0  0
  3  4  1  0  0  0  0
  3  6  2  0  0  0  0
  4  7  1  0  0  0  0
  5  6  1  0  0  0  0
  5 10  1  0  0  0  0
  6 12  1  0  0  0  0
  7  8  1  0  0  0  0
  8 11  1  0  0  0  0
  9 11  1  0  0  0  0
  1 13  1  0  0  0  0
  2 14  1  0  0  0  0
  3 15  1  0  0  0  0
  7 16  1  0  0  0  0
  7 17  1  0  0  0  0
  8 18  1  0  0  0  0
  8 19  1  0  0  0  0
  9 20  1  0  0  0  0
  9 21  1  0  0  0  0
 10 22  1  0  0  0  0
M  END
> <id>
EN300-1906339

> <smiles>
NOCCC=1C=CC(O)=C(Br)C1

> <IUPAC Name>
4-[2-(aminooxy)ethyl]-2-bromophenol

> <CAS>
1891556-17-4

> <URL>
https://www.enaminestore.com/catalog/EN300-1906339

> <ROCS_ShapeQuery>
_x1604L0AP1_x0771L0AP1

> <ROCS_TanimotoCombo>
1.011 

> <ROCS_ShapeTanimoto>
0.458 

> <ROCS_ColorTanimoto>
0.553 

> <ROCS_RefTversky>
0.419 

> <ROCS_RefColorTversky>
0.518 

> <ROCS_RefTverskyCombo>
0.937 

> <ROCS_FitTversky>
1.258 

> <ROCS_FitColorTversky>
1.138 

> <ROCS_FitTverskyCombo>
2.397 

> <ROCS_ColorScore>
-4.878

> <ROCS_Overlap>
700.973

> <ROCS_Rank>
80                  

$$$$
untitled-dbase-47_0
  -OEChem-06052310023D

 16 16  0     0  0  0  0  0  0999 V2000
   -4.5756   12.4772  -29.8625 C   0  0  0  0  0  0  0  0  0  0  0  0
   -5.0637   11.1273  -31.8057 C   0  0  0  0  0  0  0  0  0  0  0  0
   -4.3317   12.1457  -31.1952 C   0  0  0  0  0  0  0  0  0  0  0  0
   -6.2832   10.7718  -29.7506 C   0  0  0  0  0  0  0  0  0  0  0  0
   -5.5513   11.7902  -29.1401 C   0  0  0  0  0  0  0  0  0  0  0  0
   -6.0394   10.4403  -31.0834 C   0  0  0  0  0  0  0  0  0  0  0  0
   -3.2891   12.8809  -31.9677 C   0  0  0  0  0  0  0  0  0  0  0  0
   -7.2396   10.1037  -29.0414 O   0  0  0  0  0  0  0  0  0  0  0  0
   -5.8280   12.2244  -27.4933 Cl  0  0  0  0  0  0  0  0  0  0  0  0
   -7.0141    9.0640  -31.9508 Br  0  0  0  0  0  0  0  0  0  0  0  0
   -4.0016   13.2730  -29.3928 H   0  0  0  0  0  0  0  0  0  0  0  0
   -4.8667   10.8755  -32.8455 H   0  0  0  0  0  0  0  0  0  0  0  0
   -2.3168   12.3835  -31.8660 H   0  0  0  0  0  0  0  0  0  0  0  0
   -3.5444   12.9308  -33.0342 H   0  0  0  0  0  0  0  0  0  0  0  0
   -3.1889   13.9161  -31.6164 H   0  0  0  0  0  0  0  0  0  0  0  0
   -7.2873   10.4519  -28.1383 H   0  0  0  0  0  0  0  0  0  0  0  0
  1  3  2  0  0  0  0
  1  5  1  0  0  0  0
  2  3  1  0  0  0  0
  2  6  2  0  0  0  0
  3  7  1  0  0  0  0
  4  5  2  0  0  0  0
  4  6  1  0  0  0  0
  4  8  1  0  0  0  0
  5  9  1  0  0  0  0
  6 10  1  0  0  0  0
  1 11  1  0  0  0  0
  2 12  1  0  0  0  0
  7 13  1  0  0  0  0
  7 14  1  0  0  0  0
  7 15  1  0  0  0  0
  8 16  1  0  0  0  0
M  END
> <id>
EN300-203031

> <smiles>
CC=1C=C(Cl)C(O)=C(Br)C1

> <MDLNUMBER>
MFCD22414716

> <IUPAC Name>
2-bromo-6-chloro-4-methylphenol

> <CAS>
57018-10-7

> <Purity>
95

> <URL>
https://www.enaminestore.com/catalog/EN300-203031

> <ROCS_ShapeQuery>
_x1604L0AP1_x0771L0AP1

> <ROCS_TanimotoCombo>
1.011 

> <ROCS_ShapeTanimoto>
0.457 

> <ROCS_ColorTanimoto>
0.554 

> <ROCS_RefTversky>
0.403 

> <ROCS_RefColorTversky>
0.519 

> <ROCS_RefTverskyCombo>
0.922 

> <ROCS_FitTversky>
1.415 

> <ROCS_FitColorTversky>
1.139 

> <ROCS_FitTverskyCombo>
2.554 

> <ROCS_ColorScore>
-4.882

> <ROCS_Overlap>
672.997

> <ROCS_Rank>
81                  

$$$$
untitled-dbase-1508_0
  -OEChem-06052310023D

 13 13  0     0  0  0  0  0  0999 V2000
   -4.5780   12.4795  -29.8642 C   0  0  0  0  0  0  0  0  0  0  0  0
   -5.0653   11.1282  -31.8067 C   0  0  0  0  0  0  0  0  0  0  0  0
   -6.2846   10.7731  -29.7514 C   0  0  0  0  0  0  0  0  0  0  0  0
   -4.3340   12.1474  -31.1968 C   0  0  0  0  0  0  0  0  0  0  0  0
   -5.5532   11.7923  -29.1415 C   0  0  0  0  0  0  0  0  0  0  0  0
   -6.0407   10.4411  -31.0840 C   0  0  0  0  0  0  0  0  0  0  0  0
   -7.2392   10.1036  -29.0409 O   0  0  0  0  0  0  0  0  0  0  0  0
   -3.3983   12.8082  -31.8912 F   0  0  0  0  0  0  0  0  0  0  0  0
   -5.8297   12.2291  -27.4952 Cl  0  0  0  0  0  0  0  0  0  0  0  0
   -7.0135    9.0631  -31.9504 Br  0  0  0  0  0  0  0  0  0  0  0  0
   -4.0002   13.2769  -29.4037 H   0  0  0  0  0  0  0  0  0  0  0  0
   -4.8612   10.8831  -32.8459 H   0  0  0  0  0  0  0  0  0  0  0  0
   -7.2861   10.4516  -28.1378 H   0  0  0  0  0  0  0  0  0  0  0  0
  1  4  2  0  0  0  0
  1  5  1  0  0  0  0
  2  4  1  0  0  0  0
  2  6  2  0  0  0  0
  3  5  2  0  0  0  0
  3  6  1  0  0  0  0
  3  7  1  0  0  0  0
  4  8  1  0  0  0  0
  5  9  1  0  0  0  0
  6 10  1  0  0  0  0
  1 11  1  0  0  0  0
  2 12  1  0  0  0  0
  7 13  1  0  0  0  0
M  END
> <id>
EN300-1238568

> <smiles>
OC=1C(Cl)=CC(F)=CC1Br

> <MDLNUMBER>
MFCD04115954

> <IUPAC Name>
2-bromo-6-chloro-4-fluorophenol

> <CAS>
886499-83-8

> <Purity>
95

> <URL>
https://www.enaminestore.com/catalog/EN300-1238568

> <ROCS_ShapeQuery>
_x1604L0AP1_x0771L0AP1

> <ROCS_TanimotoCombo>
1.011 

> <ROCS_ShapeTanimoto>
0.457 

> <ROCS_ColorTanimoto>
0.554 

> <ROCS_RefTversky>
0.404 

> <ROCS_RefColorTversky>
0.518 

> <ROCS_RefTverskyCombo>
0.922 

> <ROCS_FitTversky>
1.403 

> <ROCS_FitColorTversky>
1.139 

> <ROCS_FitTverskyCombo>
2.542 

> <ROCS_ColorScore>
-4.882

> <ROCS_Overlap>
674.248

> <ROCS_Rank>
82                  

$$$$
untitled-dbase-55_0
  -OEChem-06052310023D

 13 13  0     0  0  0  0  0  0999 V2000
   -4.5769   12.4794  -29.8619 C   0  0  0  0  0  0  0  0  0  0  0  0
   -5.0639   11.1297  -31.8056 C   0  0  0  0  0  0  0  0  0  0  0  0
   -6.2842   10.7737  -29.7511 C   0  0  0  0  0  0  0  0  0  0  0  0
   -4.3325   12.1482  -31.1946 C   0  0  0  0  0  0  0  0  0  0  0  0
   -5.5528   11.7921  -29.1401 C   0  0  0  0  0  0  0  0  0  0  0  0
   -6.0399   10.4424  -31.0838 C   0  0  0  0  0  0  0  0  0  0  0  0
   -7.2383   10.1029  -29.0409 O   0  0  0  0  0  0  0  0  0  0  0  0
   -3.1302   12.9982  -32.0860 Cl  0  0  0  0  0  0  0  0  0  0  0  0
   -5.8297   12.2248  -27.4925 Cl  0  0  0  0  0  0  0  0  0  0  0  0
   -7.0130    9.0655  -31.9514 Br  0  0  0  0  0  0  0  0  0  0  0  0
   -4.0057   13.2745  -29.3871 H   0  0  0  0  0  0  0  0  0  0  0  0
   -4.8707   10.8749  -32.8455 H   0  0  0  0  0  0  0  0  0  0  0  0
   -7.2845   10.4497  -28.1372 H   0  0  0  0  0  0  0  0  0  0  0  0
  1  4  2  0  0  0  0
  1  5  1  0  0  0  0
  2  4  1  0  0  0  0
  2  6  2  0  0  0  0
  3  5  2  0  0  0  0
  3  6  1  0  0  0  0
  3  7  1  0  0  0  0
  4  8  1  0  0  0  0
  5  9  1  0  0  0  0
  6 10  1  0  0  0  0
  1 11  1  0  0  0  0
  2 12  1  0  0  0  0
  7 13  1  0  0  0  0
M  END
> <id>
EN300-212292

> <smiles>
OC=1C(Cl)=CC(Cl)=CC1Br

> <MDLNUMBER>
MFCD00474518

> <IUPAC Name>
2-bromo-4,6-dichlorophenol

> <CAS>
4524-77-0

> <Purity>
95

> <URL>
https://www.enaminestore.com/catalog/EN300-212292

> <MP>
67-71

> <ROCS_ShapeQuery>
_x1604L0AP1_x0771L0AP1

> <ROCS_TanimotoCombo>
1.011 

> <ROCS_ShapeTanimoto>
0.457 

> <ROCS_ColorTanimoto>
0.554 

> <ROCS_RefTversky>
0.402 

> <ROCS_RefColorTversky>
0.518 

> <ROCS_RefTverskyCombo>
0.920 

> <ROCS_FitTversky>
1.428 

> <ROCS_FitColorTversky>
1.139 

> <ROCS_FitTverskyCombo>
2.567 

> <ROCS_ColorScore>
-4.882

> <ROCS_Overlap>
670.641

> <ROCS_Rank>
83                  

$$$$
untitled-dbase-172_20
  -OEChem-06052310023D

 17 17  0     0  0  0  0  0  0999 V2000
   -4.5722   12.4678  -29.8674 C   0  0  0  0  0  0  0  0  0  0  0  0
   -5.0623   11.1206  -31.8121 C   0  0  0  0  0  0  0  0  0  0  0  0
   -5.5503   11.7829  -29.1464 C   0  0  0  0  0  0  0  0  0  0  0  0
   -6.2843   10.7667  -29.7582 C   0  0  0  0  0  0  0  0  0  0  0  0
   -4.3282   12.1367  -31.2003 C   0  0  0  0  0  0  0  0  0  0  0  0
   -6.0403   10.4356  -31.0911 C   0  0  0  0  0  0  0  0  0  0  0  0
   -5.7954   12.1533  -27.7205 C   0  0  0  0  0  0  0  0  0  0  0  0
   -7.2380   10.1059  -29.0395 O   0  0  0  0  0  0  0  0  0  0  0  0
   -5.0162   13.7326  -27.2691 S   0  0  0  0  0  0  0  0  0  0  0  0
   -3.1213   12.9824  -32.0896 Cl  0  0  0  0  0  0  0  0  0  0  0  0
   -7.0173    9.0608  -31.9574 Br  0  0  0  0  0  0  0  0  0  0  0  0
   -4.0015   13.2594  -29.3864 H   0  0  0  0  0  0  0  0  0  0  0  0
   -4.8692   10.8657  -32.8518 H   0  0  0  0  0  0  0  0  0  0  0  0
   -6.8731   12.2274  -27.5168 H   0  0  0  0  0  0  0  0  0  0  0  0
   -5.4116   11.3741  -27.0468 H   0  0  0  0  0  0  0  0  0  0  0  0
   -7.6627    9.4318  -29.5913 H   0  0  0  0  0  0  0  0  0  0  0  0
   -5.6787   14.4760  -28.1651 H   0  0  0  0  0  0  0  0  0  0  0  0
  1  3  2  0  0  0  0
  1  5  1  0  0  0  0
  2  5  2  0  0  0  0
  2  6  1  0  0  0  0
  3  4  1  0  0  0  0
  3  7  1  0  0  0  0
  4  6  2  0  0  0  0
  4  8  1  0  0  0  0
  5 10  1  0  0  0  0
  6 11  1  0  0  0  0
  7  9  1  0  0  0  0
  1 12  1  0  0  0  0
  2 13  1  0  0  0  0
  7 14  1  0  0  0  0
  7 15  1  0  0  0  0
  8 16  1  0  0  0  0
  9 17  1  0  0  0  0
M  END
> <id>
EN300-1289363

> <smiles>
OC=1C(Br)=CC(Cl)=CC1CS

> <MDLNUMBER>
MFCD33497722

> <IUPAC Name>
2-bromo-4-chloro-6-(sulfanylmethyl)phenol

> <CAS>
2172197-28-1

> <URL>
https://www.enaminestore.com/catalog/EN300-1289363

> <ROCS_ShapeQuery>
_x1604L0AP1_x0771L0AP1

> <ROCS_TanimotoCombo>
1.010 

> <ROCS_ShapeTanimoto>
0.457 

> <ROCS_ColorTanimoto>
0.553 

> <ROCS_RefTversky>
0.409 

> <ROCS_RefColorTversky>
0.518 

> <ROCS_RefTverskyCombo>
0.927 

> <ROCS_FitTversky>
1.347 

> <ROCS_FitColorTversky>
1.139 

> <ROCS_FitTverskyCombo>
2.486 

> <ROCS_ColorScore>
-4.881

> <ROCS_Overlap>
683.021

> <ROCS_Rank>
84                  

$$$$
untitled-dbase-920_406
  -OEChem-06052310023D

 25 25  0     1  0  0  0  0  0999 V2000
   -5.0991   10.9534  -31.9224 C   0  0  0  0  0  0  0  0  0  0  0  0
   -4.5560   12.3870  -30.0551 C   0  0  0  0  0  0  0  0  0  0  0  0
   -6.0693   10.3149  -31.1501 C   0  0  0  0  0  0  0  0  0  0  0  0
   -6.2829   10.7125  -29.8302 C   0  0  0  0  0  0  0  0  0  0  0  0
   -4.3423   11.9894  -31.3749 C   0  0  0  0  0  0  0  0  0  0  0  0
   -5.5263   11.7486  -29.2827 C   0  0  0  0  0  0  0  0  0  0  0  0
   -6.8773    9.1955  -31.7627 C   0  0  0  0  0  0  0  0  0  0  0  0
   -7.0742    7.6397  -33.7363 C   0  0  0  0  0  0  0  0  0  0  0  0
   -6.1074    8.4166  -32.8409 C   0  0  2  0  0  0  0  0  0  0  0  0
   -5.1555    7.5085  -32.2354 N   0  0  0  0  0  0  0  0  0  0  0  0
   -7.2358   10.0779  -29.0873 O   0  0  0  0  0  0  0  0  0  0  0  0
   -6.3631    6.6172  -34.4250 O   0  0  0  0  0  0  0  0  0  0  0  0
   -3.1450   12.7768  -32.3284 Cl  0  0  0  0  0  0  0  0  0  0  0  0
   -5.7872   12.3171  -27.4929 Br  0  0  0  0  0  0  0  0  0  0  0  0
   -4.9358   10.6406  -32.9516 H   0  0  0  0  0  0  0  0  0  0  0  0
   -3.9634   13.1951  -29.6318 H   0  0  0  0  0  0  0  0  0  0  0  0
   -7.2177    8.5127  -30.9727 H   0  0  0  0  0  0  0  0  0  0  0  0
   -7.7877    9.6328  -32.1934 H   0  0  0  0  0  0  0  0  0  0  0  0
   -7.5206    8.2988  -34.4880 H   0  0  0  0  0  0  0  0  0  0  0  0
   -7.8754    7.1735  -33.1528 H   0  0  0  0  0  0  0  0  0  0  0  0
   -5.5135    9.0977  -33.4622 H   0  0  0  0  0  0  0  0  0  0  0  0
   -5.2147    7.5925  -31.2443 H   0  0  0  0  0  0  0  0  0  0  0  0
   -5.3767    6.5776  -32.5132 H   0  0  0  0  0  0  0  0  0  0  0  0
   -7.2712   10.4583  -28.1966 H   0  0  0  0  0  0  0  0  0  0  0  0
   -7.0107    6.1521  -34.9780 H   0  0  0  0  0  0  0  0  0  0  0  0
  1  3  2  0  0  0  0
  1  5  1  0  0  0  0
  2  5  2  0  0  0  0
  2  6  1  0  0  0  0
  3  4  1  0  0  0  0
  3  7  1  0  0  0  0
  4  6  2  0  0  0  0
  4 11  1  0  0  0  0
  5 13  1  0  0  0  0
  6 14  1  0  0  0  0
  7  9  1  0  0  0  0
  8  9  1  0  0  0  0
  8 12  1  0  0  0  0
  9 10  1  0  0  0  0
  1 15  1  0  0  0  0
  2 16  1  0  0  0  0
  7 17  1  0  0  0  0
  7 18  1  0  0  0  0
  8 19  1  0  0  0  0
  8 20  1  0  0  0  0
  9 21  1  0  0  0  0
 10 22  1  0  0  0  0
 10 23  1  0  0  0  0
 11 24  1  0  0  0  0
 12 25  1  0  0  0  0
M  END
> <id>
EN300-1922879

> <smiles>
NC(CO)CC=1C=C(Cl)C=C(Br)C1O

> <IUPAC Name>
2-(2-amino-3-hydroxypropyl)-6-bromo-4-chlorophenol

> <CAS>
1380141-03-6

> <URL>
https://www.enaminestore.com/catalog/EN300-1922879

> <ROCS_ShapeQuery>
_x1604L0AP1_x0771L0AP1

> <ROCS_TanimotoCombo>
1.010 

> <ROCS_ShapeTanimoto>
0.522 

> <ROCS_ColorTanimoto>
0.488 

> <ROCS_RefTversky>
0.472 

> <ROCS_RefColorTversky>
0.604 

> <ROCS_RefTverskyCombo>
1.076 

> <ROCS_FitTversky>
1.253 

> <ROCS_FitColorTversky>
0.718 

> <ROCS_FitTverskyCombo>
1.971 

> <ROCS_ColorScore>
-5.804

> <ROCS_Overlap>
791.805

> <ROCS_Rank>
85                  

$$$$
untitled-dbase-2283_0
  -OEChem-06052310023D

 27 27  0     0  0  0  0  0  0999 V2000
   -5.0434   11.1602  -31.7731 C   0  0  0  0  0  0  0  0  0  0  0  0
   -4.5673   12.4951  -29.8166 C   0  0  0  0  0  0  0  0  0  0  0  0
   -4.3153   12.1739  -31.1504 C   0  0  0  0  0  0  0  0  0  0  0  0
   -6.0235   10.4677  -31.0621 C   0  0  0  0  0  0  0  0  0  0  0  0
   -6.2755   10.7889  -29.7284 C   0  0  0  0  0  0  0  0  0  0  0  0
   -5.5474   11.8026  -29.1055 C   0  0  0  0  0  0  0  0  0  0  0  0
   -3.2932   12.8956  -31.8922 C   0  0  0  0  0  0  0  0  0  0  0  0
   -6.3287    9.2180  -33.2280 C   0  0  0  0  0  0  0  0  0  0  0  0
   -8.3187    9.7027  -31.7648 C   0  0  0  0  0  0  0  0  0  0  0  0
   -6.6662    7.9655  -31.1069 C   0  0  0  0  0  0  0  0  0  0  0  0
   -6.8144    9.3543  -31.7687 C   0  0  0  0  0  0  0  0  0  0  0  0
   -2.6162   13.8016  -31.3988 O   0  0  0  0  0  0  0  0  0  0  0  0
   -7.2373   10.1023  -29.0458 O   0  0  0  0  0  0  0  0  0  0  0  0
   -5.8605   12.2674  -27.2943 Br  0  0  0  0  0  0  0  0  0  0  0  0
   -4.8475   10.9085  -32.8130 H   0  0  0  0  0  0  0  0  0  0  0  0
   -3.9954   13.2868  -29.3373 H   0  0  0  0  0  0  0  0  0  0  0  0
   -3.1287   12.6034  -32.9521 H   0  0  0  0  0  0  0  0  0  0  0  0
   -6.8777    8.4292  -33.7554 H   0  0  0  0  0  0  0  0  0  0  0  0
   -6.4686   10.1421  -33.7997 H   0  0  0  0  0  0  0  0  0  0  0  0
   -5.2624    8.9655  -33.2668 H   0  0  0  0  0  0  0  0  0  0  0  0
   -8.9234    8.9348  -32.2595 H   0  0  0  0  0  0  0  0  0  0  0  0
   -8.6993    9.7997  -30.7412 H   0  0  0  0  0  0  0  0  0  0  0  0
   -8.5051   10.6516  -32.2814 H   0  0  0  0  0  0  0  0  0  0  0  0
   -7.2471    7.2071  -31.6456 H   0  0  0  0  0  0  0  0  0  0  0  0
   -5.6228    7.6291  -31.1038 H   0  0  0  0  0  0  0  0  0  0  0  0
   -7.0264    7.9713  -30.0715 H   0  0  0  0  0  0  0  0  0  0  0  0
   -7.3000   10.4326  -28.1367 H   0  0  0  0  0  0  0  0  0  0  0  0
  1  3  1  0  0  0  0
  1  4  2  0  0  0  0
  2  3  2  0  0  0  0
  2  6  1  0  0  0  0
  3  7  1  0  0  0  0
  4  5  1  0  0  0  0
  4 11  1  0  0  0  0
  5  6  2  0  0  0  0
  5 13  1  0  0  0  0
  6 14  1  0  0  0  0
  7 12  2  0  0  0  0
  8 11  1  0  0  0  0
  9 11  1  0  0  0  0
 10 11  1  0  0  0  0
  1 15  1  0  0  0  0
  2 16  1  0  0  0  0
  7 17  1  0  0  0  0
  8 18  1  0  0  0  0
  8 19  1  0  0  0  0
  8 20  1  0  0  0  0
  9 21  1  0  0  0  0
  9 22  1  0  0  0  0
  9 23  1  0  0  0  0
 10 24  1  0  0  0  0
 10 25  1  0  0  0  0
 10 26  1  0  0  0  0
 13 27  1  0  0  0  0
M  END
> <id>
EN300-22838980

> <smiles>
CC(C)(C)C=1C=C(C=O)C=C(Br)C1O

> <MDLNUMBER>
MFCD31652800

> <IUPAC Name>
3-bromo-5-tert-butyl-4-hydroxybenzaldehyde

> <CAS>
65678-06-0

> <Purity>
95

> <URL>
https://www.enaminestore.com/catalog/EN300-22838980

> <MP>
126-128

> <ROCS_ShapeQuery>
_x1604L0AP1_x0771L0AP1

> <ROCS_TanimotoCombo>
1.009 

> <ROCS_ShapeTanimoto>
0.558 

> <ROCS_ColorTanimoto>
0.451 

> <ROCS_RefTversky>
0.496 

> <ROCS_RefColorTversky>
0.513 

> <ROCS_RefTverskyCombo>
1.009 

> <ROCS_FitTversky>
1.285 

> <ROCS_FitColorTversky>
0.789 

> <ROCS_FitTverskyCombo>
2.075 

> <ROCS_ColorScore>
-4.881

> <ROCS_Overlap>
832.743

> <ROCS_Rank>
86                  

$$$$
untitled-dbase-274_85
  -OEChem-06052310023D

 19 19  0     0  0  0  0  0  0999 V2000
   -4.5864   12.4660  -29.8305 C   0  0  0  0  0  0  0  0  0  0  0  0
   -5.5684   11.7718  -29.1238 C   0  0  0  0  0  0  0  0  0  0  0  0
   -5.0571   11.1358  -31.7916 C   0  0  0  0  0  0  0  0  0  0  0  0
   -4.3308   12.1481  -31.1644 C   0  0  0  0  0  0  0  0  0  0  0  0
   -6.2948   10.7595  -29.7510 C   0  0  0  0  0  0  0  0  0  0  0  0
   -6.0391   10.4415  -31.0849 C   0  0  0  0  0  0  0  0  0  0  0  0
   -3.2805   12.8908  -31.9187 C   0  0  0  0  0  0  0  0  0  0  0  0
   -2.4153   13.6488  -31.0509 N   0  0  0  0  0  0  0  0  0  0  0  0
   -7.2464   10.0991  -29.0324 O   0  0  0  0  0  0  0  0  0  0  0  0
   -3.0288   14.9611  -30.9145 O   0  0  0  0  0  0  0  0  0  0  0  0
   -7.0055    9.0711  -31.9684 Br  0  0  0  0  0  0  0  0  0  0  0  0
   -4.0259   13.2530  -29.3327 H   0  0  0  0  0  0  0  0  0  0  0  0
   -5.7620   12.0252  -28.0849 H   0  0  0  0  0  0  0  0  0  0  0  0
   -4.8513   10.8949  -32.8324 H   0  0  0  0  0  0  0  0  0  0  0  0
   -2.6474   12.2035  -32.4972 H   0  0  0  0  0  0  0  0  0  0  0  0
   -3.7222   13.5952  -32.6370 H   0  0  0  0  0  0  0  0  0  0  0  0
   -1.5297   13.8782  -31.5113 H   0  0  0  0  0  0  0  0  0  0  0  0
   -7.6735    9.4250  -29.5834 H   0  0  0  0  0  0  0  0  0  0  0  0
   -2.3950   15.4043  -30.3243 H   0  0  0  0  0  0  0  0  0  0  0  0
  1  2  1  0  0  0  0
  1  4  2  0  0  0  0
  2  5  2  0  0  0  0
  3  4  1  0  0  0  0
  3  6  2  0  0  0  0
  4  7  1  0  0  0  0
  5  6  1  0  0  0  0
  5  9  1  0  0  0  0
  6 11  1  0  0  0  0
  7  8  1  0  0  0  0
  8 10  1  0  0  0  0
  1 12  1  0  0  0  0
  2 13  1  0  0  0  0
  3 14  1  0  0  0  0
  7 15  1  0  0  0  0
  7 16  1  0  0  0  0
  8 17  1  0  0  0  0
  9 18  1  0  0  0  0
 10 19  1  0  0  0  0
M  END
> <id>
EN300-1894692

> <smiles>
ONCC=1C=CC(O)=C(Br)C1

> <MDLNUMBER>
MFCD24285085

> <IUPAC Name>
2-bromo-4-[(hydroxyamino)methyl]phenol

> <CAS>
1506580-47-7

> <URL>
https://www.enaminestore.com/catalog/EN300-1894692

> <ROCS_ShapeQuery>
_x1604L0AP1_x0771L0AP1

> <ROCS_TanimotoCombo>
1.009 

> <ROCS_ShapeTanimoto>
0.512 

> <ROCS_ColorTanimoto>
0.497 

> <ROCS_RefTversky>
0.444 

> <ROCS_RefColorTversky>
0.515 

> <ROCS_RefTverskyCombo>
0.959 

> <ROCS_FitTversky>
1.429 

> <ROCS_FitColorTversky>
0.932 

> <ROCS_FitTverskyCombo>
2.361 

> <ROCS_ColorScore>
-4.878

> <ROCS_Overlap>
741.769

> <ROCS_Rank>
87                  

$$$$
untitled-dbase-2067_1
  -OEChem-06052310023D

 17 17  0     0  0  0  0  0  0999 V2000
   -5.5763   11.7924  -29.1528 C   0  0  0  0  0  0  0  0  0  0  0  0
   -4.3625   12.1685  -31.2075 C   0  0  0  0  0  0  0  0  0  0  0  0
   -4.6091   12.4928  -29.8735 C   0  0  0  0  0  0  0  0  0  0  0  0
   -6.2969   10.7675  -29.7660 C   0  0  0  0  0  0  0  0  0  0  0  0
   -5.0831   11.1436  -31.8208 C   0  0  0  0  0  0  0  0  0  0  0  0
   -6.0503   10.4432  -31.1001 C   0  0  0  0  0  0  0  0  0  0  0  0
   -2.9319   14.1673  -30.0703 C   0  0  0  0  0  0  0  0  0  0  0  0
   -7.2354   10.1035  -29.0335 O   0  0  0  0  0  0  0  0  0  0  0  0
   -3.9057   13.4926  -29.2752 O   0  0  0  0  0  0  0  0  0  0  0  0
   -4.8308   10.8467  -33.1039 F   0  0  0  0  0  0  0  0  0  0  0  0
   -7.0178    9.0558  -31.9580 Br  0  0  0  0  0  0  0  0  0  0  0  0
   -5.7675   12.0465  -28.1131 H   0  0  0  0  0  0  0  0  0  0  0  0
   -3.6100   12.7099  -31.7741 H   0  0  0  0  0  0  0  0  0  0  0  0
   -2.4442   14.9407  -29.4719 H   0  0  0  0  0  0  0  0  0  0  0  0
   -3.4182   14.6168  -30.9398 H   0  0  0  0  0  0  0  0  0  0  0  0
   -2.1846   13.4446  -30.4064 H   0  0  0  0  0  0  0  0  0  0  0  0
   -7.6603    9.4204  -29.5751 H   0  0  0  0  0  0  0  0  0  0  0  0
  1  3  2  0  0  0  0
  1  4  1  0  0  0  0
  2  3  1  0  0  0  0
  2  5  2  0  0  0  0
  3  9  1  0  0  0  0
  4  6  2  0  0  0  0
  4  8  1  0  0  0  0
  5  6  1  0  0  0  0
  5 10  1  0  0  0  0
  6 11  1  0  0  0  0
  7  9  1  0  0  0  0
  1 12  1  0  0  0  0
  2 13  1  0  0  0  0
  7 14  1  0  0  0  0
  7 15  1  0  0  0  0
  7 16  1  0  0  0  0
  8 17  1  0  0  0  0
M  END
> <id>
EN300-6807267

> <smiles>
COC=1C=C(O)C(Br)=C(F)C1

> <MDLNUMBER>
MFCD28738848

> <IUPAC Name>
2-bromo-3-fluoro-5-methoxyphenol

> <CAS>
1785528-41-7

> <Purity>
95

> <URL>
https://www.enaminestore.com/catalog/EN300-6807267

> <ROCS_ShapeQuery>
_x1604L0AP1_x0771L0AP1

> <ROCS_TanimotoCombo>
1.009 

> <ROCS_ShapeTanimoto>
0.512 

> <ROCS_ColorTanimoto>
0.497 

> <ROCS_RefTversky>
0.446 

> <ROCS_RefColorTversky>
0.515 

> <ROCS_RefTverskyCombo>
0.962 

> <ROCS_FitTversky>
1.403 

> <ROCS_FitColorTversky>
0.932 

> <ROCS_FitTverskyCombo>
2.335 

> <ROCS_ColorScore>
-4.879

> <ROCS_Overlap>
745.796

> <ROCS_Rank>
88                  

$$$$
untitled-dbase-2011_0
  -OEChem-06052310023D

 17 17  0     0  0  0  0  0  0999 V2000
   -5.5519   11.7855  -29.1686 C   0  0  0  0  0  0  0  0  0  0  0  0
   -5.0829   11.1141  -31.8355 C   0  0  0  0  0  0  0  0  0  0  0  0
   -4.5827   12.4716  -29.9004 C   0  0  0  0  0  0  0  0  0  0  0  0
   -6.2866   10.7637  -29.7702 C   0  0  0  0  0  0  0  0  0  0  0  0
   -4.3482   12.1359  -31.2339 C   0  0  0  0  0  0  0  0  0  0  0  0
   -6.0521   10.4280  -31.1036 C   0  0  0  0  0  0  0  0  0  0  0  0
   -4.3984   14.7886  -29.3972 C   0  0  0  0  0  0  0  0  0  0  0  0
   -7.2261   10.1123  -29.0279 O   0  0  0  0  0  0  0  0  0  0  0  0
   -3.8661   13.4676  -29.3116 O   0  0  0  0  0  0  0  0  0  0  0  0
   -3.4177   12.7903  -31.9423 F   0  0  0  0  0  0  0  0  0  0  0  0
   -7.0309    9.0456  -31.9537 Br  0  0  0  0  0  0  0  0  0  0  0  0
   -5.7319   12.0465  -28.1287 H   0  0  0  0  0  0  0  0  0  0  0  0
   -4.8854   10.8666  -32.8752 H   0  0  0  0  0  0  0  0  0  0  0  0
   -3.7291   15.4857  -28.8871 H   0  0  0  0  0  0  0  0  0  0  0  0
   -5.3888   14.8139  -28.9358 H   0  0  0  0  0  0  0  0  0  0  0  0
   -4.4814   15.0708  -30.4495 H   0  0  0  0  0  0  0  0  0  0  0  0
   -7.6608    9.4301  -29.5628 H   0  0  0  0  0  0  0  0  0  0  0  0
  1  3  2  0  0  0  0
  1  4  1  0  0  0  0
  2  5  2  0  0  0  0
  2  6  1  0  0  0  0
  3  5  1  0  0  0  0
  3  9  1  0  0  0  0
  4  6  2  0  0  0  0
  4  8  1  0  0  0  0
  5 10  1  0  0  0  0
  6 11  1  0  0  0  0
  7  9  1  0  0  0  0
  1 12  1  0  0  0  0
  2 13  1  0  0  0  0
  7 14  1  0  0  0  0
  7 15  1  0  0  0  0
  7 16  1  0  0  0  0
  8 17  1  0  0  0  0
M  END
> <id>
EN300-6825593

> <smiles>
COC=1C=C(O)C(Br)=CC1F

> <MDLNUMBER>
MFCD26390960

> <IUPAC Name>
2-bromo-4-fluoro-5-methoxyphenol

> <CAS>
1185836-63-8

> <Purity>
95

> <URL>
https://www.enaminestore.com/catalog/EN300-6825593

> <MP>
73-77

> <ROCS_ShapeQuery>
_x1604L0AP1_x0771L0AP1

> <ROCS_TanimotoCombo>
1.009 

> <ROCS_ShapeTanimoto>
0.512 

> <ROCS_ColorTanimoto>
0.496 

> <ROCS_RefTversky>
0.446 

> <ROCS_RefColorTversky>
0.515 

> <ROCS_RefTverskyCombo>
0.962 

> <ROCS_FitTversky>
1.403 

> <ROCS_FitColorTversky>
0.932 

> <ROCS_FitTverskyCombo>
2.335 

> <ROCS_ColorScore>
-4.877

> <ROCS_Overlap>
746.181

> <ROCS_Rank>
89                  

$$$$
untitled-dbase-952_0
  -OEChem-06052310023D

 16 16  0     0  0  0  0  0  0999 V2000
   -4.5758   12.4709  -29.8620 C   0  0  0  0  0  0  0  0  0  0  0  0
   -5.0616   11.1240  -31.8080 C   0  0  0  0  0  0  0  0  0  0  0  0
   -5.5538   11.7842  -29.1426 C   0  0  0  0  0  0  0  0  0  0  0  0
   -6.2856   10.7674  -29.7559 C   0  0  0  0  0  0  0  0  0  0  0  0
   -4.3297   12.1409  -31.1948 C   0  0  0  0  0  0  0  0  0  0  0  0
   -6.0395   10.4373  -31.0886 C   0  0  0  0  0  0  0  0  0  0  0  0
   -5.8012   12.1536  -27.7168 C   0  0  0  0  0  0  0  0  0  0  0  0
   -7.2392   10.1048  -29.0387 O   0  0  0  0  0  0  0  0  0  0  0  0
   -3.1230   12.9888  -32.0822 Cl  0  0  0  0  0  0  0  0  0  0  0  0
   -6.7033   13.6813  -27.6130 Cl  0  0  0  0  0  0  0  0  0  0  0  0
   -7.0134    9.0616  -31.9568 Br  0  0  0  0  0  0  0  0  0  0  0  0
   -4.0069   13.2631  -29.3799 H   0  0  0  0  0  0  0  0  0  0  0  0
   -4.8669   10.8700  -32.8477 H   0  0  0  0  0  0  0  0  0  0  0  0
   -4.8601   12.2764  -27.1661 H   0  0  0  0  0  0  0  0  0  0  0  0
   -6.3814   11.3802  -27.1977 H   0  0  0  0  0  0  0  0  0  0  0  0
   -7.6623    9.4304  -29.5914 H   0  0  0  0  0  0  0  0  0  0  0  0
  1  3  2  0  0  0  0
  1  5  1  0  0  0  0
  2  5  2  0  0  0  0
  2  6  1  0  0  0  0
  3  4  1  0  0  0  0
  3  7  1  0  0  0  0
  4  6  2  0  0  0  0
  4  8  1  0  0  0  0
  5  9  1  0  0  0  0
  6 11  1  0  0  0  0
  7 10  1  0  0  0  0
  1 12  1  0  0  0  0
  2 13  1  0  0  0  0
  7 14  1  0  0  0  0
  7 15  1  0  0  0  0
  8 16  1  0  0  0  0
M  END
> <id>
EN300-1926028

> <smiles>
OC=1C(Br)=CC(Cl)=CC1CCl

> <MDLNUMBER>
MFCD33417863

> <IUPAC Name>
2-bromo-4-chloro-6-(chloromethyl)phenol

> <CAS>
2090336-59-5

> <URL>
https://www.enaminestore.com/catalog/EN300-1926028

> <ROCS_ShapeQuery>
_x1604L0AP1_x0771L0AP1

> <ROCS_TanimotoCombo>
1.008 

> <ROCS_ShapeTanimoto>
0.454 

> <ROCS_ColorTanimoto>
0.553 

> <ROCS_RefTversky>
0.407 

> <ROCS_RefColorTversky>
0.518 

> <ROCS_RefTverskyCombo>
0.926 

> <ROCS_FitTversky>
1.340 

> <ROCS_FitColorTversky>
1.139 

> <ROCS_FitTverskyCombo>
2.479 

> <ROCS_ColorScore>
-4.881

> <ROCS_Overlap>
680.359

> <ROCS_Rank>
90                  

$$$$
untitled-dbase-2317_0
  -OEChem-06052310023D

 17 17  0     0  0  0  0  0  0999 V2000
   -5.5786   11.7937  -29.1490 C   0  0  0  0  0  0  0  0  0  0  0  0
   -5.0790   11.1447  -31.8158 C   0  0  0  0  0  0  0  0  0  0  0  0
   -6.2981   10.7692  -29.7640 C   0  0  0  0  0  0  0  0  0  0  0  0
   -4.3595   12.1693  -31.2008 C   0  0  0  0  0  0  0  0  0  0  0  0
   -4.6093   12.4938  -29.8674 C   0  0  0  0  0  0  0  0  0  0  0  0
   -6.0483   10.4446  -31.0973 C   0  0  0  0  0  0  0  0  0  0  0  0
   -2.0834   12.3400  -31.8686 C   0  0  0  0  0  0  0  0  0  0  0  0
   -7.2375   10.1039  -29.0340 O   0  0  0  0  0  0  0  0  0  0  0  0
   -3.4145   12.8524  -31.9027 O   0  0  0  0  0  0  0  0  0  0  0  0
   -3.9210   13.4771  -29.2713 F   0  0  0  0  0  0  0  0  0  0  0  0
   -7.0077    9.0596  -31.9654 Br  0  0  0  0  0  0  0  0  0  0  0  0
   -5.7659   12.0521  -28.1104 H   0  0  0  0  0  0  0  0  0  0  0  0
   -4.8755   10.9013  -32.8560 H   0  0  0  0  0  0  0  0  0  0  0  0
   -1.4308   12.9785  -32.4691 H   0  0  0  0  0  0  0  0  0  0  0  0
   -2.0745   11.3200  -32.2612 H   0  0  0  0  0  0  0  0  0  0  0  0
   -1.7315   12.3333  -30.8343 H   0  0  0  0  0  0  0  0  0  0  0  0
   -7.6612    9.4212  -29.5772 H   0  0  0  0  0  0  0  0  0  0  0  0
  1  3  1  0  0  0  0
  1  5  2  0  0  0  0
  2  4  2  0  0  0  0
  2  6  1  0  0  0  0
  3  6  2  0  0  0  0
  3  8  1  0  0  0  0
  4  5  1  0  0  0  0
  4  9  1  0  0  0  0
  5 10  1  0  0  0  0
  6 11  1  0  0  0  0
  7  9  1  0  0  0  0
  1 12  1  0  0  0  0
  2 13  1  0  0  0  0
  7 14  1  0  0  0  0
  7 15  1  0  0  0  0
  7 16  1  0  0  0  0
  8 17  1  0  0  0  0
M  END
> <id>
EN300-6825652

> <smiles>
COC=1C=C(Br)C(O)=CC1F

> <MDLNUMBER>
MFCD26390961

> <IUPAC Name>
2-bromo-5-fluoro-4-methoxyphenol

> <URL>
https://www.enaminestore.com/catalog/EN300-6825652

> <ROCS_ShapeQuery>
_x1604L0AP1_x0771L0AP1

> <ROCS_TanimotoCombo>
1.007 

> <ROCS_ShapeTanimoto>
0.510 

> <ROCS_ColorTanimoto>
0.497 

> <ROCS_RefTversky>
0.445 

> <ROCS_RefColorTversky>
0.515 

> <ROCS_RefTverskyCombo>
0.961 

> <ROCS_FitTversky>
1.400 

> <ROCS_FitColorTversky>
0.932 

> <ROCS_FitTverskyCombo>
2.331 

> <ROCS_ColorScore>
-4.878

> <ROCS_Overlap>
744.367

> <ROCS_Rank>
91                  

$$$$
untitled-dbase-2094_1471
  -OEChem-06052310023D

 26 26  0     0  0  0  0  0  0999 V2000
   -4.5792   12.4661  -29.8502 C   0  0  0  0  0  0  0  0  0  0  0  0
   -5.0605   11.1259  -31.8019 C   0  0  0  0  0  0  0  0  0  0  0  0
   -4.3299   12.1405  -31.1834 C   0  0  0  0  0  0  0  0  0  0  0  0
   -5.5590   11.7771  -29.1354 C   0  0  0  0  0  0  0  0  0  0  0  0
   -6.2897   10.7626  -29.7539 C   0  0  0  0  0  0  0  0  0  0  0  0
   -6.0404   10.4370  -31.0872 C   0  0  0  0  0  0  0  0  0  0  0  0
   -4.8698   12.2462  -25.6289 C   0  0  0  0  0  0  0  0  0  0  0  0
   -3.2828   12.8779  -31.9474 C   0  0  0  0  0  0  0  0  0  0  0  0
   -4.6868   12.6117  -27.0865 C   0  0  0  0  0  0  0  0  0  0  0  0
   -3.1683   14.8165  -30.6804 N   0  0  0  0  0  0  0  0  0  0  0  0
   -7.2447   10.1009  -29.0385 O   0  0  0  0  0  0  0  0  0  0  0  0
   -5.7914   12.1070  -27.8342 O   0  0  0  0  0  0  0  0  0  0  0  0
   -2.4577   13.6003  -31.0416 O   0  0  0  0  0  0  0  0  0  0  0  0
   -7.0129    9.0645  -31.9617 Br  0  0  0  0  0  0  0  0  0  0  0  0
   -4.0111   13.2568  -29.3659 H   0  0  0  0  0  0  0  0  0  0  0  0
   -4.8591   10.8795  -32.8421 H   0  0  0  0  0  0  0  0  0  0  0  0
   -5.7897   12.6823  -25.2297 H   0  0  0  0  0  0  0  0  0  0  0  0
   -4.9116   11.1590  -25.5058 H   0  0  0  0  0  0  0  0  0  0  0  0
   -4.0228   12.6016  -25.0327 H   0  0  0  0  0  0  0  0  0  0  0  0
   -2.6504   12.1910  -32.5265 H   0  0  0  0  0  0  0  0  0  0  0  0
   -3.7335   13.5863  -32.6560 H   0  0  0  0  0  0  0  0  0  0  0  0
   -3.7650   12.1724  -27.4794 H   0  0  0  0  0  0  0  0  0  0  0  0
   -4.6460   13.6983  -27.2077 H   0  0  0  0  0  0  0  0  0  0  0  0
   -2.4690   15.5176  -30.9207 H   0  0  0  0  0  0  0  0  0  0  0  0
   -3.1645   14.7384  -29.6646 H   0  0  0  0  0  0  0  0  0  0  0  0
   -7.6685    9.4274  -29.5921 H   0  0  0  0  0  0  0  0  0  0  0  0
  1  3  1  0  0  0  0
  1  4  2  0  0  0  0
  2  3  2  0  0  0  0
  2  6  1  0  0  0  0
  3  8  1  0  0  0  0
  4  5  1  0  0  0  0
  4 12  1  0  0  0  0
  5  6  2  0  0  0  0
  5 11  1  0  0  0  0
  6 14  1  0  0  0  0
  7  9  1  0  0  0  0
  8 13  1  0  0  0  0
  9 12  1  0  0  0  0
 10 13  1  0  0  0  0
  1 15  1  0  0  0  0
  2 16  1  0  0  0  0
  7 17  1  0  0  0  0
  7 18  1  0  0  0  0
  7 19  1  0  0  0  0
  8 20  1  0  0  0  0
  8 21  1  0  0  0  0
  9 22  1  0  0  0  0
  9 23  1  0  0  0  0
 10 24  1  0  0  0  0
 10 25  1  0  0  0  0
 11 26  1  0  0  0  0
M  END
> <id>
EN300-1920281

> <smiles>
CCOC=1C=C(CON)C=C(Br)C1O

> <IUPAC Name>
4-[(aminooxy)methyl]-2-bromo-6-ethoxyphenol

> <CAS>
2229470-14-6

> <URL>
https://www.enaminestore.com/catalog/EN300-1920281

> <ROCS_ShapeQuery>
_x1604L0AP1_x0771L0AP1

> <ROCS_TanimotoCombo>
1.007 

> <ROCS_ShapeTanimoto>
0.510 

> <ROCS_ColorTanimoto>
0.497 

> <ROCS_RefTversky>
0.467 

> <ROCS_RefColorTversky>
0.516 

> <ROCS_RefTverskyCombo>
0.983 

> <ROCS_FitTversky>
1.218 

> <ROCS_FitColorTversky>
0.932 

> <ROCS_FitTverskyCombo>
2.150 

> <ROCS_ColorScore>
-4.881

> <ROCS_Overlap>
783.436

> <ROCS_Rank>
92                  

$$$$
untitled-dbase-83_0
  -OEChem-06052310023D

 16 16  0     0  0  0  0  0  0999 V2000
   -4.3468   12.1511  -31.2078 C   0  0  0  0  0  0  0  0  0  0  0  0
   -5.0743   11.1306  -31.8201 C   0  0  0  0  0  0  0  0  0  0  0  0
   -5.5657   11.7875  -29.1537 C   0  0  0  0  0  0  0  0  0  0  0  0
   -4.5925   12.4795  -29.8745 C   0  0  0  0  0  0  0  0  0  0  0  0
   -6.2933   10.7670  -29.7661 C   0  0  0  0  0  0  0  0  0  0  0  0
   -6.0476   10.4386  -31.0993 C   0  0  0  0  0  0  0  0  0  0  0  0
   -3.8142   13.5697  -29.2192 C   0  0  0  0  0  0  0  0  0  0  0  0
   -7.2352   10.1078  -29.0335 O   0  0  0  0  0  0  0  0  0  0  0  0
   -7.0166    9.0584  -31.9643 Br  0  0  0  0  0  0  0  0  0  0  0  0
   -3.5889   12.6836  -31.7764 H   0  0  0  0  0  0  0  0  0  0  0  0
   -4.8690   10.8887  -32.8599 H   0  0  0  0  0  0  0  0  0  0  0  0
   -5.7582   12.0424  -28.1141 H   0  0  0  0  0  0  0  0  0  0  0  0
   -4.3218   14.5333  -29.3501 H   0  0  0  0  0  0  0  0  0  0  0  0
   -3.6942   13.3831  -28.1441 H   0  0  0  0  0  0  0  0  0  0  0  0
   -2.8042   13.6482  -29.6425 H   0  0  0  0  0  0  0  0  0  0  0  0
   -7.6642    9.4275  -29.5754 H   0  0  0  0  0  0  0  0  0  0  0  0
  1  2  1  0  0  0  0
  1  4  2  0  0  0  0
  2  6  2  0  0  0  0
  3  4  1  0  0  0  0
  3  5  2  0  0  0  0
  4  7  1  0  0  0  0
  5  6  1  0  0  0  0
  5  8  1  0  0  0  0
  6  9  1  0  0  0  0
  1 10  1  0  0  0  0
  2 11  1  0  0  0  0
  3 12  1  0  0  0  0
  7 13  1  0  0  0  0
  7 14  1  0  0  0  0
  7 15  1  0  0  0  0
  8 16  1  0  0  0  0
M  END
> <id>
EN300-132559

> <smiles>
CC=1C=CC(Br)=C(O)C1

> <MDLNUMBER>
MFCD11100989

> <IUPAC Name>
2-bromo-5-methylphenol

> <CAS>
14847-51-9

> <Purity>
95

> <URL>
https://www.enaminestore.com/catalog/EN300-132559

> <MP>
38-39

> <ROCS_ShapeQuery>
_x1604L0AP1_x0771L0AP1

> <ROCS_TanimotoCombo>
1.007 

> <ROCS_ShapeTanimoto>
0.454 

> <ROCS_ColorTanimoto>
0.553 

> <ROCS_RefTversky>
0.395 

> <ROCS_RefColorTversky>
0.518 

> <ROCS_RefTverskyCombo>
0.913 

> <ROCS_FitTversky>
1.492 

> <ROCS_FitColorTversky>
1.138 

> <ROCS_FitTverskyCombo>
2.630 

> <ROCS_ColorScore>
-4.878

> <ROCS_Overlap>
657.816

> <ROCS_Rank>
93                  

$$$$
untitled-dbase-1400_0
  -OEChem-06052310023D

 13 13  0     0  0  0  0  0  0999 V2000
   -4.3466   12.1525  -31.2042 C   0  0  0  0  0  0  0  0  0  0  0  0
   -5.0736   11.1326  -31.8180 C   0  0  0  0  0  0  0  0  0  0  0  0
   -5.5653   11.7854  -29.1506 C   0  0  0  0  0  0  0  0  0  0  0  0
   -6.2924   10.7655  -29.7645 C   0  0  0  0  0  0  0  0  0  0  0  0
   -4.5924   12.4788  -29.8704 C   0  0  0  0  0  0  0  0  0  0  0  0
   -6.0466   10.4391  -31.0982 C   0  0  0  0  0  0  0  0  0  0  0  0
   -7.2361   10.1071  -29.0335 O   0  0  0  0  0  0  0  0  0  0  0  0
   -3.8944   13.4579  -29.2801 F   0  0  0  0  0  0  0  0  0  0  0  0
   -7.0134    9.0582  -31.9645 Br  0  0  0  0  0  0  0  0  0  0  0  0
   -3.5885   12.6923  -31.7635 H   0  0  0  0  0  0  0  0  0  0  0  0
   -4.8678   10.8916  -32.8577 H   0  0  0  0  0  0  0  0  0  0  0  0
   -5.7507   12.0455  -28.1120 H   0  0  0  0  0  0  0  0  0  0  0  0
   -7.6648    9.4271  -29.5761 H   0  0  0  0  0  0  0  0  0  0  0  0
  1  2  1  0  0  0  0
  1  5  2  0  0  0  0
  2  6  2  0  0  0  0
  3  4  2  0  0  0  0
  3  5  1  0  0  0  0
  4  6  1  0  0  0  0
  4  7  1  0  0  0  0
  5  8  1  0  0  0  0
  6  9  1  0  0  0  0
  1 10  1  0  0  0  0
  2 11  1  0  0  0  0
  3 12  1  0  0  0  0
  7 13  1  0  0  0  0
M  END
> <id>
EN300-112643

> <smiles>
OC=1C=C(F)C=CC1Br

> <MDLNUMBER>
MFCD00040939

> <IUPAC Name>
2-bromo-5-fluorophenol

> <CAS>
147460-41-1

> <Purity>
95

> <URL>
https://www.enaminestore.com/catalog/EN300-112643

> <MP>
42-44

> <ROCS_ShapeQuery>
_x1604L0AP1_x0771L0AP1

> <ROCS_TanimotoCombo>
1.007 

> <ROCS_ShapeTanimoto>
0.454 

> <ROCS_ColorTanimoto>
0.553 

> <ROCS_RefTversky>
0.396 

> <ROCS_RefColorTversky>
0.518 

> <ROCS_RefTverskyCombo>
0.914 

> <ROCS_FitTversky>
1.479 

> <ROCS_FitColorTversky>
1.138 

> <ROCS_FitTverskyCombo>
2.618 

> <ROCS_ColorScore>
-4.878

> <ROCS_Overlap>
659.346

> <ROCS_Rank>
94                  

$$$$
untitled-dbase-2106_0
  -OEChem-06052310023D

 16 16  0     0  0  0  0  0  0999 V2000
   -4.5867   12.4741  -29.8484 C   0  0  0  0  0  0  0  0  0  0  0  0
   -5.5656   11.7813  -29.1362 C   0  0  0  0  0  0  0  0  0  0  0  0
   -5.0606   11.1348  -31.8026 C   0  0  0  0  0  0  0  0  0  0  0  0
   -4.3342   12.1509  -31.1817 C   0  0  0  0  0  0  0  0  0  0  0  0
   -6.2920   10.7652  -29.7571 C   0  0  0  0  0  0  0  0  0  0  0  0
   -6.0395   10.4419  -31.0903 C   0  0  0  0  0  0  0  0  0  0  0  0
   -3.2872   12.8921  -31.9421 C   0  0  0  0  0  0  0  0  0  0  0  0
   -7.2406   10.1063  -29.0330 O   0  0  0  0  0  0  0  0  0  0  0  0
   -7.0061    9.0662  -31.9653 Br  0  0  0  0  0  0  0  0  0  0  0  0
   -4.0260   13.2641  -29.3556 H   0  0  0  0  0  0  0  0  0  0  0  0
   -5.7567   12.0388  -28.0978 H   0  0  0  0  0  0  0  0  0  0  0  0
   -4.8572   10.8898  -32.8429 H   0  0  0  0  0  0  0  0  0  0  0  0
   -2.3149   12.3952  -31.8371 H   0  0  0  0  0  0  0  0  0  0  0  0
   -3.5352   12.9489  -33.0100 H   0  0  0  0  0  0  0  0  0  0  0  0
   -3.1904   13.9252  -31.5834 H   0  0  0  0  0  0  0  0  0  0  0  0
   -7.6681    9.4292  -29.5800 H   0  0  0  0  0  0  0  0  0  0  0  0
  1  2  1  0  0  0  0
  1  4  2  0  0  0  0
  2  5  2  0  0  0  0
  3  4  1  0  0  0  0
  3  6  2  0  0  0  0
  4  7  1  0  0  0  0
  5  6  1  0  0  0  0
  5  8  1  0  0  0  0
  6  9  1  0  0  0  0
  1 10  1  0  0  0  0
  2 11  1  0  0  0  0
  3 12  1  0  0  0  0
  7 13  1  0  0  0  0
  7 14  1  0  0  0  0
  7 15  1  0  0  0  0
  8 16  1  0  0  0  0
M  END
> <id>
EN300-20031

> <smiles>
CC=1C=CC(O)=C(Br)C1

> <MDLNUMBER>
MFCD00002151

> <IUPAC Name>
2-bromo-4-methylphenol

> <CAS>
6627-55-0

> <Purity>
95

> <URL>
https://www.enaminestore.com/catalog/EN300-20031

> <MP>
54-57

> <ROCS_ShapeQuery>
_x1604L0AP1_x0771L0AP1

> <ROCS_TanimotoCombo>
1.007 

> <ROCS_ShapeTanimoto>
0.454 

> <ROCS_ColorTanimoto>
0.553 

> <ROCS_RefTversky>
0.395 

> <ROCS_RefColorTversky>
0.518 

> <ROCS_RefTverskyCombo>
0.913 

> <ROCS_FitTversky>
1.491 

> <ROCS_FitColorTversky>
1.139 

> <ROCS_FitTverskyCombo>
2.630 

> <ROCS_ColorScore>
-4.879

> <ROCS_Overlap>
657.684

> <ROCS_Rank>
95                  

$$$$
untitled-dbase-70_0
  -OEChem-06052310023D

 13 13  0     0  0  0  0  0  0999 V2000
   -5.5658   11.7806  -29.1373 C   0  0  0  0  0  0  0  0  0  0  0  0
   -4.5879   12.4742  -29.8502 C   0  0  0  0  0  0  0  0  0  0  0  0
   -5.0619   11.1342  -31.8039 C   0  0  0  0  0  0  0  0  0  0  0  0
   -6.2917   10.7638  -29.7576 C   0  0  0  0  0  0  0  0  0  0  0  0
   -4.3359   12.1510  -31.1835 C   0  0  0  0  0  0  0  0  0  0  0  0
   -6.0398   10.4406  -31.0909 C   0  0  0  0  0  0  0  0  0  0  0  0
   -7.2402   10.1050  -29.0333 O   0  0  0  0  0  0  0  0  0  0  0  0
   -3.3968   12.8173  -31.8678 F   0  0  0  0  0  0  0  0  0  0  0  0
   -7.0067    9.0656  -31.9664 Br  0  0  0  0  0  0  0  0  0  0  0  0
   -5.7555   12.0372  -28.0986 H   0  0  0  0  0  0  0  0  0  0  0  0
   -4.0218   13.2653  -29.3674 H   0  0  0  0  0  0  0  0  0  0  0  0
   -4.8509   10.8964  -32.8433 H   0  0  0  0  0  0  0  0  0  0  0  0
   -7.6674    9.4274  -29.5799 H   0  0  0  0  0  0  0  0  0  0  0  0
  1  2  1  0  0  0  0
  1  4  2  0  0  0  0
  2  5  2  0  0  0  0
  3  5  1  0  0  0  0
  3  6  2  0  0  0  0
  4  6  1  0  0  0  0
  4  7  1  0  0  0  0
  5  8  1  0  0  0  0
  6  9  1  0  0  0  0
  1 10  1  0  0  0  0
  2 11  1  0  0  0  0
  3 12  1  0  0  0  0
  7 13  1  0  0  0  0
M  END
> <id>
EN300-21341

> <smiles>
OC=1C=CC(F)=CC1Br

> <MDLNUMBER>
MFCD00010614

> <IUPAC Name>
2-bromo-4-fluorophenol

> <CAS>
496-69-5

> <Purity>
95

> <URL>
https://www.enaminestore.com/catalog/EN300-21341

> <MP>
43-45

> <ROCS_ShapeQuery>
_x1604L0AP1_x0771L0AP1

> <ROCS_TanimotoCombo>
1.006 

> <ROCS_ShapeTanimoto>
0.453 

> <ROCS_ColorTanimoto>
0.553 

> <ROCS_RefTversky>
0.395 

> <ROCS_RefColorTversky>
0.518 

> <ROCS_RefTverskyCombo>
0.913 

> <ROCS_FitTversky>
1.478 

> <ROCS_FitColorTversky>
1.139 

> <ROCS_FitTverskyCombo>
2.616 

> <ROCS_ColorScore>
-4.879

> <ROCS_Overlap>
658.808

> <ROCS_Rank>
96                  

$$$$
untitled-dbase-25_0
  -OEChem-06052310023D

 13 13  0     0  0  0  0  0  0999 V2000
   -5.5642   11.7781  -29.1370 C   0  0  0  0  0  0  0  0  0  0  0  0
   -4.5845   12.4692  -29.8497 C   0  0  0  0  0  0  0  0  0  0  0  0
   -5.0594   11.1286  -31.8027 C   0  0  0  0  0  0  0  0  0  0  0  0
   -6.2916   10.7621  -29.7571 C   0  0  0  0  0  0  0  0  0  0  0  0
   -4.3321   12.1445  -31.1826 C   0  0  0  0  0  0  0  0  0  0  0  0
   -6.0392   10.4374  -31.0900 C   0  0  0  0  0  0  0  0  0  0  0  0
   -7.2420   10.1061  -29.0328 O   0  0  0  0  0  0  0  0  0  0  0  0
   -3.1230   12.9979  -32.0610 Cl  0  0  0  0  0  0  0  0  0  0  0  0
   -7.0081    9.0630  -31.9645 Br  0  0  0  0  0  0  0  0  0  0  0  0
   -5.7555   12.0365  -28.0989 H   0  0  0  0  0  0  0  0  0  0  0  0
   -4.0255   13.2585  -29.3535 H   0  0  0  0  0  0  0  0  0  0  0  0
   -4.8597   10.8782  -32.8424 H   0  0  0  0  0  0  0  0  0  0  0  0
   -7.6702    9.4288  -29.5790 H   0  0  0  0  0  0  0  0  0  0  0  0
  1  2  1  0  0  0  0
  1  4  2  0  0  0  0
  2  5  2  0  0  0  0
  3  5  1  0  0  0  0
  3  6  2  0  0  0  0
  4  6  1  0  0  0  0
  4  7  1  0  0  0  0
  5  8  1  0  0  0  0
  6  9  1  0  0  0  0
  1 10  1  0  0  0  0
  2 11  1  0  0  0  0
  3 12  1  0  0  0  0
  7 13  1  0  0  0  0
M  END
> <id>
EN300-21340

> <smiles>
OC=1C=CC(Cl)=CC1Br

> <MDLNUMBER>
MFCD00002319

> <IUPAC Name>
2-bromo-4-chlorophenol

> <CAS>
695-96-5

> <Purity>
95

> <URL>
https://www.enaminestore.com/catalog/EN300-21340

> <MP>
34-36

> <ROCS_ShapeQuery>
_x1604L0AP1_x0771L0AP1

> <ROCS_TanimotoCombo>
1.006 

> <ROCS_ShapeTanimoto>
0.453 

> <ROCS_ColorTanimoto>
0.553 

> <ROCS_RefTversky>
0.393 

> <ROCS_RefColorTversky>
0.518 

> <ROCS_RefTverskyCombo>
0.911 

> <ROCS_FitTversky>
1.506 

> <ROCS_FitColorTversky>
1.139 

> <ROCS_FitTverskyCombo>
2.645 

> <ROCS_ColorScore>
-4.879

> <ROCS_Overlap>
655.050

> <ROCS_Rank>
97                  

$$$$
untitled-dbase-101_0
  -OEChem-06052310023D

 13 13  0     0  0  0  0  0  0999 V2000
   -4.3452   12.1492  -31.2086 C   0  0  0  0  0  0  0  0  0  0  0  0
   -5.0726   11.1284  -31.8204 C   0  0  0  0  0  0  0  0  0  0  0  0
   -5.5643   11.7870  -29.1545 C   0  0  0  0  0  0  0  0  0  0  0  0
   -6.2918   10.7662  -29.7662 C   0  0  0  0  0  0  0  0  0  0  0  0
   -4.5910   12.4785  -29.8756 C   0  0  0  0  0  0  0  0  0  0  0  0
   -6.0460   10.4369  -31.0992 C   0  0  0  0  0  0  0  0  0  0  0  0
   -7.2357   10.1090  -29.0344 O   0  0  0  0  0  0  0  0  0  0  0  0
   -3.6930   13.7377  -29.1216 Cl  0  0  0  0  0  0  0  0  0  0  0  0
   -7.0148    9.0560  -31.9632 Br  0  0  0  0  0  0  0  0  0  0  0  0
   -3.5901   12.6801  -31.7829 H   0  0  0  0  0  0  0  0  0  0  0  0
   -4.8679   10.8862  -32.8601 H   0  0  0  0  0  0  0  0  0  0  0  0
   -5.7612   12.0386  -28.1149 H   0  0  0  0  0  0  0  0  0  0  0  0
   -7.6644    9.4283  -29.5759 H   0  0  0  0  0  0  0  0  0  0  0  0
  1  2  1  0  0  0  0
  1  5  2  0  0  0  0
  2  6  2  0  0  0  0
  3  4  2  0  0  0  0
  3  5  1  0  0  0  0
  4  6  1  0  0  0  0
  4  7  1  0  0  0  0
  5  8  1  0  0  0  0
  6  9  1  0  0  0  0
  1 10  1  0  0  0  0
  2 11  1  0  0  0  0
  3 12  1  0  0  0  0
  7 13  1  0  0  0  0
M  END
> <id>
EN300-126714

> <smiles>
OC=1C=C(Cl)C=CC1Br

> <MDLNUMBER>
MFCD00142870

> <IUPAC Name>
2-bromo-5-chlorophenol

> <CAS>
13659-23-9

> <Purity>
95

> <URL>
https://www.enaminestore.com/catalog/EN300-126714

> <MP>
63-65

> <ROCS_ShapeQuery>
_x1604L0AP1_x0771L0AP1

> <ROCS_TanimotoCombo>
1.006 

> <ROCS_ShapeTanimoto>
0.453 

> <ROCS_ColorTanimoto>
0.553 

> <ROCS_RefTversky>
0.393 

> <ROCS_RefColorTversky>
0.518 

> <ROCS_RefTverskyCombo>
0.911 

> <ROCS_FitTversky>
1.506 

> <ROCS_FitColorTversky>
1.138 

> <ROCS_FitTverskyCombo>
2.645 

> <ROCS_ColorScore>
-4.878

> <ROCS_Overlap>
655.035

> <ROCS_Rank>
98                  

$$$$
untitled-dbase-298_29
  -OEChem-06052310023D

 18 18  0     0  0  0  0  0  0999 V2000
   -4.6077   12.4930  -29.8572 C   0  0  0  0  0  0  0  0  0  0  0  0
   -4.3580   12.1762  -31.1924 C   0  0  0  0  0  0  0  0  0  0  0  0
   -5.5764   11.7884  -29.1425 C   0  0  0  0  0  0  0  0  0  0  0  0
   -5.0771   11.1548  -31.8130 C   0  0  0  0  0  0  0  0  0  0  0  0
   -6.2955   10.7669  -29.7631 C   0  0  0  0  0  0  0  0  0  0  0  0
   -6.0459   10.4501  -31.0984 C   0  0  0  0  0  0  0  0  0  0  0  0
   -4.7749   10.8681  -33.2104 C   0  0  0  0  0  0  0  0  0  0  0  0
   -5.8646   10.9726  -34.2666 C   0  0  0  0  0  0  0  0  0  0  0  0
   -3.6341   10.5158  -33.5604 O   0  0  0  0  0  0  0  0  0  0  0  0
   -7.2346   10.1005  -29.0329 O   0  0  0  0  0  0  0  0  0  0  0  0
   -7.0588   11.3478  -33.7328 F   0  0  0  0  0  0  0  0  0  0  0  0
   -6.0842    9.7776  -34.8744 F   0  0  0  0  0  0  0  0  0  0  0  0
   -7.0364    9.0528  -31.9303 Br  0  0  0  0  0  0  0  0  0  0  0  0
   -4.0482   13.2888  -29.3741 H   0  0  0  0  0  0  0  0  0  0  0  0
   -3.6001   12.7335  -31.7375 H   0  0  0  0  0  0  0  0  0  0  0  0
   -5.7662   12.0421  -28.1029 H   0  0  0  0  0  0  0  0  0  0  0  0
   -5.5872   11.7159  -35.0190 H   0  0  0  0  0  0  0  0  0  0  0  0
   -7.6597    9.4199  -29.5772 H   0  0  0  0  0  0  0  0  0  0  0  0
  1  2  2  0  0  0  0
  1  3  1  0  0  0  0
  2  4  1  0  0  0  0
  3  5  2  0  0  0  0
  4  6  2  0  0  0  0
  4  7  1  0  0  0  0
  5  6  1  0  0  0  0
  5 10  1  0  0  0  0
  6 13  1  0  0  0  0
  7  8  1  0  0  0  0
  7  9  2  0  0  0  0
  8 11  1  0  0  0  0
  8 12  1  0  0  0  0
  1 14  1  0  0  0  0
  2 15  1  0  0  0  0
  3 16  1  0  0  0  0
  8 17  1  0  0  0  0
 10 18  1  0  0  0  0
M  END
> <id>
EN300-1950773

> <smiles>
OC=1C=CC=C(C(=O)C(F)F)C1Br

> <IUPAC Name>
1-(2-bromo-3-hydroxyphenyl)-2,2-difluoroethan-1-one

> <CAS>
2229407-70-7

> <URL>
https://www.enaminestore.com/catalog/EN300-1950773

> <ROCS_ShapeQuery>
_x1604L0AP1_x0771L0AP1

> <ROCS_TanimotoCombo>
1.006 

> <ROCS_ShapeTanimoto>
0.508 

> <ROCS_ColorTanimoto>
0.497 

> <ROCS_RefTversky>
0.461 

> <ROCS_RefColorTversky>
0.516 

> <ROCS_RefTverskyCombo>
0.977 

> <ROCS_FitTversky>
1.252 

> <ROCS_FitColorTversky>
0.933 

> <ROCS_FitTverskyCombo>
2.185 

> <ROCS_ColorScore>
-4.882

> <ROCS_Overlap>
773.036

> <ROCS_Rank>
99                  

$$$$
untitled-dbase-710_44
  -OEChem-06052310023D

 24 24  0     0  0  0  0  0  0999 V2000
   -4.9733   11.2761  -31.7817 C   0  0  0  0  0  0  0  0  0  0  0  0
   -4.5983   12.5116  -29.7397 C   0  0  0  0  0  0  0  0  0  0  0  0
   -5.9556   10.5191  -31.1433 C   0  0  0  0  0  0  0  0  0  0  0  0
   -6.2593   10.7583  -29.8031 C   0  0  0  0  0  0  0  0  0  0  0  0
   -4.2946   12.2724  -31.0798 C   0  0  0  0  0  0  0  0  0  0  0  0
   -5.5807   11.7546  -29.1013 C   0  0  0  0  0  0  0  0  0  0  0  0
   -6.7066    8.0838  -34.0432 C   0  0  0  0  0  0  0  0  0  0  0  0
   -7.7832    8.5801  -34.9489 C   0  0  0  0  0  0  0  0  0  0  0  0
   -6.6764    9.4479  -31.9201 C   0  0  0  0  0  0  0  0  0  0  0  0
   -5.9850    9.1519  -33.2499 C   0  0  0  0  0  0  0  0  0  0  0  0
   -6.4645    6.8853  -33.9797 O   0  0  0  0  0  0  0  0  0  0  0  0
   -7.2229   10.0091  -29.1925 O   0  0  0  0  0  0  0  0  0  0  0  0
   -3.0823   13.2061  -31.8680 Cl  0  0  0  0  0  0  0  0  0  0  0  0
   -5.9652   12.1093  -27.2789 Br  0  0  0  0  0  0  0  0  0  0  0  0
   -4.7396   11.0867  -32.8273 H   0  0  0  0  0  0  0  0  0  0  0  0
   -4.0664   13.2891  -29.1958 H   0  0  0  0  0  0  0  0  0  0  0  0
   -7.4098    8.8205  -35.9567 H   0  0  0  0  0  0  0  0  0  0  0  0
   -8.5829    7.8381  -35.0994 H   0  0  0  0  0  0  0  0  0  0  0  0
   -8.2898    9.4921  -34.5971 H   0  0  0  0  0  0  0  0  0  0  0  0
   -6.7394    8.5353  -31.3132 H   0  0  0  0  0  0  0  0  0  0  0  0
   -7.7156    9.7570  -32.0923 H   0  0  0  0  0  0  0  0  0  0  0  0
   -4.9583    8.8094  -33.0744 H   0  0  0  0  0  0  0  0  0  0  0  0
   -5.9413   10.0590  -33.8645 H   0  0  0  0  0  0  0  0  0  0  0  0
   -7.3243   10.2860  -28.2693 H   0  0  0  0  0  0  0  0  0  0  0  0
  1  3  2  0  0  0  0
  1  5  1  0  0  0  0
  2  5  2  0  0  0  0
  2  6  1  0  0  0  0
  3  4  1  0  0  0  0
  3  9  1  0  0  0  0
  4  6  2  0  0  0  0
  4 12  1  0  0  0  0
  5 13  1  0  0  0  0
  6 14  1  0  0  0  0
  7  8  1  0  0  0  0
  7 10  1  0  0  0  0
  7 11  2  0  0  0  0
  9 10  1  0  0  0  0
  1 15  1  0  0  0  0
  2 16  1  0  0  0  0
  8 17  1  0  0  0  0
  8 18  1  0  0  0  0
  8 19  1  0  0  0  0
  9 20  1  0  0  0  0
  9 21  1  0  0  0  0
 10 22  1  0  0  0  0
 10 23  1  0  0  0  0
 12 24  1  0  0  0  0
M  END
> <id>
EN300-1922929

> <smiles>
CC(=O)CCC=1C=C(Cl)C=C(Br)C1O

> <IUPAC Name>
4-(3-bromo-5-chloro-2-hydroxyphenyl)butan-2-one

> <CAS>
2228260-04-4

> <URL>
https://www.enaminestore.com/catalog/EN300-1922929

> <ROCS_ShapeQuery>
_x1604L0AP1_x0771L0AP1

> <ROCS_TanimotoCombo>
1.006 

> <ROCS_ShapeTanimoto>
0.572 

> <ROCS_ColorTanimoto>
0.434 

> <ROCS_RefTversky>
0.501 

> <ROCS_RefColorTversky>
0.470 

> <ROCS_RefTverskyCombo>
0.971 

> <ROCS_FitTversky>
1.326 

> <ROCS_FitColorTversky>
0.850 

> <ROCS_FitTverskyCombo>
2.176 

> <ROCS_ColorScore>
-4.451

> <ROCS_Overlap>
840.438

> <ROCS_Rank>
100                 

$$$$
untitled-dbase-891_63
  -OEChem-06052310023D

 19 19  0     0  0  0  0  0  0999 V2000
   -4.5792   12.4742  -29.8762 C   0  0  0  0  0  0  0  0  0  0  0  0
   -5.0674   11.1211  -31.8173 C   0  0  0  0  0  0  0  0  0  0  0  0
   -5.5545   11.7881  -29.1526 C   0  0  0  0  0  0  0  0  0  0  0  0
   -6.2863   10.7685  -29.7613 C   0  0  0  0  0  0  0  0  0  0  0  0
   -4.3357   12.1407  -31.2086 C   0  0  0  0  0  0  0  0  0  0  0  0
   -6.0428   10.4350  -31.0937 C   0  0  0  0  0  0  0  0  0  0  0  0
   -5.7992   12.1612  -27.7273 C   0  0  0  0  0  0  0  0  0  0  0  0
   -3.7749   13.1822  -27.2412 N   0  0  0  0  0  0  0  0  0  0  0  0
   -7.2373   10.1067  -29.0401 O   0  0  0  0  0  0  0  0  0  0  0  0
   -5.1932   13.4190  -27.4597 O   0  0  0  0  0  0  0  0  0  0  0  0
   -3.1321   12.9878  -32.1011 Cl  0  0  0  0  0  0  0  0  0  0  0  0
   -7.0167    9.0555  -31.9557 Br  0  0  0  0  0  0  0  0  0  0  0  0
   -4.0103   13.2686  -29.3976 H   0  0  0  0  0  0  0  0  0  0  0  0
   -4.8748   10.8644  -32.8566 H   0  0  0  0  0  0  0  0  0  0  0  0
   -6.8735   12.2350  -27.5132 H   0  0  0  0  0  0  0  0  0  0  0  0
   -5.3768   11.4119  -27.0451 H   0  0  0  0  0  0  0  0  0  0  0  0
   -3.6530   13.6171  -26.3278 H   0  0  0  0  0  0  0  0  0  0  0  0
   -3.3727   13.8225  -27.9240 H   0  0  0  0  0  0  0  0  0  0  0  0
   -7.6607    9.4300  -29.5899 H   0  0  0  0  0  0  0  0  0  0  0  0
  1  3  2  0  0  0  0
  1  5  1  0  0  0  0
  2  5  2  0  0  0  0
  2  6  1  0  0  0  0
  3  4  1  0  0  0  0
  3  7  1  0  0  0  0
  4  6  2  0  0  0  0
  4  9  1  0  0  0  0
  5 11  1  0  0  0  0
  6 12  1  0  0  0  0
  7 10  1  0  0  0  0
  8 10  1  0  0  0  0
  1 13  1  0  0  0  0
  2 14  1  0  0  0  0
  7 15  1  0  0  0  0
  7 16  1  0  0  0  0
  8 17  1  0  0  0  0
  8 18  1  0  0  0  0
  9 19  1  0  0  0  0
M  END
> <id>
EN300-1922561

> <smiles>
NOCC=1C=C(Cl)C=C(Br)C1O

> <IUPAC Name>
2-[(aminooxy)methyl]-6-bromo-4-chlorophenol

> <CAS>
2229516-41-8

> <URL>
https://www.enaminestore.com/catalog/EN300-1922561

> <ROCS_ShapeQuery>
_x1604L0AP1_x0771L0AP1

> <ROCS_TanimotoCombo>
1.006 

> <ROCS_ShapeTanimoto>
0.452 

> <ROCS_ColorTanimoto>
0.553 

> <ROCS_RefTversky>
0.415 

> <ROCS_RefColorTversky>
0.518 

> <ROCS_RefTverskyCombo>
0.933 

> <ROCS_FitTversky>
1.249 

> <ROCS_FitColorTversky>
1.139 

> <ROCS_FitTverskyCombo>
2.388 

> <ROCS_ColorScore>
-4.881

> <ROCS_Overlap>
693.898

> <ROCS_Rank>
101                 

$$$$
untitled-dbase-394_0
  -OEChem-06052310023D

 16 16  0     0  0  0  0  0  0999 V2000
   -4.6060   12.4938  -29.8522 C   0  0  0  0  0  0  0  0  0  0  0  0
   -4.3540   12.1785  -31.1874 C   0  0  0  0  0  0  0  0  0  0  0  0
   -5.5760   11.7884  -29.1401 C   0  0  0  0  0  0  0  0  0  0  0  0
   -5.0720   11.1579  -31.8105 C   0  0  0  0  0  0  0  0  0  0  0  0
   -6.2940   10.7677  -29.7632 C   0  0  0  0  0  0  0  0  0  0  0  0
   -6.0421   10.4524  -31.0984 C   0  0  0  0  0  0  0  0  0  0  0  0
   -4.7645   10.8592  -33.2426 C   0  0  0  0  0  0  0  0  0  0  0  0
   -7.2347   10.1006  -29.0357 O   0  0  0  0  0  0  0  0  0  0  0  0
   -6.0431   11.4923  -34.3015 Cl  0  0  0  0  0  0  0  0  0  0  0  0
   -7.0277    9.0577  -31.9376 Br  0  0  0  0  0  0  0  0  0  0  0  0
   -4.0472   13.2889  -29.3672 H   0  0  0  0  0  0  0  0  0  0  0  0
   -3.5959   12.7349  -31.7328 H   0  0  0  0  0  0  0  0  0  0  0  0
   -5.7670   12.0403  -28.1003 H   0  0  0  0  0  0  0  0  0  0  0  0
   -4.6819    9.7793  -33.4160 H   0  0  0  0  0  0  0  0  0  0  0  0
   -3.8132   11.3110  -33.5490 H   0  0  0  0  0  0  0  0  0  0  0  0
   -7.6587    9.4206  -29.5816 H   0  0  0  0  0  0  0  0  0  0  0  0
  1  2  2  0  0  0  0
  1  3  1  0  0  0  0
  2  4  1  0  0  0  0
  3  5  2  0  0  0  0
  4  6  2  0  0  0  0
  4  7  1  0  0  0  0
  5  6  1  0  0  0  0
  5  8  1  0  0  0  0
  6 10  1  0  0  0  0
  7  9  1  0  0  0  0
  1 11  1  0  0  0  0
  2 12  1  0  0  0  0
  3 13  1  0  0  0  0
  7 14  1  0  0  0  0
  7 15  1  0  0  0  0
  8 16  1  0  0  0  0
M  END
> <id>
EN300-1915319

> <smiles>
OC=1C=CC=C(CCl)C1Br

> <MDLNUMBER>
MFCD11520913

> <IUPAC Name>
2-bromo-3-(chloromethyl)phenol

> <CAS>
1260674-44-9

> <Purity>
95

> <URL>
https://www.enaminestore.com/catalog/EN300-1915319

> <ROCS_ShapeQuery>
_x1604L0AP1_x0771L0AP1

> <ROCS_TanimotoCombo>
1.006 

> <ROCS_ShapeTanimoto>
0.452 

> <ROCS_ColorTanimoto>
0.554 

> <ROCS_RefTversky>
0.399 

> <ROCS_RefColorTversky>
0.519 

> <ROCS_RefTverskyCombo>
0.918 

> <ROCS_FitTversky>
1.408 

> <ROCS_FitColorTversky>
1.139 

> <ROCS_FitTverskyCombo>
2.548 

> <ROCS_ColorScore>
-4.883

> <ROCS_Overlap>
666.553

> <ROCS_Rank>
102                 

$$$$
untitled-dbase-1317_1
  -OEChem-06052310023D

 16 16  0     0  0  0  0  0  0999 V2000
   -4.6055   12.4941  -29.8370 C   0  0  0  0  0  0  0  0  0  0  0  0
   -5.5781   11.7854  -29.1318 C   0  0  0  0  0  0  0  0  0  0  0  0
   -4.3482   12.1847  -31.1726 C   0  0  0  0  0  0  0  0  0  0  0  0
   -6.2935   10.7673  -29.7621 C   0  0  0  0  0  0  0  0  0  0  0  0
   -5.0636   11.1665  -31.8030 C   0  0  0  0  0  0  0  0  0  0  0  0
   -6.0362   10.4578  -31.0977 C   0  0  0  0  0  0  0  0  0  0  0  0
   -3.6034   11.7048  -33.8989 O   0  0  0  0  0  0  0  0  0  0  0  0
   -4.6623    9.4047  -33.7092 O   0  0  0  0  0  0  0  0  0  0  0  0
   -7.2363   10.0979  -29.0392 O   0  0  0  0  0  0  0  0  0  0  0  0
   -4.6849   10.8354  -33.4827 S   0  0  0  0  0  0  0  0  0  0  0  0
   -6.3620   11.5047  -34.4435 Cl  0  0  0  0  0  0  0  0  0  0  0  0
   -7.0314    9.0632  -31.9304 Br  0  0  0  0  0  0  0  0  0  0  0  0
   -4.0483   13.2871  -29.3463 H   0  0  0  0  0  0  0  0  0  0  0  0
   -5.7733   12.0326  -28.0917 H   0  0  0  0  0  0  0  0  0  0  0  0
   -3.5876   12.7454  -31.7093 H   0  0  0  0  0  0  0  0  0  0  0  0
   -7.6589    9.4198  -29.5885 H   0  0  0  0  0  0  0  0  0  0  0  0
  1  2  1  0  0  0  0
  1  3  2  0  0  0  0
  2  4  2  0  0  0  0
  3  5  1  0  0  0  0
  4  6  1  0  0  0  0
  4  9  1  0  0  0  0
  5  6  2  0  0  0  0
  5 10  1  0  0  0  0
  6 12  1  0  0  0  0
  7 10  2  0  0  0  0
  8 10  2  0  0  0  0
 10 11  1  0  0  0  0
  1 13  1  0  0  0  0
  2 14  1  0  0  0  0
  3 15  1  0  0  0  0
  9 16  1  0  0  0  0
M  END
> <id>
EN300-6493319

> <smiles>
OC=1C=CC=C(C1Br)S(=O)(=O)Cl

> <MDLNUMBER>
MFCD18391414

> <IUPAC Name>
2-bromo-3-hydroxybenzene-1-sulfonyl chloride

> <CAS>
1261438-45-2

> <URL>
https://www.enaminestore.com/catalog/EN300-6493319

> <ROCS_ShapeQuery>
_x1604L0AP1_x0771L0AP1

> <ROCS_TanimotoCombo>
1.005 

> <ROCS_ShapeTanimoto>
0.451 

> <ROCS_ColorTanimoto>
0.554 

> <ROCS_RefTversky>
0.412 

> <ROCS_RefColorTversky>
0.519 

> <ROCS_RefTverskyCombo>
0.931 

> <ROCS_FitTversky>
1.266 

> <ROCS_FitColorTversky>
1.140 

> <ROCS_FitTverskyCombo>
2.406 

> <ROCS_ColorScore>
-4.884

> <ROCS_Overlap>
689.385

> <ROCS_Rank>
103                 

$$$$
untitled-dbase-1055_59
  -OEChem-06052310023D

 25 25  0     1  0  0  0  0  0999 V2000
   -4.2170   12.4498  -30.8348 C   0  0  0  0  0  0  0  0  0  0  0  0
   -5.1740   11.8425  -31.6477 C   0  0  0  0  0  0  0  0  0  0  0  0
   -4.2587   12.2672  -29.4525 C   0  0  0  0  0  0  0  0  0  0  0  0
   -6.1729   11.0527  -31.0784 C   0  0  0  0  0  0  0  0  0  0  0  0
   -6.2146   10.8701  -29.6961 C   0  0  0  0  0  0  0  0  0  0  0  0
   -5.2576   11.4774  -28.8832 C   0  0  0  0  0  0  0  0  0  0  0  0
   -7.2135    8.8802  -31.8052 C   0  0  0  0  0  0  0  0  0  0  0  0
   -6.9970   10.7735  -33.4572 C   0  0  0  0  0  0  0  0  0  0  0  0
   -7.1882   10.4127  -31.9670 C   0  0  2  0  0  0  0  0  0  0  0  0
   -5.7932   10.3584  -35.3951 N   0  0  0  0  0  0  0  0  0  0  0  0
   -7.1990   10.0959  -29.1539 O   0  0  0  0  0  0  0  0  0  0  0  0
   -5.9392    9.9887  -33.9966 O   0  0  0  0  0  0  0  0  0  0  0  0
   -5.2795   11.2530  -27.0009 Br  0  0  0  0  0  0  0  0  0  0  0  0
   -3.4389   13.0644  -31.2781 H   0  0  0  0  0  0  0  0  0  0  0  0
   -5.1326   11.9880  -32.7239 H   0  0  0  0  0  0  0  0  0  0  0  0
   -3.5040   12.7481  -28.8352 H   0  0  0  0  0  0  0  0  0  0  0  0
   -6.2470    8.4335  -32.0630 H   0  0  0  0  0  0  0  0  0  0  0  0
   -7.4502    8.5873  -30.7766 H   0  0  0  0  0  0  0  0  0  0  0  0
   -7.9714    8.4385  -32.4618 H   0  0  0  0  0  0  0  0  0  0  0  0
   -6.7231   11.8272  -33.5783 H   0  0  0  0  0  0  0  0  0  0  0  0
   -7.9042   10.5851  -34.0406 H   0  0  0  0  0  0  0  0  0  0  0  0
   -8.1979   10.7706  -31.6867 H   0  0  0  0  0  0  0  0  0  0  0  0
   -5.8780    9.4445  -35.8375 H   0  0  0  0  0  0  0  0  0  0  0  0
   -4.8045   10.6027  -35.4195 H   0  0  0  0  0  0  0  0  0  0  0  0
   -7.1016   10.0605  -28.1902 H   0  0  0  0  0  0  0  0  0  0  0  0
  1  2  1  0  0  0  0
  1  3  2  0  0  0  0
  2  4  2  0  0  0  0
  3  6  1  0  0  0  0
  4  5  1  0  0  0  0
  4  9  1  0  0  0  0
  5  6  2  0  0  0  0
  5 11  1  0  0  0  0
  6 13  1  0  0  0  0
  7  9  1  0  0  0  0
  8  9  1  0  0  0  0
  8 12  1  0  0  0  0
 10 12  1  0  0  0  0
  1 14  1  0  0  0  0
  2 15  1  0  0  0  0
  3 16  1  0  0  0  0
  7 17  1  0  0  0  0
  7 18  1  0  0  0  0
  7 19  1  0  0  0  0
  8 20  1  0  0  0  0
  8 21  1  0  0  0  0
  9 22  1  0  0  0  0
 10 23  1  0  0  0  0
 10 24  1  0  0  0  0
 11 25  1  0  0  0  0
M  END
> <id>
EN300-1923144

> <smiles>
CC(CON)C=1C=CC=C(Br)C1O

> <IUPAC Name>
2-[1-(aminooxy)propan-2-yl]-6-bromophenol

> <CAS>
2228480-13-3

> <URL>
https://www.enaminestore.com/catalog/EN300-1923144

> <ROCS_ShapeQuery>
_x1604L0AP1_x0771L0AP1

> <ROCS_TanimotoCombo>
1.005 

> <ROCS_ShapeTanimoto>
0.532 

> <ROCS_ColorTanimoto>
0.473 

> <ROCS_RefTversky>
0.471 

> <ROCS_RefColorTversky>
0.498 

> <ROCS_RefTverskyCombo>
0.970 

> <ROCS_FitTversky>
1.321 

> <ROCS_FitColorTversky>
0.901 

> <ROCS_FitTverskyCombo>
2.222 

> <ROCS_ColorScore>
-4.718

> <ROCS_Overlap>
789.773

> <ROCS_Rank>
104                 

$$$$
untitled-dbase-1947_210
  -OEChem-06052310023D

 31 32  0     0  0  0  0  0  0999 V2000
   -4.4248   11.3678  -31.9234 C   0  0  0  0  0  0  0  0  0  0  0  0
   -4.2775   11.7400  -30.5873 C   0  0  0  0  0  0  0  0  0  0  0  0
   -5.5000   10.5677  -32.3102 C   0  0  0  0  0  0  0  0  0  0  0  0
   -5.2054   11.3121  -29.6378 C   0  0  0  0  0  0  0  0  0  0  0  0
   -6.2806   10.5120  -30.0245 C   0  0  0  0  0  0  0  0  0  0  0  0
   -6.4279   10.1398  -31.3607 C   0  0  0  0  0  0  0  0  0  0  0  0
   -3.6677    8.5382  -34.1524 C   0  0  0  0  0  0  0  0  0  0  0  0
   -4.4172    8.0597  -32.9418 C   0  0  0  0  0  0  0  0  0  0  0  0
   -5.1537    8.7879  -34.0418 C   0  0  0  0  0  0  0  0  0  0  0  0
   -3.9214   12.5024  -28.0283 C   0  0  0  0  0  0  0  0  0  0  0  0
   -5.6143   10.1938  -33.7714 C   0  0  0  0  0  0  0  0  0  0  0  0
   -6.0709    7.9881  -34.9255 C   0  0  0  0  0  0  0  0  0  0  0  0
   -7.1753   10.1063  -29.0771 O   0  0  0  0  0  0  0  0  0  0  0  0
   -6.2533    6.6921  -34.3671 O   0  0  0  0  0  0  0  0  0  0  0  0
   -5.0480   11.6840  -28.3366 O   0  0  0  0  0  0  0  0  0  0  0  0
   -7.9031    9.0555  -31.8812 Br  0  0  0  0  0  0  0  0  0  0  0  0
   -3.6961   11.7072  -32.6550 H   0  0  0  0  0  0  0  0  0  0  0  0
   -3.4383   12.3643  -30.2931 H   0  0  0  0  0  0  0  0  0  0  0  0
   -2.9901    9.3743  -34.0263 H   0  0  0  0  0  0  0  0  0  0  0  0
   -3.3175    7.7912  -34.8549 H   0  0  0  0  0  0  0  0  0  0  0  0
   -4.5688    6.9922  -32.8338 H   0  0  0  0  0  0  0  0  0  0  0  0
   -4.2414    8.5753  -32.0051 H   0  0  0  0  0  0  0  0  0  0  0  0
   -3.9144   12.7261  -26.9588 H   0  0  0  0  0  0  0  0  0  0  0  0
   -3.9747   13.4293  -28.6050 H   0  0  0  0  0  0  0  0  0  0  0  0
   -3.0081   11.9638  -28.2916 H   0  0  0  0  0  0  0  0  0  0  0  0
   -6.6604   10.3274  -34.0933 H   0  0  0  0  0  0  0  0  0  0  0  0
   -5.0330   10.9140  -34.3708 H   0  0  0  0  0  0  0  0  0  0  0  0
   -5.6477    7.8745  -35.9319 H   0  0  0  0  0  0  0  0  0  0  0  0
   -7.0537    8.4691  -35.0111 H   0  0  0  0  0  0  0  0  0  0  0  0
   -6.9213   10.4545  -28.2089 H   0  0  0  0  0  0  0  0  0  0  0  0
   -6.6443    6.8201  -33.4882 H   0  0  0  0  0  0  0  0  0  0  0  0
  1  2  1  0  0  0  0
  1  3  2  0  0  0  0
  2  4  2  0  0  0  0
  3  6  1  0  0  0  0
  3 11  1  0  0  0  0
  4  5  1  0  0  0  0
  4 15  1  0  0  0  0
  5  6  2  0  0  0  0
  5 13  1  0  0  0  0
  6 16  1  0  0  0  0
  7  8  1  0  0  0  0
  7  9  1  0  0  0  0
  8  9  1  0  0  0  0
  9 11  1  0  0  0  0
  9 12  1  0  0  0  0
 10 15  1  0  0  0  0
 12 14  1  0  0  0  0
  1 17  1  0  0  0  0
  2 18  1  0  0  0  0
  7 19  1  0  0  0  0
  7 20  1  0  0  0  0
  8 21  1  0  0  0  0
  8 22  1  0  0  0  0
 10 23  1  0  0  0  0
 10 24  1  0  0  0  0
 10 25  1  0  0  0  0
 11 26  1  0  0  0  0
 11 27  1  0  0  0  0
 12 28  1  0  0  0  0
 12 29  1  0  0  0  0
 13 30  1  0  0  0  0
 14 31  1  0  0  0  0
M  END
> <id>
EN300-1936266

> <smiles>
COC=1C=CC(CC2(CO)CC2)=C(Br)C1O

> <IUPAC Name>
2-bromo-3-{[1-(hydroxymethyl)cyclopropyl]methyl}-6-methoxyphenol

> <CAS>
2228438-36-4

> <URL>
https://www.enaminestore.com/catalog/EN300-1936266

> <ROCS_ShapeQuery>
_x1604L0AP1_x0771L0AP1

> <ROCS_TanimotoCombo>
1.004 

> <ROCS_ShapeTanimoto>
0.473 

> <ROCS_ColorTanimoto>
0.532 

> <ROCS_RefTversky>
0.462 

> <ROCS_RefColorTversky>
0.606 

> <ROCS_RefTverskyCombo>
1.068 

> <ROCS_FitTversky>
1.053 

> <ROCS_FitColorTversky>
0.813 

> <ROCS_FitTverskyCombo>
1.866 

> <ROCS_ColorScore>
-5.799

> <ROCS_Overlap>
776.545

> <ROCS_Rank>
105                 

$$$$
untitled-dbase-1285_41
  -OEChem-06052310023D

 20 20  0     0  0  0  0  0  0999 V2000
   -4.5686   12.4632  -29.8666 C   0  0  0  0  0  0  0  0  0  0  0  0
   -5.0591   11.1153  -31.8108 C   0  0  0  0  0  0  0  0  0  0  0  0
   -5.5487   11.7807  -29.1461 C   0  0  0  0  0  0  0  0  0  0  0  0
   -6.2840   10.7655  -29.7579 C   0  0  0  0  0  0  0  0  0  0  0  0
   -4.3238   12.1306  -31.1990 C   0  0  0  0  0  0  0  0  0  0  0  0
   -6.0393   10.4328  -31.0903 C   0  0  0  0  0  0  0  0  0  0  0  0
   -5.7947   12.1528  -27.7208 C   0  0  0  0  0  0  0  0  0  0  0  0
   -5.0912   13.4377  -27.2559 C   0  0  0  0  0  0  0  0  0  0  0  0
   -7.2397   10.1071  -29.0397 O   0  0  0  0  0  0  0  0  0  0  0  0
   -5.6151   14.9006  -28.2026 S   0  0  0  0  0  0  0  0  0  0  0  0
   -3.1144   12.9732  -32.0877 Cl  0  0  0  0  0  0  0  0  0  0  0  0
   -7.0179    9.0592  -31.9565 Br  0  0  0  0  0  0  0  0  0  0  0  0
   -3.9969   13.2541  -29.3857 H   0  0  0  0  0  0  0  0  0  0  0  0
   -4.8655   10.8593  -32.8501 H   0  0  0  0  0  0  0  0  0  0  0  0
   -6.8751   12.2312  -27.5106 H   0  0  0  0  0  0  0  0  0  0  0  0
   -5.4463   11.3245  -27.0809 H   0  0  0  0  0  0  0  0  0  0  0  0
   -5.3293   13.6282  -26.2043 H   0  0  0  0  0  0  0  0  0  0  0  0
   -4.0035   13.3440  -27.3361 H   0  0  0  0  0  0  0  0  0  0  0  0
   -7.6652    9.4333  -29.5914 H   0  0  0  0  0  0  0  0  0  0  0  0
   -6.9115   14.8191  -27.8757 H   0  0  0  0  0  0  0  0  0  0  0  0
  1  3  2  0  0  0  0
  1  5  1  0  0  0  0
  2  5  2  0  0  0  0
  2  6  1  0  0  0  0
  3  4  1  0  0  0  0
  3  7  1  0  0  0  0
  4  6  2  0  0  0  0
  4  9  1  0  0  0  0
  5 11  1  0  0  0  0
  6 12  1  0  0  0  0
  7  8  1  0  0  0  0
  8 10  1  0  0  0  0
  1 13  1  0  0  0  0
  2 14  1  0  0  0  0
  7 15  1  0  0  0  0
  7 16  1  0  0  0  0
  8 17  1  0  0  0  0
  8 18  1  0  0  0  0
  9 19  1  0  0  0  0
 10 20  1  0  0  0  0
M  END
> <id>
EN300-1922923

> <smiles>
OC=1C(Br)=CC(Cl)=CC1CCS

> <IUPAC Name>
2-bromo-4-chloro-6-(2-sulfanylethyl)phenol

> <CAS>
2229491-54-5

> <URL>
https://www.enaminestore.com/catalog/EN300-1922923

> <ROCS_ShapeQuery>
_x1604L0AP1_x0771L0AP1

> <ROCS_TanimotoCombo>
1.004 

> <ROCS_ShapeTanimoto>
0.451 

> <ROCS_ColorTanimoto>
0.553 

> <ROCS_RefTversky>
0.412 

> <ROCS_RefColorTversky>
0.518 

> <ROCS_RefTverskyCombo>
0.930 

> <ROCS_FitTversky>
1.267 

> <ROCS_FitColorTversky>
1.139 

> <ROCS_FitTverskyCombo>
2.406 

> <ROCS_ColorScore>
-4.881

> <ROCS_Overlap>
688.151

> <ROCS_Rank>
106                 

$$$$
untitled-dbase-740_1
  -OEChem-06052310023D

 19 19  0     0  0  0  0  0  0999 V2000
   -4.9634   11.1201  -31.8025 C   0  0  0  0  0  0  0  0  0  0  0  0
   -4.6399   12.5299  -29.8674 C   0  0  0  0  0  0  0  0  0  0  0  0
   -5.9434   10.4030  -31.1163 C   0  0  0  0  0  0  0  0  0  0  0  0
   -6.2716   10.7493  -29.8056 C   0  0  0  0  0  0  0  0  0  0  0  0
   -4.3116   12.1836  -31.1781 C   0  0  0  0  0  0  0  0  0  0  0  0
   -5.6199   11.8128  -29.1811 C   0  0  0  0  0  0  0  0  0  0  0  0
   -6.6072    9.2969  -31.7941 C   0  0  0  0  0  0  0  0  0  0  0  0
   -6.0600    8.5350  -32.7631 C   0  0  0  0  0  0  0  0  0  0  0  0
   -6.8597    7.4509  -33.3682 C   0  0  0  0  0  0  0  0  0  0  0  0
   -6.4103    6.7302  -34.2511 O   0  0  0  0  0  0  0  0  0  0  0  0
   -7.2320   10.0433  -29.1384 O   0  0  0  0  0  0  0  0  0  0  0  0
   -3.1024   13.0685  -32.0249 Cl  0  0  0  0  0  0  0  0  0  0  0  0
   -6.0372   12.3150  -27.4008 Br  0  0  0  0  0  0  0  0  0  0  0  0
   -4.7055   10.8525  -32.8254 H   0  0  0  0  0  0  0  0  0  0  0  0
   -4.1287   13.3600  -29.3838 H   0  0  0  0  0  0  0  0  0  0  0  0
   -7.6401    9.0950  -31.4909 H   0  0  0  0  0  0  0  0  0  0  0  0
   -5.0539    8.6804  -33.1370 H   0  0  0  0  0  0  0  0  0  0  0  0
   -7.8848    7.3242  -32.9820 H   0  0  0  0  0  0  0  0  0  0  0  0
   -7.3460   10.4012  -28.2453 H   0  0  0  0  0  0  0  0  0  0  0  0
  1  3  2  0  0  0  0
  1  5  1  0  0  0  0
  2  5  2  0  0  0  0
  2  6  1  0  0  0  0
  3  4  1  0  0  0  0
  3  7  1  0  0  0  0
  4  6  2  0  0  0  0
  4 11  1  0  0  0  0
  5 12  1  0  0  0  0
  6 13  1  0  0  0  0
  7  8  2  3  0  0  0
  8  9  1  0  0  0  0
  9 10  2  0  0  0  0
  1 14  1  0  0  0  0
  2 15  1  0  0  0  0
  7 16  1  0  0  0  0
  8 17  1  0  0  0  0
  9 18  1  0  0  0  0
 11 19  1  0  0  0  0
M  END
> <id>
EN300-1894111

> <smiles>
OC=1C(Br)=CC(Cl)=CC1C=CC=O

> <IUPAC Name>
3-(3-bromo-5-chloro-2-hydroxyphenyl)prop-2-enal

> <CAS>
1216325-94-8

> <URL>
https://www.enaminestore.com/catalog/EN300-1894111

> <ROCS_ShapeQuery>
_x1604L0AP1_x0771L0AP1

> <ROCS_TanimotoCombo>
1.003 

> <ROCS_ShapeTanimoto>
0.528 

> <ROCS_ColorTanimoto>
0.476 

> <ROCS_RefTversky>
0.469 

> <ROCS_RefColorTversky>
0.501 

> <ROCS_RefTverskyCombo>
0.970 

> <ROCS_FitTversky>
1.312 

> <ROCS_FitColorTversky>
0.905 

> <ROCS_FitTverskyCombo>
2.217 

> <ROCS_ColorScore>
-4.740

> <ROCS_Overlap>
785.248

> <ROCS_Rank>
107                 

$$$$
untitled-dbase-1289_326
  -OEChem-06052310023D

 31 31  0     0  0  0  0  0  0999 V2000
   -4.3150   12.2643  -31.0845 C   0  0  0  0  0  0  0  0  0  0  0  0
   -5.2454   11.5052  -31.7944 C   0  0  0  0  0  0  0  0  0  0  0  0
   -4.3612   12.2993  -29.6908 C   0  0  0  0  0  0  0  0  0  0  0  0
   -6.2220   10.7812  -31.1105 C   0  0  0  0  0  0  0  0  0  0  0  0
   -6.2683   10.8162  -29.7168 C   0  0  0  0  0  0  0  0  0  0  0  0
   -5.3379   11.5753  -29.0070 C   0  0  0  0  0  0  0  0  0  0  0  0
   -5.2891    8.5274  -35.1545 C   0  0  0  0  0  0  0  0  0  0  0  0
   -7.4249    7.7952  -36.2406 C   0  0  0  0  0  0  0  0  0  0  0  0
   -7.2143    9.9718  -31.8943 C   0  0  0  0  0  0  0  0  0  0  0  0
   -7.4072    8.5322  -33.8052 C   0  0  0  0  0  0  0  0  0  0  0  0
   -6.6343    7.8302  -34.9316 C   0  0  0  0  0  0  0  0  0  0  0  0
   -6.5617    8.9556  -32.7197 N   0  0  0  0  0  0  0  0  0  0  0  0
   -7.2307   10.1038  -29.0622 O   0  0  0  0  0  0  0  0  0  0  0  0
   -6.3687    6.4791  -34.5475 O   0  0  0  0  0  0  0  0  0  0  0  0
   -5.3667   11.6480  -27.1129 Br  0  0  0  0  0  0  0  0  0  0  0  0
   -3.5543   12.8277  -31.6169 H   0  0  0  0  0  0  0  0  0  0  0  0
   -5.2006   11.4817  -32.8799 H   0  0  0  0  0  0  0  0  0  0  0  0
   -3.6275   12.8961  -29.1549 H   0  0  0  0  0  0  0  0  0  0  0  0
   -4.7085    8.5614  -34.2255 H   0  0  0  0  0  0  0  0  0  0  0  0
   -4.6928    8.0185  -35.9189 H   0  0  0  0  0  0  0  0  0  0  0  0
   -5.4347    9.5685  -35.4652 H   0  0  0  0  0  0  0  0  0  0  0  0
   -8.3936    7.3006  -36.1090 H   0  0  0  0  0  0  0  0  0  0  0  0
   -6.8902    7.2143  -37.0012 H   0  0  0  0  0  0  0  0  0  0  0  0
   -7.5974    8.8024  -36.6339 H   0  0  0  0  0  0  0  0  0  0  0  0
   -7.9137    9.4624  -31.2224 H   0  0  0  0  0  0  0  0  0  0  0  0
   -7.8071   10.6111  -32.5569 H   0  0  0  0  0  0  0  0  0  0  0  0
   -7.8986    9.4380  -34.1768 H   0  0  0  0  0  0  0  0  0  0  0  0
   -8.1716    7.8718  -33.3820 H   0  0  0  0  0  0  0  0  0  0  0  0
   -6.3267    8.1555  -32.1230 H   0  0  0  0  0  0  0  0  0  0  0  0
   -7.1395   10.2231  -28.1047 H   0  0  0  0  0  0  0  0  0  0  0  0
   -5.8487    6.5255  -33.7317 H   0  0  0  0  0  0  0  0  0  0  0  0
  1  2  1  0  0  0  0
  1  3  2  0  0  0  0
  2  4  2  0  0  0  0
  3  6  1  0  0  0  0
  4  5  1  0  0  0  0
  4  9  1  0  0  0  0
  5  6  2  0  0  0  0
  5 13  1  0  0  0  0
  6 15  1  0  0  0  0
  7 11  1  0  0  0  0
  8 11  1  0  0  0  0
  9 12  1  0  0  0  0
 10 11  1  0  0  0  0
 10 12  1  0  0  0  0
 11 14  1  0  0  0  0
  1 16  1  0  0  0  0
  2 17  1  0  0  0  0
  3 18  1  0  0  0  0
  7 19  1  0  0  0  0
  7 20  1  0  0  0  0
  7 21  1  0  0  0  0
  8 22  1  0  0  0  0
  8 23  1  0  0  0  0
  8 24  1  0  0  0  0
  9 25  1  0  0  0  0
  9 26  1  0  0  0  0
 10 27  1  0  0  0  0
 10 28  1  0  0  0  0
 12 29  1  0  0  0  0
 13 30  1  0  0  0  0
 14 31  1  0  0  0  0
M  END
> <id>
EN300-161415

> <smiles>
CC(C)(O)CNCC=1C=CC=C(Br)C1O

> <MDLNUMBER>
MFCD21106561

> <IUPAC Name>
2-bromo-6-{[(2-hydroxy-2-methylpropyl)amino]methyl}phenol

> <CAS>
1479988-93-6

> <URL>
https://www.enaminestore.com/catalog/EN300-161415

> <ROCS_ShapeQuery>
_x1604L0AP1_x0771L0AP1

> <ROCS_TanimotoCombo>
1.003 

> <ROCS_ShapeTanimoto>
0.545 

> <ROCS_ColorTanimoto>
0.458 

> <ROCS_RefTversky>
0.495 

> <ROCS_RefColorTversky>
0.608 

> <ROCS_RefTverskyCombo>
1.103 

> <ROCS_FitTversky>
1.226 

> <ROCS_FitColorTversky>
0.650 

> <ROCS_FitTverskyCombo>
1.876 

> <ROCS_ColorScore>
-5.878

> <ROCS_Overlap>
831.909

> <ROCS_Rank>
108                 

$$$$
untitled-dbase-829_32
  -OEChem-06052310023D

 27 28  0     0  0  0  0  0  0999 V2000
   -6.7063   10.2393  -35.0003 C   0  0  0  0  0  0  0  0  0  0  0  0
   -6.6022   10.7201  -33.6951 C   0  0  0  0  0  0  0  0  0  0  0  0
   -6.6110    8.8700  -35.2488 C   0  0  0  0  0  0  0  0  0  0  0  0
   -6.4028    9.8318  -32.6384 C   0  0  0  0  0  0  0  0  0  0  0  0
   -6.4115    7.9816  -34.1920 C   0  0  0  0  0  0  0  0  0  0  0  0
   -6.3074    8.4625  -32.8868 C   0  0  0  0  0  0  0  0  0  0  0  0
   -4.4484   11.5314  -30.8765 C   0  0  0  0  0  0  0  0  0  0  0  0
   -4.9560   10.1736  -30.3597 C   0  0  0  0  0  0  0  0  0  0  0  0
   -5.9207   11.9586  -31.0113 C   0  0  0  0  0  0  0  0  0  0  0  0
   -6.2892   10.4371  -31.1489 C   0  0  0  0  0  0  0  0  0  0  0  0
   -7.5400   10.0504  -30.3562 C   0  0  0  0  0  0  0  0  0  0  0  0
   -6.3231    6.6504  -34.4732 O   0  0  0  0  0  0  0  0  0  0  0  0
   -7.2429   10.1539  -28.9775 O   0  0  0  0  0  0  0  0  0  0  0  0
   -6.0355    7.2454  -31.4510 Br  0  0  0  0  0  0  0  0  0  0  0  0
   -6.8616   10.9309  -35.8231 H   0  0  0  0  0  0  0  0  0  0  0  0
   -6.6778   11.7885  -33.5112 H   0  0  0  0  0  0  0  0  0  0  0  0
   -6.6930    8.5028  -36.2683 H   0  0  0  0  0  0  0  0  0  0  0  0
   -3.8851   12.1065  -30.1350 H   0  0  0  0  0  0  0  0  0  0  0  0
   -3.8786   11.4994  -31.8074 H   0  0  0  0  0  0  0  0  0  0  0  0
   -4.3757    9.3245  -30.7335 H   0  0  0  0  0  0  0  0  0  0  0  0
   -5.0451   10.0894  -29.2759 H   0  0  0  0  0  0  0  0  0  0  0  0
   -6.3372   12.4802  -30.1487 H   0  0  0  0  0  0  0  0  0  0  0  0
   -6.1184   12.5493  -31.9107 H   0  0  0  0  0  0  0  0  0  0  0  0
   -7.8211    9.0260  -30.5921 H   0  0  0  0  0  0  0  0  0  0  0  0
   -8.3552   10.7268  -30.6047 H   0  0  0  0  0  0  0  0  0  0  0  0
   -6.1854    6.1451  -33.6571 H   0  0  0  0  0  0  0  0  0  0  0  0
   -8.0477    9.9049  -28.4907 H   0  0  0  0  0  0  0  0  0  0  0  0
  1  2  1  0  0  0  0
  1  3  2  0  0  0  0
  2  4  2  0  0  0  0
  3  5  1  0  0  0  0
  4  6  1  0  0  0  0
  4 10  1  0  0  0  0
  5  6  2  0  0  0  0
  5 12  1  0  0  0  0
  6 14  1  0  0  0  0
  7  8  1  0  0  0  0
  7  9  1  0  0  0  0
  8 10  1  0  0  0  0
  9 10  1  0  0  0  0
 10 11  1  0  0  0  0
 11 13  1  0  0  0  0
  1 15  1  0  0  0  0
  2 16  1  0  0  0  0
  3 17  1  0  0  0  0
  7 18  1  0  0  0  0
  7 19  1  0  0  0  0
  8 20  1  0  0  0  0
  8 21  1  0  0  0  0
  9 22  1  0  0  0  0
  9 23  1  0  0  0  0
 11 24  1  0  0  0  0
 11 25  1  0  0  0  0
 12 26  1  0  0  0  0
 13 27  1  0  0  0  0
M  END
> <id>
EN300-1904568

> <smiles>
OCC1(CCC1)C=2C=CC=C(O)C2Br

> <IUPAC Name>
2-bromo-3-[1-(hydroxymethyl)cyclobutyl]phenol

> <CAS>
2229598-77-8

> <URL>
https://www.enaminestore.com/catalog/EN300-1904568

> <ROCS_ShapeQuery>
_x1604L0AP1_x0771L0AP1

> <ROCS_TanimotoCombo>
1.003 

> <ROCS_ShapeTanimoto>
0.502 

> <ROCS_ColorTanimoto>
0.501 

> <ROCS_RefTversky>
0.464 

> <ROCS_RefColorTversky>
0.583 

> <ROCS_RefTverskyCombo>
1.047 

> <ROCS_FitTversky>
1.193 

> <ROCS_FitColorTversky>
0.781 

> <ROCS_FitTverskyCombo>
1.975 

> <ROCS_ColorScore>
-5.575

> <ROCS_Overlap>
778.720

> <ROCS_Rank>
109                 

$$$$
untitled-dbase-462_1292
  -OEChem-06052310023D

 27 27  0     0  0  0  0  0  0999 V2000
   -4.5707   12.4568  -29.8465 C   0  0  0  0  0  0  0  0  0  0  0  0
   -5.0532   11.1181  -31.7989 C   0  0  0  0  0  0  0  0  0  0  0  0
   -4.3201   12.1301  -31.1792 C   0  0  0  0  0  0  0  0  0  0  0  0
   -5.5543   11.7714  -29.1335 C   0  0  0  0  0  0  0  0  0  0  0  0
   -6.2874   10.7594  -29.7532 C   0  0  0  0  0  0  0  0  0  0  0  0
   -6.0369   10.4327  -31.0859 C   0  0  0  0  0  0  0  0  0  0  0  0
   -7.0910   13.4551  -26.3481 C   0  0  0  0  0  0  0  0  0  0  0  0
   -3.2690   12.8638  -31.9414 C   0  0  0  0  0  0  0  0  0  0  0  0
   -6.1950   13.4434  -27.5683 C   0  0  0  0  0  0  0  0  0  0  0  0
   -2.5323   13.9552  -31.1471 C   0  0  0  0  0  0  0  0  0  0  0  0
   -7.2461   10.1012  -29.0394 O   0  0  0  0  0  0  0  0  0  0  0  0
   -5.7879   12.1024  -27.8327 O   0  0  0  0  0  0  0  0  0  0  0  0
   -3.6584   15.2397  -30.5203 S   0  0  0  0  0  0  0  0  0  0  0  0
   -7.0126    9.0636  -31.9620 Br  0  0  0  0  0  0  0  0  0  0  0  0
   -4.0007   13.2456  -29.3613 H   0  0  0  0  0  0  0  0  0  0  0  0
   -4.8508   10.8708  -32.8388 H   0  0  0  0  0  0  0  0  0  0  0  0
   -7.9837   12.8456  -26.5136 H   0  0  0  0  0  0  0  0  0  0  0  0
   -6.5570   13.0698  -25.4733 H   0  0  0  0  0  0  0  0  0  0  0  0
   -7.4009   14.4774  -26.1069 H   0  0  0  0  0  0  0  0  0  0  0  0
   -2.5295   12.1676  -32.3749 H   0  0  0  0  0  0  0  0  0  0  0  0
   -3.7425   13.3435  -32.8157 H   0  0  0  0  0  0  0  0  0  0  0  0
   -5.3042   14.0547  -27.3961 H   0  0  0  0  0  0  0  0  0  0  0  0
   -6.7304   13.8279  -28.4415 H   0  0  0  0  0  0  0  0  0  0  0  0
   -2.0333   13.5088  -30.2808 H   0  0  0  0  0  0  0  0  0  0  0  0
   -1.7631   14.4370  -31.7590 H   0  0  0  0  0  0  0  0  0  0  0  0
   -7.2887   10.4520  -28.1368 H   0  0  0  0  0  0  0  0  0  0  0  0
   -4.1097   15.6251  -31.7211 H   0  0  0  0  0  0  0  0  0  0  0  0
  1  3  1  0  0  0  0
  1  4  2  0  0  0  0
  2  3  2  0  0  0  0
  2  6  1  0  0  0  0
  3  8  1  0  0  0  0
  4  5  1  0  0  0  0
  4 12  1  0  0  0  0
  5  6  2  0  0  0  0
  5 11  1  0  0  0  0
  6 14  1  0  0  0  0
  7  9  1  0  0  0  0
  8 10  1  0  0  0  0
  9 12  1  0  0  0  0
 10 13  1  0  0  0  0
  1 15  1  0  0  0  0
  2 16  1  0  0  0  0
  7 17  1  0  0  0  0
  7 18  1  0  0  0  0
  7 19  1  0  0  0  0
  8 20  1  0  0  0  0
  8 21  1  0  0  0  0
  9 22  1  0  0  0  0
  9 23  1  0  0  0  0
 10 24  1  0  0  0  0
 10 25  1  0  0  0  0
 11 26  1  0  0  0  0
 13 27  1  0  0  0  0
M  END
> <id>
EN300-1920582

> <smiles>
CCOC=1C=C(CCS)C=C(Br)C1O

> <IUPAC Name>
2-bromo-6-ethoxy-4-(2-sulfanylethyl)phenol

> <CAS>
2229367-79-5

> <URL>
https://www.enaminestore.com/catalog/EN300-1920582

> <ROCS_ShapeQuery>
_x1604L0AP1_x0771L0AP1

> <ROCS_TanimotoCombo>
1.003 

> <ROCS_ShapeTanimoto>
0.506 

> <ROCS_ColorTanimoto>
0.497 

> <ROCS_RefTversky>
0.462 

> <ROCS_RefColorTversky>
0.516 

> <ROCS_RefTverskyCombo>
0.978 

> <ROCS_FitTversky>
1.229 

> <ROCS_FitColorTversky>
0.932 

> <ROCS_FitTverskyCombo>
2.161 

> <ROCS_ColorScore>
-4.881

> <ROCS_Overlap>
774.965

> <ROCS_Rank>
110                 

$$$$
untitled-dbase-639_25
  -OEChem-06052310023D

 23 23  0     0  0  0  0  0  0999 V2000
   -4.4056   11.3834  -31.0475 C   0  0  0  0  0  0  0  0  0  0  0  0
   -4.8680   11.1640  -32.3450 C   0  0  0  0  0  0  0  0  0  0  0  0
   -5.1938   11.0203  -29.9554 C   0  0  0  0  0  0  0  0  0  0  0  0
   -6.1186   10.5816  -32.5506 C   0  0  0  0  0  0  0  0  0  0  0  0
   -6.4444   10.4378  -30.1610 C   0  0  0  0  0  0  0  0  0  0  0  0
   -6.9069   10.2184  -31.4586 C   0  0  0  0  0  0  0  0  0  0  0  0
   -6.1610    9.0046  -34.5396 C   0  0  0  0  0  0  0  0  0  0  0  0
   -6.7971    7.8181  -33.8258 C   0  0  0  0  0  0  0  0  0  0  0  0
   -6.5683   10.3682  -33.9603 C   0  0  0  0  0  0  0  0  0  0  0  0
   -7.1870   10.0967  -29.0695 O   0  0  0  0  0  0  0  0  0  0  0  0
   -6.3307    6.6188  -34.4311 O   0  0  0  0  0  0  0  0  0  0  0  0
   -6.0493   11.3186  -34.8059 F   0  0  0  0  0  0  0  0  0  0  0  0
   -7.9259   10.4862  -34.1207 F   0  0  0  0  0  0  0  0  0  0  0  0
   -8.6146    9.4228  -31.7265 Br  0  0  0  0  0  0  0  0  0  0  0  0
   -3.4320   11.8374  -30.8875 H   0  0  0  0  0  0  0  0  0  0  0  0
   -4.2455   11.4511  -33.1887 H   0  0  0  0  0  0  0  0  0  0  0  0
   -4.8269   11.1950  -28.9475 H   0  0  0  0  0  0  0  0  0  0  0  0
   -5.0688    8.8971  -34.5364 H   0  0  0  0  0  0  0  0  0  0  0  0
   -6.4445    8.9663  -35.5997 H   0  0  0  0  0  0  0  0  0  0  0  0
   -6.5215    7.7938  -32.7675 H   0  0  0  0  0  0  0  0  0  0  0  0
   -7.8877    7.8479  -33.9119 H   0  0  0  0  0  0  0  0  0  0  0  0
   -8.0288    9.7040  -29.3478 H   0  0  0  0  0  0  0  0  0  0  0  0
   -6.7518    5.8842  -33.9565 H   0  0  0  0  0  0  0  0  0  0  0  0
  1  2  1  0  0  0  0
  1  3  2  0  0  0  0
  2  4  2  0  0  0  0
  3  5  1  0  0  0  0
  4  6  1  0  0  0  0
  4  9  1  0  0  0  0
  5  6  2  0  0  0  0
  5 10  1  0  0  0  0
  6 14  1  0  0  0  0
  7  8  1  0  0  0  0
  7  9  1  0  0  0  0
  8 11  1  0  0  0  0
  9 12  1  0  0  0  0
  9 13  1  0  0  0  0
  1 15  1  0  0  0  0
  2 16  1  0  0  0  0
  3 17  1  0  0  0  0
  7 18  1  0  0  0  0
  7 19  1  0  0  0  0
  8 20  1  0  0  0  0
  8 21  1  0  0  0  0
 10 22  1  0  0  0  0
 11 23  1  0  0  0  0
M  END
> <id>
EN300-1950758

> <smiles>
OCCC(F)(F)C=1C=CC=C(O)C1Br

> <IUPAC Name>
2-bromo-3-(1,1-difluoro-3-hydroxypropyl)phenol

> <CAS>
2228923-56-4

> <URL>
https://www.enaminestore.com/catalog/EN300-1950758

> <ROCS_ShapeQuery>
_x1604L0AP1_x0771L0AP1

> <ROCS_TanimotoCombo>
1.003 

> <ROCS_ShapeTanimoto>
0.498 

> <ROCS_ColorTanimoto>
0.504 

> <ROCS_RefTversky>
0.462 

> <ROCS_RefColorTversky>
0.553 

> <ROCS_RefTverskyCombo>
1.016 

> <ROCS_FitTversky>
1.185 

> <ROCS_FitColorTversky>
0.851 

> <ROCS_FitTverskyCombo>
2.037 

> <ROCS_ColorScore>
-5.264

> <ROCS_Overlap>
775.887

> <ROCS_Rank>
111                 

$$$$
untitled-dbase-195_5
  -OEChem-06052310023D

 18 18  0     0  0  0  0  0  0999 V2000
   -5.0494   11.1170  -31.8007 C   0  0  0  0  0  0  0  0  0  0  0  0
   -5.5571   11.7722  -29.1370 C   0  0  0  0  0  0  0  0  0  0  0  0
   -4.3181   12.1296  -31.1801 C   0  0  0  0  0  0  0  0  0  0  0  0
   -4.5718   12.4572  -29.8482 C   0  0  0  0  0  0  0  0  0  0  0  0
   -6.2885   10.7596  -29.7577 C   0  0  0  0  0  0  0  0  0  0  0  0
   -6.0347   10.4320  -31.0895 C   0  0  0  0  0  0  0  0  0  0  0  0
   -3.2956   12.8298  -31.9454 C   0  0  0  0  0  0  0  0  0  0  0  0
   -3.8045   13.5385  -29.1600 C   0  0  0  0  0  0  0  0  0  0  0  0
   -3.3240   14.0454  -32.1494 O   0  0  0  0  0  0  0  0  0  0  0  0
   -7.2445   10.1092  -29.0356 O   0  0  0  0  0  0  0  0  0  0  0  0
   -7.0093    9.0620  -31.9646 Br  0  0  0  0  0  0  0  0  0  0  0  0
   -4.8467   10.8657  -32.8398 H   0  0  0  0  0  0  0  0  0  0  0  0
   -5.7574   12.0253  -28.0985 H   0  0  0  0  0  0  0  0  0  0  0  0
   -2.4610   12.2223  -32.3555 H   0  0  0  0  0  0  0  0  0  0  0  0
   -2.9103   13.1234  -28.6810 H   0  0  0  0  0  0  0  0  0  0  0  0
   -3.4930   14.3156  -29.8687 H   0  0  0  0  0  0  0  0  0  0  0  0
   -4.4153   14.0313  -28.3936 H   0  0  0  0  0  0  0  0  0  0  0  0
   -7.6746    9.4337  -29.5826 H   0  0  0  0  0  0  0  0  0  0  0  0
  1  3  2  0  0  0  0
  1  6  1  0  0  0  0
  2  4  2  0  0  0  0
  2  5  1  0  0  0  0
  3  4  1  0  0  0  0
  3  7  1  0  0  0  0
  4  8  1  0  0  0  0
  5  6  2  0  0  0  0
  5 10  1  0  0  0  0
  6 11  1  0  0  0  0
  7  9  2  0  0  0  0
  1 12  1  0  0  0  0
  2 13  1  0  0  0  0
  7 14  1  0  0  0  0
  8 15  1  0  0  0  0
  8 16  1  0  0  0  0
  8 17  1  0  0  0  0
 10 18  1  0  0  0  0
M  END
> <id>
EN300-1276582

> <smiles>
CC=1C=C(O)C(Br)=CC1C=O

> <MDLNUMBER>
MFCD28637640

> <IUPAC Name>
5-bromo-4-hydroxy-2-methylbenzaldehyde

> <CAS>
1232911-14-6

> <URL>
https://www.enaminestore.com/catalog/EN300-1276582

> <ROCS_ShapeQuery>
_x1604L0AP1_x0771L0AP1

> <ROCS_TanimotoCombo>
1.002 

> <ROCS_ShapeTanimoto>
0.506 

> <ROCS_ColorTanimoto>
0.497 

> <ROCS_RefTversky>
0.442 

> <ROCS_RefColorTversky>
0.515 

> <ROCS_RefTverskyCombo>
0.957 

> <ROCS_FitTversky>
1.400 

> <ROCS_FitColorTversky>
0.932 

> <ROCS_FitTverskyCombo>
2.332 

> <ROCS_ColorScore>
-4.879

> <ROCS_Overlap>
738.313

> <ROCS_Rank>
112                 

$$$$
untitled-dbase-1017_857
  -OEChem-06052310023D

 25 25  0     0  0  0  0  0  0999 V2000
   -4.5864   12.4705  -29.8440 C   0  0  0  0  0  0  0  0  0  0  0  0
   -5.0609   11.1310  -31.7978 C   0  0  0  0  0  0  0  0  0  0  0  0
   -4.3339   12.1468  -31.1771 C   0  0  0  0  0  0  0  0  0  0  0  0
   -5.5657   11.7783  -29.1316 C   0  0  0  0  0  0  0  0  0  0  0  0
   -6.2927   10.7625  -29.7524 C   0  0  0  0  0  0  0  0  0  0  0  0
   -6.0403   10.4388  -31.0855 C   0  0  0  0  0  0  0  0  0  0  0  0
   -6.5199   13.8308  -26.3332 C   0  0  0  0  0  0  0  0  0  0  0  0
   -3.2875   12.8877  -31.9386 C   0  0  0  0  0  0  0  0  0  0  0  0
   -5.5689   13.4616  -27.4516 C   0  0  0  0  0  0  0  0  0  0  0  0
   -1.5292   14.7050  -29.8178 N   0  5  0  0  0  0  0  0  0  0  0  0
   -3.1633   14.2835  -31.5002 N   0  0  0  0  0  0  0  0  0  0  0  0
   -2.3101   14.4975  -30.6230 N   0  3  0  0  0  0  0  0  0  0  0  0
   -7.2472   10.0977  -29.0392 O   0  0  0  0  0  0  0  0  0  0  0  0
   -5.8012   12.1064  -27.8304 O   0  0  0  0  0  0  0  0  0  0  0  0
   -7.0077    9.0647  -31.9630 Br  0  0  0  0  0  0  0  0  0  0  0  0
   -4.0212   13.2622  -29.3579 H   0  0  0  0  0  0  0  0  0  0  0  0
   -4.8570   10.8861  -32.8380 H   0  0  0  0  0  0  0  0  0  0  0  0
   -7.5598   13.7324  -26.6567 H   0  0  0  0  0  0  0  0  0  0  0  0
   -6.3585   13.1884  -25.4613 H   0  0  0  0  0  0  0  0  0  0  0  0
   -6.3481   14.8614  -26.0052 H   0  0  0  0  0  0  0  0  0  0  0  0
   -2.3095   12.3936  -31.8366 H   0  0  0  0  0  0  0  0  0  0  0  0
   -3.5131   12.8794  -33.0151 H   0  0  0  0  0  0  0  0  0  0  0  0
   -4.5307   13.5622  -27.1214 H   0  0  0  0  0  0  0  0  0  0  0  0
   -5.7320   14.1039  -28.3221 H   0  0  0  0  0  0  0  0  0  0  0  0
   -7.6684    9.4237  -29.5942 H   0  0  0  0  0  0  0  0  0  0  0  0
  1  3  1  0  0  0  0
  1  4  2  0  0  0  0
  2  3  2  0  0  0  0
  2  6  1  0  0  0  0
  3  8  1  0  0  0  0
  4  5  1  0  0  0  0
  4 14  1  0  0  0  0
  5  6  2  0  0  0  0
  5 13  1  0  0  0  0
  6 15  1  0  0  0  0
  7  9  1  0  0  0  0
  8 11  1  0  0  0  0
  9 14  1  0  0  0  0
 10 12  2  0  0  0  0
 11 12  2  0  0  0  0
  1 16  1  0  0  0  0
  2 17  1  0  0  0  0
  7 18  1  0  0  0  0
  7 19  1  0  0  0  0
  7 20  1  0  0  0  0
  8 21  1  0  0  0  0
  8 22  1  0  0  0  0
  9 23  1  0  0  0  0
  9 24  1  0  0  0  0
 13 25  1  0  0  0  0
M  CHG  2  10  -1  12   1
M  END
> <id>
EN300-1920269

> <smiles>
CCOC=1C=C(CN=[N+]=[N-])C=C(Br)C1O

> <IUPAC Name>
4-(azidomethyl)-2-bromo-6-ethoxyphenol

> <CAS>
2229349-97-5

> <URL>
https://www.enaminestore.com/catalog/EN300-1920269

> <ROCS_ShapeQuery>
_x1604L0AP1_x0771L0AP1

> <ROCS_TanimotoCombo>
1.002 

> <ROCS_ShapeTanimoto>
0.505 

> <ROCS_ColorTanimoto>
0.497 

> <ROCS_RefTversky>
0.473 

> <ROCS_RefColorTversky>
0.516 

> <ROCS_RefTverskyCombo>
0.989 

> <ROCS_FitTversky>
1.151 

> <ROCS_FitColorTversky>
0.932 

> <ROCS_FitTverskyCombo>
2.084 

> <ROCS_ColorScore>
-4.881

> <ROCS_Overlap>
795.374

> <ROCS_Rank>
113                 

$$$$
untitled-dbase-1318_1
  -OEChem-06052310023D

 16 16  0     0  0  0  0  0  0999 V2000
   -4.6045   12.4934  -29.8397 C   0  0  0  0  0  0  0  0  0  0  0  0
   -5.5766   11.7847  -29.1336 C   0  0  0  0  0  0  0  0  0  0  0  0
   -4.3497   12.1852  -31.1760 C   0  0  0  0  0  0  0  0  0  0  0  0
   -6.2937   10.7678  -29.7638 C   0  0  0  0  0  0  0  0  0  0  0  0
   -5.0668   11.1683  -31.8062 C   0  0  0  0  0  0  0  0  0  0  0  0
   -6.0388   10.4595  -31.1002 C   0  0  0  0  0  0  0  0  0  0  0  0
   -5.9450   10.6501  -34.1855 O   0  0  0  0  0  0  0  0  0  0  0  0
   -3.6957   11.8016  -33.9086 O   0  0  0  0  0  0  0  0  0  0  0  0
   -7.2358   10.0983  -29.0400 O   0  0  0  0  0  0  0  0  0  0  0  0
   -3.9636    9.4298  -33.5374 F   0  0  0  0  0  0  0  0  0  0  0  0
   -4.6911   10.8386  -33.4870 S   0  0  0  0  0  0  0  0  0  0  0  0
   -7.0364    9.0665  -31.9327 Br  0  0  0  0  0  0  0  0  0  0  0  0
   -4.0459   13.2855  -29.3490 H   0  0  0  0  0  0  0  0  0  0  0  0
   -5.7698   12.0309  -28.0930 H   0  0  0  0  0  0  0  0  0  0  0  0
   -3.5895   12.7460  -31.7134 H   0  0  0  0  0  0  0  0  0  0  0  0
   -7.6598    9.4211  -29.5894 H   0  0  0  0  0  0  0  0  0  0  0  0
  1  2  1  0  0  0  0
  1  3  2  0  0  0  0
  2  4  2  0  0  0  0
  3  5  1  0  0  0  0
  4  6  1  0  0  0  0
  4  9  1  0  0  0  0
  5  6  2  0  0  0  0
  5 11  1  0  0  0  0
  6 12  1  0  0  0  0
  7 11  2  0  0  0  0
  8 11  2  0  0  0  0
 10 11  1  0  0  0  0
  1 13  1  0  0  0  0
  2 14  1  0  0  0  0
  3 15  1  0  0  0  0
  9 16  1  0  0  0  0
M  END
> <id>
EN300-6493391

> <smiles>
OC=1C=CC=C(C1Br)S(=O)(=O)F

> <IUPAC Name>
2-bromo-3-hydroxybenzene-1-sulfonyl fluoride

> <CAS>
2247102-65-2

> <URL>
https://www.enaminestore.com/catalog/EN300-6493391

> <ROCS_ShapeQuery>
_x1604L0AP1_x0771L0AP1

> <ROCS_TanimotoCombo>
1.002 

> <ROCS_ShapeTanimoto>
0.448 

> <ROCS_ColorTanimoto>
0.554 

> <ROCS_RefTversky>
0.412 

> <ROCS_RefColorTversky>
0.519 

> <ROCS_RefTverskyCombo>
0.931 

> <ROCS_FitTversky>
1.239 

> <ROCS_FitColorTversky>
1.140 

> <ROCS_FitTverskyCombo>
2.378 

> <ROCS_ColorScore>
-4.884

> <ROCS_Overlap>
689.610

> <ROCS_Rank>
114                 

$$$$
untitled-dbase-1354_41
  -OEChem-06052310023D

 25 25  0     1  0  0  0  0  0999 V2000
   -4.6069   12.4941  -29.8410 C   0  0  0  0  0  0  0  0  0  0  0  0
   -4.3460   12.1754  -31.1737 C   0  0  0  0  0  0  0  0  0  0  0  0
   -5.5814   11.7901  -29.1335 C   0  0  0  0  0  0  0  0  0  0  0  0
   -5.0595   11.1528  -31.7988 C   0  0  0  0  0  0  0  0  0  0  0  0
   -6.2949   10.7675  -29.7586 C   0  0  0  0  0  0  0  0  0  0  0  0
   -6.0340   10.4489  -31.0913 C   0  0  0  0  0  0  0  0  0  0  0  0
   -3.2568   11.0971  -33.5533 C   0  0  0  0  0  0  0  0  0  0  0  0
   -5.6288   11.6366  -34.2191 C   0  0  0  0  0  0  0  0  0  0  0  0
   -4.7424   10.8505  -33.2281 C   0  0  2  0  0  0  0  0  0  0  0  0
   -6.6902    9.8650  -35.2734 N   0  0  0  0  0  0  0  0  0  0  0  0
   -7.2401   10.1020  -29.0357 O   0  0  0  0  0  0  0  0  0  0  0  0
   -6.8816   10.9746  -34.3537 O   0  0  0  0  0  0  0  0  0  0  0  0
   -7.0136    9.0516  -31.9334 Br  0  0  0  0  0  0  0  0  0  0  0  0
   -4.0517   13.2906  -29.3544 H   0  0  0  0  0  0  0  0  0  0  0  0
   -3.5846   12.7306  -31.7156 H   0  0  0  0  0  0  0  0  0  0  0  0
   -5.7794   12.0447  -28.0957 H   0  0  0  0  0  0  0  0  0  0  0  0
   -2.9789   12.1435  -33.3864 H   0  0  0  0  0  0  0  0  0  0  0  0
   -2.5999   10.4768  -32.9340 H   0  0  0  0  0  0  0  0  0  0  0  0
   -3.0496   10.8597  -34.6027 H   0  0  0  0  0  0  0  0  0  0  0  0
   -5.1689   11.6809  -35.2123 H   0  0  0  0  0  0  0  0  0  0  0  0
   -5.8101   12.6613  -33.8783 H   0  0  0  0  0  0  0  0  0  0  0  0
   -4.9298    9.7775  -33.4243 H   0  0  0  0  0  0  0  0  0  0  0  0
   -7.4149   10.0676  -35.9604 H   0  0  0  0  0  0  0  0  0  0  0  0
   -7.0355    9.0927  -34.7058 H   0  0  0  0  0  0  0  0  0  0  0  0
   -7.6603    9.4204  -29.5826 H   0  0  0  0  0  0  0  0  0  0  0  0
  1  2  1  0  0  0  0
  1  3  2  0  0  0  0
  2  4  2  0  0  0  0
  3  5  1  0  0  0  0
  4  6  1  0  0  0  0
  4  9  1  0  0  0  0
  5  6  2  0  0  0  0
  5 11  1  0  0  0  0
  6 13  1  0  0  0  0
  7  9  1  0  0  0  0
  8  9  1  0  0  0  0
  8 12  1  0  0  0  0
 10 12  1  0  0  0  0
  1 14  1  0  0  0  0
  2 15  1  0  0  0  0
  3 16  1  0  0  0  0
  7 17  1  0  0  0  0
  7 18  1  0  0  0  0
  7 19  1  0  0  0  0
  8 20  1  0  0  0  0
  8 21  1  0  0  0  0
  9 22  1  0  0  0  0
 10 23  1  0  0  0  0
 10 24  1  0  0  0  0
 11 25  1  0  0  0  0
M  END
> <id>
EN300-1904530

> <smiles>
CC(CON)C=1C=CC=C(O)C1Br

> <IUPAC Name>
3-[1-(aminooxy)propan-2-yl]-2-bromophenol

> <CAS>
2229357-85-9

> <URL>
https://www.enaminestore.com/catalog/EN300-1904530

> <ROCS_ShapeQuery>
_x1604L0AP1_x0771L0AP1

> <ROCS_TanimotoCombo>
1.002 

> <ROCS_ShapeTanimoto>
0.504 

> <ROCS_ColorTanimoto>
0.497 

> <ROCS_RefTversky>
0.455 

> <ROCS_RefColorTversky>
0.516 

> <ROCS_RefTverskyCombo>
0.971 

> <ROCS_FitTversky>
1.276 

> <ROCS_FitColorTversky>
0.933 

> <ROCS_FitTverskyCombo>
2.209 

> <ROCS_ColorScore>
-4.883

> <ROCS_Overlap>
761.559

> <ROCS_Rank>
115                 

$$$$
untitled-dbase-793_4
  -OEChem-06052310023D

 21 21  0     0  0  0  0  0  0999 V2000
   -4.6069   12.4898  -29.8650 C   0  0  0  0  0  0  0  0  0  0  0  0
   -4.3578   12.1684  -31.1992 C   0  0  0  0  0  0  0  0  0  0  0  0
   -5.5758   11.7882  -29.1476 C   0  0  0  0  0  0  0  0  0  0  0  0
   -5.0778   11.1453  -31.8162 C   0  0  0  0  0  0  0  0  0  0  0  0
   -6.2958   10.7652  -29.7647 C   0  0  0  0  0  0  0  0  0  0  0  0
   -6.0468   10.4437  -31.0990 C   0  0  0  0  0  0  0  0  0  0  0  0
   -5.9724   10.9798  -34.1732 C   0  0  0  0  0  0  0  0  0  0  0  0
   -6.0204   10.0442  -35.3536 C   0  0  0  0  0  0  0  0  0  0  0  0
   -4.7734   10.8400  -33.2477 C   0  0  0  0  0  0  0  0  0  0  0  0
   -6.8651   11.8054  -33.9855 O   0  0  0  0  0  0  0  0  0  0  0  0
   -7.2354   10.1020  -29.0323 O   0  0  0  0  0  0  0  0  0  0  0  0
   -7.0351    9.0459  -31.9299 Br  0  0  0  0  0  0  0  0  0  0  0  0
   -4.0466   13.2867  -29.3847 H   0  0  0  0  0  0  0  0  0  0  0  0
   -3.6006   12.7218  -31.7487 H   0  0  0  0  0  0  0  0  0  0  0  0
   -5.7646   12.0449  -28.1087 H   0  0  0  0  0  0  0  0  0  0  0  0
   -6.5490    9.1278  -35.0769 H   0  0  0  0  0  0  0  0  0  0  0  0
   -6.5527   10.5233  -36.1789 H   0  0  0  0  0  0  0  0  0  0  0  0
   -5.0033    9.7868  -35.6590 H   0  0  0  0  0  0  0  0  0  0  0  0
   -3.9815   11.5081  -33.6176 H   0  0  0  0  0  0  0  0  0  0  0  0
   -4.3907    9.8131  -33.3436 H   0  0  0  0  0  0  0  0  0  0  0  0
   -7.6610    9.4198  -29.5743 H   0  0  0  0  0  0  0  0  0  0  0  0
  1  2  1  0  0  0  0
  1  3  2  0  0  0  0
  2  4  2  0  0  0  0
  3  5  1  0  0  0  0
  4  6  1  0  0  0  0
  4  9  1  0  0  0  0
  5  6  2  0  0  0  0
  5 11  1  0  0  0  0
  6 12  1  0  0  0  0
  7  8  1  0  0  0  0
  7  9  1  0  0  0  0
  7 10  2  0  0  0  0
  1 13  1  0  0  0  0
  2 14  1  0  0  0  0
  3 15  1  0  0  0  0
  8 16  1  0  0  0  0
  8 17  1  0  0  0  0
  8 18  1  0  0  0  0
  9 19  1  0  0  0  0
  9 20  1  0  0  0  0
 11 21  1  0  0  0  0
M  END
> <id>
EN300-1893325

> <smiles>
CC(=O)CC=1C=CC=C(O)C1Br

> <MDLNUMBER>
MFCD10566806

> <IUPAC Name>
1-(2-bromo-3-hydroxyphenyl)propan-2-one

> <CAS>
1379333-76-2

> <URL>
https://www.enaminestore.com/catalog/EN300-1893325

> <ROCS_ShapeQuery>
_x1604L0AP1_x0771L0AP1

> <ROCS_TanimotoCombo>
1.001 

> <ROCS_ShapeTanimoto>
0.504 

> <ROCS_ColorTanimoto>
0.497 

> <ROCS_RefTversky>
0.448 

> <ROCS_RefColorTversky>
0.516 

> <ROCS_RefTverskyCombo>
0.964 

> <ROCS_FitTversky>
1.330 

> <ROCS_FitColorTversky>
0.933 

> <ROCS_FitTverskyCombo>
2.263 

> <ROCS_ColorScore>
-4.882

> <ROCS_Overlap>
749.432

> <ROCS_Rank>
116                 

$$$$
untitled-dbase-142_0
  -OEChem-06052310023D

 19 20  0     0  0  0  0  0  0999 V2000
   -6.5224   10.5123  -34.0174 C   0  0  0  0  0  0  0  0  0  0  0  0
   -7.4541    9.8294  -33.2412 C   0  0  0  0  0  0  0  0  0  0  0  0
   -5.5281   11.2755  -33.4049 C   0  0  0  0  0  0  0  0  0  0  0  0
   -7.3950    9.9072  -31.8494 C   0  0  0  0  0  0  0  0  0  0  0  0
   -4.4594   12.1286  -31.3719 C   0  0  0  0  0  0  0  0  0  0  0  0
   -4.4003   12.2064  -29.9802 C   0  0  0  0  0  0  0  0  0  0  0  0
   -5.4535   11.3651  -32.0053 C   0  0  0  0  0  0  0  0  0  0  0  0
   -6.4010   10.6707  -31.2160 C   0  0  0  0  0  0  0  0  0  0  0  0
   -6.3264   10.7603  -29.8164 C   0  0  0  0  0  0  0  0  0  0  0  0
   -5.3320   11.5236  -29.2040 C   0  0  0  0  0  0  0  0  0  0  0  0
   -7.2349   10.0946  -29.0397 O   0  0  0  0  0  0  0  0  0  0  0  0
   -5.2109   11.6562  -27.3159 Br  0  0  0  0  0  0  0  0  0  0  0  0
   -6.5695   10.4519  -35.1008 H   0  0  0  0  0  0  0  0  0  0  0  0
   -8.2278    9.2352  -33.7187 H   0  0  0  0  0  0  0  0  0  0  0  0
   -4.8108   11.8017  -34.0315 H   0  0  0  0  0  0  0  0  0  0  0  0
   -8.1390    9.3597  -31.2749 H   0  0  0  0  0  0  0  0  0  0  0  0
   -3.7204   12.6700  -31.9590 H   0  0  0  0  0  0  0  0  0  0  0  0
   -3.6179   12.8052  -29.5209 H   0  0  0  0  0  0  0  0  0  0  0  0
   -7.0493   10.2568  -28.1036 H   0  0  0  0  0  0  0  0  0  0  0  0
  1  2  2  0  0  0  0
  1  3  1  0  0  0  0
  2  4  1  0  0  0  0
  3  7  2  0  0  0  0
  4  8  2  0  0  0  0
  5  6  2  0  0  0  0
  5  7  1  0  0  0  0
  6 10  1  0  0  0  0
  7  8  1  0  0  0  0
  8  9  1  0  0  0  0
  9 10  2  0  0  0  0
  9 11  1  0  0  0  0
 10 12  1  0  0  0  0
  1 13  1  0  0  0  0
  2 14  1  0  0  0  0
  3 15  1  0  0  0  0
  4 16  1  0  0  0  0
  5 17  1  0  0  0  0
  6 18  1  0  0  0  0
 11 19  1  0  0  0  0
M  END
> <id>
EN300-761528

> <smiles>
OC=1C(Br)=CC=C2C=CC=CC12

> <MDLNUMBER>
MFCD00274158

> <IUPAC Name>
2-bromonaphthalen-1-ol

> <CAS>
771-15-3

> <Purity>
95

> <URL>
https://www.enaminestore.com/catalog/EN300-761528

> <MP>
44-46

> <ROCS_ShapeQuery>
_x1604L0AP1_x0771L0AP1

> <ROCS_TanimotoCombo>
1.001 

> <ROCS_ShapeTanimoto>
0.511 

> <ROCS_ColorTanimoto>
0.490 

> <ROCS_RefTversky>
0.458 

> <ROCS_RefColorTversky>
0.511 

> <ROCS_RefTverskyCombo>
0.969 

> <ROCS_FitTversky>
1.294 

> <ROCS_FitColorTversky>
0.923 

> <ROCS_FitTverskyCombo>
2.216 

> <ROCS_ColorScore>
-4.834

> <ROCS_Overlap>
767.069

> <ROCS_Rank>
117                 

$$$$
untitled-dbase-135_0
  -OEChem-06052310023D

 22 23  0     0  0  0  0  0  0999 V2000
   -5.5230   11.2776  -33.4023 C   0  0  0  0  0  0  0  0  0  0  0  0
   -4.4603   12.1328  -31.3671 C   0  0  0  0  0  0  0  0  0  0  0  0
   -6.5144   10.5123  -34.0169 C   0  0  0  0  0  0  0  0  0  0  0  0
   -4.4043   12.2106  -29.9752 C   0  0  0  0  0  0  0  0  0  0  0  0
   -7.3900    9.9049  -31.8508 C   0  0  0  0  0  0  0  0  0  0  0  0
   -5.4514   11.3672  -32.0026 C   0  0  0  0  0  0  0  0  0  0  0  0
   -6.3990   10.6706  -31.2152 C   0  0  0  0  0  0  0  0  0  0  0  0
   -7.4461    9.8272  -33.2427 C   0  0  0  0  0  0  0  0  0  0  0  0
   -6.3275   10.7602  -29.8155 C   0  0  0  0  0  0  0  0  0  0  0  0
   -5.3360   11.5256  -29.2009 C   0  0  0  0  0  0  0  0  0  0  0  0
   -8.5053    9.0100  -33.9019 C   0  0  0  0  0  0  0  0  0  0  0  0
   -7.2360   10.0926  -29.0404 O   0  0  0  0  0  0  0  0  0  0  0  0
   -5.2202   11.6611  -27.3126 Br  0  0  0  0  0  0  0  0  0  0  0  0
   -4.8047   11.8042  -34.0273 H   0  0  0  0  0  0  0  0  0  0  0  0
   -3.7219   12.6767  -31.9526 H   0  0  0  0  0  0  0  0  0  0  0  0
   -6.5505   10.4568  -35.1018 H   0  0  0  0  0  0  0  0  0  0  0  0
   -3.6251   12.8118  -29.5136 H   0  0  0  0  0  0  0  0  0  0  0  0
   -8.1313    9.3595  -31.2692 H   0  0  0  0  0  0  0  0  0  0  0  0
   -8.1565    7.9806  -34.0502 H   0  0  0  0  0  0  0  0  0  0  0  0
   -9.4216    8.9833  -33.2981 H   0  0  0  0  0  0  0  0  0  0  0  0
   -8.7808    9.4282  -34.8789 H   0  0  0  0  0  0  0  0  0  0  0  0
   -7.0523   10.2553  -28.1039 H   0  0  0  0  0  0  0  0  0  0  0  0
  1  3  1  0  0  0  0
  1  6  2  0  0  0  0
  2  4  2  0  0  0  0
  2  6  1  0  0  0  0
  3  8  2  0  0  0  0
  4 10  1  0  0  0  0
  5  7  2  0  0  0  0
  5  8  1  0  0  0  0
  6  7  1  0  0  0  0
  7  9  1  0  0  0  0
  8 11  1  0  0  0  0
  9 10  2  0  0  0  0
  9 12  1  0  0  0  0
 10 13  1  0  0  0  0
  1 14  1  0  0  0  0
  2 15  1  0  0  0  0
  3 16  1  0  0  0  0
  4 17  1  0  0  0  0
  5 18  1  0  0  0  0
 11 19  1  0  0  0  0
 11 20  1  0  0  0  0
 11 21  1  0  0  0  0
 12 22  1  0  0  0  0
M  END
> <id>
EN300-1144197

> <smiles>
CC=1C=CC=2C=CC(Br)=C(O)C2C1

> <MDLNUMBER>
MFCD21875086

> <IUPAC Name>
2-bromo-7-methylnaphthalen-1-ol

> <CAS>
1368964-35-5

> <URL>
https://www.enaminestore.com/catalog/EN300-1144197

> <ROCS_ShapeQuery>
_x1604L0AP1_x0771L0AP1

> <ROCS_TanimotoCombo>
1.000 

> <ROCS_ShapeTanimoto>
0.511 

> <ROCS_ColorTanimoto>
0.490 

> <ROCS_RefTversky>
0.466 

> <ROCS_RefColorTversky>
0.511 

> <ROCS_RefTverskyCombo>
0.976 

> <ROCS_FitTversky>
1.234 

> <ROCS_FitColorTversky>
0.922 

> <ROCS_FitTverskyCombo>
2.156 

> <ROCS_ColorScore>
-4.834

> <ROCS_Overlap>
780.946

> <ROCS_Rank>
118                 

$$$$
untitled-dbase-465_137
  -OEChem-06052310023D

 23 23  0     0  0  0  0  0  0999 V2000
   -4.6287   12.5155  -29.8848 C   0  0  0  0  0  0  0  0  0  0  0  0
   -5.1002   11.1564  -31.8258 C   0  0  0  0  0  0  0  0  0  0  0  0
   -4.3853   12.1889  -31.2188 C   0  0  0  0  0  0  0  0  0  0  0  0
   -5.5871   11.8094  -29.1576 C   0  0  0  0  0  0  0  0  0  0  0  0
   -6.3021   10.7769  -29.7645 C   0  0  0  0  0  0  0  0  0  0  0  0
   -6.0587   10.4504  -31.0986 C   0  0  0  0  0  0  0  0  0  0  0  0
   -6.8107   13.1287  -27.6025 C   0  0  0  0  0  0  0  0  0  0  0  0
   -3.3612   12.9446  -31.9961 C   0  0  0  0  0  0  0  0  0  0  0  0
   -2.0542   13.7368  -30.2523 N   0  0  0  0  0  0  0  0  0  0  0  0
   -7.2361   10.0987  -29.0370 O   0  0  0  0  0  0  0  0  0  0  0  0
   -5.8140   12.1405  -27.8557 O   0  0  0  0  0  0  0  0  0  0  0  0
   -2.0929   12.8047  -31.3678 O   0  0  0  0  0  0  0  0  0  0  0  0
   -7.0103    9.0538  -31.9576 Br  0  0  0  0  0  0  0  0  0  0  0  0
   -4.0728   13.3202  -29.4095 H   0  0  0  0  0  0  0  0  0  0  0  0
   -4.9036   10.9094  -32.8668 H   0  0  0  0  0  0  0  0  0  0  0  0
   -6.8913   13.2986  -26.5261 H   0  0  0  0  0  0  0  0  0  0  0  0
   -7.7702   12.7902  -28.0016 H   0  0  0  0  0  0  0  0  0  0  0  0
   -6.5213   14.0598  -28.0954 H   0  0  0  0  0  0  0  0  0  0  0  0
   -3.2850   12.5723  -33.0270 H   0  0  0  0  0  0  0  0  0  0  0  0
   -3.6124   14.0128  -32.0501 H   0  0  0  0  0  0  0  0  0  0  0  0
   -1.2050   14.2547  -30.4733 H   0  0  0  0  0  0  0  0  0  0  0  0
   -1.8184   13.1035  -29.4899 H   0  0  0  0  0  0  0  0  0  0  0  0
   -7.2772   10.4524  -28.1355 H   0  0  0  0  0  0  0  0  0  0  0  0
  1  3  1  0  0  0  0
  1  4  2  0  0  0  0
  2  3  2  0  0  0  0
  2  6  1  0  0  0  0
  3  8  1  0  0  0  0
  4  5  1  0  0  0  0
  4 11  1  0  0  0  0
  5  6  2  0  0  0  0
  5 10  1  0  0  0  0
  6 13  1  0  0  0  0
  7 11  1  0  0  0  0
  8 12  1  0  0  0  0
  9 12  1  0  0  0  0
  1 14  1  0  0  0  0
  2 15  1  0  0  0  0
  7 16  1  0  0  0  0
  7 17  1  0  0  0  0
  7 18  1  0  0  0  0
  8 19  1  0  0  0  0
  8 20  1  0  0  0  0
  9 21  1  0  0  0  0
  9 22  1  0  0  0  0
 10 23  1  0  0  0  0
M  END
> <id>
EN300-1926992

> <smiles>
COC=1C=C(CON)C=C(Br)C1O

> <IUPAC Name>
4-[(aminooxy)methyl]-2-bromo-6-methoxyphenol

> <CAS>
2229002-57-5

> <URL>
https://www.enaminestore.com/catalog/EN300-1926992

> <ROCS_ShapeQuery>
_x1604L0AP1_x0771L0AP1

> <ROCS_TanimotoCombo>
1.000 

> <ROCS_ShapeTanimoto>
0.504 

> <ROCS_ColorTanimoto>
0.497 

> <ROCS_RefTversky>
0.456 

> <ROCS_RefColorTversky>
0.515 

> <ROCS_RefTverskyCombo>
0.972 

> <ROCS_FitTversky>
1.261 

> <ROCS_FitColorTversky>
0.932 

> <ROCS_FitTverskyCombo>
2.193 

> <ROCS_ColorScore>
-4.879

> <ROCS_Overlap>
764.254

> <ROCS_Rank>
119                 

$$$$
untitled-dbase-1053_145
  -OEChem-06052310023D

 21 21  0     0  0  0  0  0  0999 V2000
   -4.6042   12.4909  -29.8309 C   0  0  0  0  0  0  0  0  0  0  0  0
   -5.5793   11.7877  -29.1238 C   0  0  0  0  0  0  0  0  0  0  0  0
   -5.0653   11.1580  -31.7925 C   0  0  0  0  0  0  0  0  0  0  0  0
   -4.3472   12.1761  -31.1653 C   0  0  0  0  0  0  0  0  0  0  0  0
   -6.2975   10.7696  -29.7509 C   0  0  0  0  0  0  0  0  0  0  0  0
   -6.0405   10.4547  -31.0853 C   0  0  0  0  0  0  0  0  0  0  0  0
   -3.3042   12.9285  -31.9203 C   0  0  0  0  0  0  0  0  0  0  0  0
   -3.1425   12.4632  -33.3722 C   0  0  0  0  0  0  0  0  0  0  0  0
   -1.5398   10.2458  -31.5267 N   0  5  0  0  0  0  0  0  0  0  0  0
   -2.7819   11.0431  -33.3990 N   0  0  0  0  0  0  0  0  0  0  0  0
   -2.1340   10.6315  -32.4206 N   0  3  0  0  0  0  0  0  0  0  0  0
   -7.2426   10.1003  -29.0317 O   0  0  0  0  0  0  0  0  0  0  0  0
   -6.9958    9.0765  -31.9688 Br  0  0  0  0  0  0  0  0  0  0  0  0
   -4.0500   13.2824  -29.3332 H   0  0  0  0  0  0  0  0  0  0  0  0
   -5.7740   12.0386  -28.0844 H   0  0  0  0  0  0  0  0  0  0  0  0
   -4.8585   10.9197  -32.8337 H   0  0  0  0  0  0  0  0  0  0  0  0
   -3.5190   14.0109  -31.9072 H   0  0  0  0  0  0  0  0  0  0  0  0
   -2.3334   12.8207  -31.4076 H   0  0  0  0  0  0  0  0  0  0  0  0
   -4.0844   12.5890  -33.9159 H   0  0  0  0  0  0  0  0  0  0  0  0
   -2.3766   13.0467  -33.8941 H   0  0  0  0  0  0  0  0  0  0  0  0
   -7.6644    9.4230  -29.5828 H   0  0  0  0  0  0  0  0  0  0  0  0
  1  2  1  0  0  0  0
  1  4  2  0  0  0  0
  2  5  2  0  0  0  0
  3  4  1  0  0  0  0
  3  6  2  0  0  0  0
  4  7  1  0  0  0  0
  5  6  1  0  0  0  0
  5 12  1  0  0  0  0
  6 13  1  0  0  0  0
  7  8  1  0  0  0  0
  8 10  1  0  0  0  0
  9 11  2  0  0  0  0
 10 11  2  0  0  0  0
  1 14  1  0  0  0  0
  2 15  1  0  0  0  0
  3 16  1  0  0  0  0
  7 17  1  0  0  0  0
  7 18  1  0  0  0  0
  8 19  1  0  0  0  0
  8 20  1  0  0  0  0
 12 21  1  0  0  0  0
M  CHG  2   9  -1  11   1
M  END
> <id>
EN300-1904767

> <smiles>
OC=1C=CC(CCN=[N+]=[N-])=CC1Br

> <IUPAC Name>
4-(2-azidoethyl)-2-bromophenol

> <CAS>
1826824-07-0

> <URL>
https://www.enaminestore.com/catalog/EN300-1904767

> <ROCS_ShapeQuery>
_x1604L0AP1_x0771L0AP1

> <ROCS_TanimotoCombo>
1.000 

> <ROCS_ShapeTanimoto>
0.447 

> <ROCS_ColorTanimoto>
0.553 

> <ROCS_RefTversky>
0.420 

> <ROCS_RefColorTversky>
0.518 

> <ROCS_RefTverskyCombo>
0.938 

> <ROCS_FitTversky>
1.167 

> <ROCS_FitColorTversky>
1.138 

> <ROCS_FitTverskyCombo>
2.306 

> <ROCS_ColorScore>
-4.877

> <ROCS_Overlap>
704.307

> <ROCS_Rank>
120                 

$$$$
untitled-dbase-1061_1
  -OEChem-06052310023D

 25 26  0     1  0  0  0  0  0999 V2000
   -5.0835   11.3057  -31.8234 C   0  0  0  0  0  0  0  0  0  0  0  0
   -4.5019   12.4187  -29.7594 C   0  0  0  0  0  0  0  0  0  0  0  0
   -6.0646   10.5752  -31.1531 C   0  0  0  0  0  0  0  0  0  0  0  0
   -6.2645   10.7666  -29.7859 C   0  0  0  0  0  0  0  0  0  0  0  0
   -4.3021   12.2274  -31.1266 C   0  0  0  0  0  0  0  0  0  0  0  0
   -5.4831   11.6883  -29.0891 C   0  0  0  0  0  0  0  0  0  0  0  0
   -6.9547    8.1648  -31.4377 C   0  0  0  0  0  0  0  0  0  0  0  0
   -6.8898    9.5936  -31.9171 C   0  0  2  0  0  0  0  0  0  0  0  0
   -6.1923    8.4973  -32.6857 C   0  0  2  0  0  0  0  0  0  0  0  0
   -6.7140    8.0754  -34.0161 C   0  0  0  0  0  0  0  0  0  0  0  0
   -6.4130    6.6947  -34.2777 N   0  0  0  0  0  0  0  0  0  0  0  0
   -7.2283   10.0455  -29.1424 O   0  0  0  0  0  0  0  0  0  0  0  0
   -3.0917   13.1285  -31.9543 Cl  0  0  0  0  0  0  0  0  0  0  0  0
   -5.7243   11.9757  -27.2305 Br  0  0  0  0  0  0  0  0  0  0  0  0
   -4.9306   11.1544  -32.8898 H   0  0  0  0  0  0  0  0  0  0  0  0
   -3.8898   13.1379  -29.2194 H   0  0  0  0  0  0  0  0  0  0  0  0
   -6.3840    7.8757  -30.5628 H   0  0  0  0  0  0  0  0  0  0  0  0
   -7.9047    7.6520  -31.5323 H   0  0  0  0  0  0  0  0  0  0  0  0
   -7.7980    9.9980  -32.3446 H   0  0  0  0  0  0  0  0  0  0  0  0
   -5.1111    8.4325  -32.6416 H   0  0  0  0  0  0  0  0  0  0  0  0
   -7.8053    8.2142  -34.0352 H   0  0  0  0  0  0  0  0  0  0  0  0
   -6.2521    8.6972  -34.7975 H   0  0  0  0  0  0  0  0  0  0  0  0
   -6.8382    6.1217  -33.5771 H   0  0  0  0  0  0  0  0  0  0  0  0
   -6.7689    6.4406  -35.1771 H   0  0  0  0  0  0  0  0  0  0  0  0
   -7.2506   10.2840  -28.2033 H   0  0  0  0  0  0  0  0  0  0  0  0
  1  3  2  0  0  0  0
  1  5  1  0  0  0  0
  2  5  2  0  0  0  0
  2  6  1  0  0  0  0
  3  4  1  0  0  0  0
  3  8  1  1  0  0  0
  4  6  2  0  0  0  0
  4 12  1  0  0  0  0
  5 13  1  0  0  0  0
  6 14  1  0  0  0  0
  7  8  1  0  0  0  0
  7  9  1  0  0  0  0
  8  9  1  0  0  0  0
  9 10  1  6  0  0  0
 10 11  1  0  0  0  0
  1 15  1  0  0  0  0
  2 16  1  0  0  0  0
  7 17  1  0  0  0  0
  7 18  1  0  0  0  0
  8 19  1  0  0  0  0
  9 20  1  0  0  0  0
 10 21  1  0  0  0  0
 10 22  1  0  0  0  0
 11 23  1  0  0  0  0
 11 24  1  0  0  0  0
 12 25  1  0  0  0  0
M  END
> <id>
EN300-1922910

> <smiles>
NC[C@@H]1C[C@H]1C=2C=C(Cl)C=C(Br)C2O |&1:2,4,r|

> <IUPAC Name>
rac-2-[(1R,2R)-2-(aminomethyl)cyclopropyl]-6-bromo-4-chlorophenol

> <CAS>
2227816-36-4

> <URL>
https://www.enaminestore.com/catalog/EN300-1922910

> <ROCS_ShapeQuery>
_x1604L0AP1_x0771L0AP1

> <ROCS_TanimotoCombo>
1.000 

> <ROCS_ShapeTanimoto>
0.564 

> <ROCS_ColorTanimoto>
0.436 

> <ROCS_RefTversky>
0.499 

> <ROCS_RefColorTversky>
0.501 

> <ROCS_RefTverskyCombo>
1.000 

> <ROCS_FitTversky>
1.301 

> <ROCS_FitColorTversky>
0.770 

> <ROCS_FitTverskyCombo>
2.071 

> <ROCS_ColorScore>
-4.765

> <ROCS_Overlap>
837.289

> <ROCS_Rank>
121                 

$$$$
untitled-dbase-2168_1
  -OEChem-06052310023D

 25 26  0     1  0  0  0  0  0999 V2000
   -5.0834   11.3061  -31.8232 C   0  0  0  0  0  0  0  0  0  0  0  0
   -4.5020   12.4189  -29.7591 C   0  0  0  0  0  0  0  0  0  0  0  0
   -6.0645   10.5755  -31.1530 C   0  0  0  0  0  0  0  0  0  0  0  0
   -6.2645   10.7666  -29.7859 C   0  0  0  0  0  0  0  0  0  0  0  0
   -4.3021   12.2277  -31.1263 C   0  0  0  0  0  0  0  0  0  0  0  0
   -5.4832   11.6884  -29.0889 C   0  0  0  0  0  0  0  0  0  0  0  0
   -6.9552    8.1650  -31.4378 C   0  0  0  0  0  0  0  0  0  0  0  0
   -6.8896    9.5938  -31.9172 C   0  0  2  0  0  0  0  0  0  0  0  0
   -6.1921    8.4972  -32.6854 C   0  0  2  0  0  0  0  0  0  0  0  0
   -6.7134    8.0755  -34.0161 C   0  0  0  0  0  0  0  0  0  0  0  0
   -6.4131    6.6947  -34.2776 N   0  0  0  0  0  0  0  0  0  0  0  0
   -7.2283   10.0454  -29.1425 O   0  0  0  0  0  0  0  0  0  0  0  0
   -3.0917   13.1290  -31.9538 Cl  0  0  0  0  0  0  0  0  0  0  0  0
   -5.7245   11.9755  -27.2303 Br  0  0  0  0  0  0  0  0  0  0  0  0
   -4.9304   11.1549  -32.8896 H   0  0  0  0  0  0  0  0  0  0  0  0
   -3.8899   13.1381  -29.2190 H   0  0  0  0  0  0  0  0  0  0  0  0
   -6.3849    7.8756  -30.5628 H   0  0  0  0  0  0  0  0  0  0  0  0
   -7.9058    7.6530  -31.5319 H   0  0  0  0  0  0  0  0  0  0  0  0
   -7.7980    9.9979  -32.3449 H   0  0  0  0  0  0  0  0  0  0  0  0
   -5.1108    8.4334  -32.6410 H   0  0  0  0  0  0  0  0  0  0  0  0
   -7.8047    8.2149  -34.0356 H   0  0  0  0  0  0  0  0  0  0  0  0
   -6.2509    8.6972  -34.7972 H   0  0  0  0  0  0  0  0  0  0  0  0
   -6.8388    6.1219  -33.5772 H   0  0  0  0  0  0  0  0  0  0  0  0
   -6.7688    6.4408  -35.1771 H   0  0  0  0  0  0  0  0  0  0  0  0
   -7.2507   10.2839  -28.2034 H   0  0  0  0  0  0  0  0  0  0  0  0
  1  3  2  0  0  0  0
  1  5  1  0  0  0  0
  2  5  2  0  0  0  0
  2  6  1  0  0  0  0
  3  4  1  0  0  0  0
  3  8  1  0  0  0  0
  4  6  2  0  0  0  0
  4 12  1  0  0  0  0
  5 13  1  0  0  0  0
  6 14  1  0  0  0  0
  7  8  1  0  0  0  0
  7  9  1  0  0  0  0
  8  9  1  0  0  0  0
  9 10  1  0  0  0  0
 10 11  1  0  0  0  0
  1 15  1  0  0  0  0
  2 16  1  0  0  0  0
  7 17  1  0  0  0  0
  7 18  1  0  0  0  0
  8 19  1  0  0  0  0
  9 20  1  0  0  0  0
 10 21  1  0  0  0  0
 10 22  1  0  0  0  0
 11 23  1  0  0  0  0
 11 24  1  0  0  0  0
 12 25  1  0  0  0  0
M  END
> <id>
EN300-1922913

> <smiles>
NCC1CC1C=2C=C(Cl)C=C(Br)C2O

> <IUPAC Name>
2-[2-(aminomethyl)cyclopropyl]-6-bromo-4-chlorophenol

> <CAS>
2228446-57-7

> <URL>
https://www.enaminestore.com/catalog/EN300-1922913

> <ROCS_ShapeQuery>
_x1604L0AP1_x0771L0AP1

> <ROCS_TanimotoCombo>
1.000 

> <ROCS_ShapeTanimoto>
0.564 

> <ROCS_ColorTanimoto>
0.436 

> <ROCS_RefTversky>
0.499 

> <ROCS_RefColorTversky>
0.501 

> <ROCS_RefTverskyCombo>
1.000 

> <ROCS_FitTversky>
1.301 

> <ROCS_FitColorTversky>
0.770 

> <ROCS_FitTverskyCombo>
2.071 

> <ROCS_ColorScore>
-4.765

> <ROCS_Overlap>
837.292

> <ROCS_Rank>
122                 

$$$$
untitled-dbase-139_0
  -OEChem-06052310023D

 19 20  0     0  0  0  0  0  0999 V2000
   -5.5189   11.2714  -33.4029 C   0  0  0  0  0  0  0  0  0  0  0  0
   -4.4619   12.1345  -31.3681 C   0  0  0  0  0  0  0  0  0  0  0  0
   -6.5076   10.5023  -34.0172 C   0  0  0  0  0  0  0  0  0  0  0  0
   -4.4086   12.2163  -29.9764 C   0  0  0  0  0  0  0  0  0  0  0  0
   -7.3861    9.8993  -31.8510 C   0  0  0  0  0  0  0  0  0  0  0  0
   -5.4502   11.3651  -32.0033 C   0  0  0  0  0  0  0  0  0  0  0  0
   -6.3978   10.6688  -31.2158 C   0  0  0  0  0  0  0  0  0  0  0  0
   -6.3291   10.7625  -29.8162 C   0  0  0  0  0  0  0  0  0  0  0  0
   -7.4394    9.8175  -33.2428 C   0  0  0  0  0  0  0  0  0  0  0  0
   -5.3404   11.5316  -29.2019 C   0  0  0  0  0  0  0  0  0  0  0  0
   -7.2373   10.0946  -29.0408 O   0  0  0  0  0  0  0  0  0  0  0  0
   -8.6567    8.8688  -34.0039 Cl  0  0  0  0  0  0  0  0  0  0  0  0
   -5.2280   11.6721  -27.3138 Br  0  0  0  0  0  0  0  0  0  0  0  0
   -4.8009   11.7981  -34.0280 H   0  0  0  0  0  0  0  0  0  0  0  0
   -3.7235   12.6781  -31.9540 H   0  0  0  0  0  0  0  0  0  0  0  0
   -6.5369   10.4472  -35.1026 H   0  0  0  0  0  0  0  0  0  0  0  0
   -3.6312   12.8202  -29.5152 H   0  0  0  0  0  0  0  0  0  0  0  0
   -8.1242    9.3556  -31.2640 H   0  0  0  0  0  0  0  0  0  0  0  0
   -7.0558   10.2605  -28.1045 H   0  0  0  0  0  0  0  0  0  0  0  0
  1  3  1  0  0  0  0
  1  6  2  0  0  0  0
  2  4  2  0  0  0  0
  2  6  1  0  0  0  0
  3  9  2  0  0  0  0
  4 10  1  0  0  0  0
  5  7  2  0  0  0  0
  5  9  1  0  0  0  0
  6  7  1  0  0  0  0
  7  8  1  0  0  0  0
  8 10  2  0  0  0  0
  8 11  1  0  0  0  0
  9 12  1  0  0  0  0
 10 13  1  0  0  0  0
  1 14  1  0  0  0  0
  2 15  1  0  0  0  0
  3 16  1  0  0  0  0
  4 17  1  0  0  0  0
  5 18  1  0  0  0  0
 11 19  1  0  0  0  0
M  END
> <id>
EN300-1144198

> <smiles>
OC=1C(Br)=CC=C2C=CC(Cl)=CC12

> <MDLNUMBER>
MFCD21875090

> <IUPAC Name>
2-bromo-7-chloronaphthalen-1-ol

> <CAS>
1368504-01-1

> <URL>
https://www.enaminestore.com/catalog/EN300-1144198

> <ROCS_ShapeQuery>
_x1604L0AP1_x0771L0AP1

> <ROCS_TanimotoCombo>
1.000 

> <ROCS_ShapeTanimoto>
0.510 

> <ROCS_ColorTanimoto>
0.490 

> <ROCS_RefTversky>
0.464 

> <ROCS_RefColorTversky>
0.511 

> <ROCS_RefTverskyCombo>
0.975 

> <ROCS_FitTversky>
1.241 

> <ROCS_FitColorTversky>
0.922 

> <ROCS_FitTverskyCombo>
2.164 

> <ROCS_ColorScore>
-4.833

> <ROCS_Overlap>
778.157

> <ROCS_Rank>
123                 

$$$$
untitled-dbase-895_29
  -OEChem-06052310023D

 28 28  0     0  0  0  0  0  0999 V2000
   -4.2364   12.1709  -31.1613 C   0  0  0  0  0  0  0  0  0  0  0  0
   -4.9133   11.1451  -31.8209 C   0  0  0  0  0  0  0  0  0  0  0  0
   -4.5610   12.4848  -29.8415 C   0  0  0  0  0  0  0  0  0  0  0  0
   -5.9149   10.4333  -31.1609 C   0  0  0  0  0  0  0  0  0  0  0  0
   -6.2396   10.7472  -29.8411 C   0  0  0  0  0  0  0  0  0  0  0  0
   -5.5626   11.7729  -29.1814 C   0  0  0  0  0  0  0  0  0  0  0  0
   -6.7965    8.0633  -34.1589 C   0  0  0  0  0  0  0  0  0  0  0  0
   -6.5078    7.9166  -31.2412 C   0  0  0  0  0  0  0  0  0  0  0  0
   -8.1652    9.6286  -31.9184 C   0  0  0  0  0  0  0  0  0  0  0  0
   -6.1699    9.2027  -33.3826 C   0  0  0  0  0  0  0  0  0  0  0  0
   -6.6499    9.3058  -31.9086 C   0  0  0  0  0  0  0  0  0  0  0  0
   -6.3637    6.9179  -34.1625 O   0  0  0  0  0  0  0  0  0  0  0  0
   -7.2230   10.0427  -29.2093 O   0  0  0  0  0  0  0  0  0  0  0  0
   -7.9032    8.4391  -34.8468 O   0  0  0  0  0  0  0  0  0  0  0  0
   -5.9736   12.2292  -27.3878 Br  0  0  0  0  0  0  0  0  0  0  0  0
   -3.4562   12.7249  -31.6750 H   0  0  0  0  0  0  0  0  0  0  0  0
   -4.6524   10.9056  -32.8484 H   0  0  0  0  0  0  0  0  0  0  0  0
   -4.0222   13.2871  -29.3437 H   0  0  0  0  0  0  0  0  0  0  0  0
   -7.0451    7.1444  -31.8048 H   0  0  0  0  0  0  0  0  0  0  0  0
   -5.4565    7.6082  -31.1945 H   0  0  0  0  0  0  0  0  0  0  0  0
   -6.8943    7.9088  -30.2164 H   0  0  0  0  0  0  0  0  0  0  0  0
   -8.7317    8.8497  -32.4426 H   0  0  0  0  0  0  0  0  0  0  0  0
   -8.5617    9.6995  -30.8984 H   0  0  0  0  0  0  0  0  0  0  0  0
   -8.3839   10.5766  -32.4222 H   0  0  0  0  0  0  0  0  0  0  0  0
   -6.3582   10.1432  -33.9170 H   0  0  0  0  0  0  0  0  0  0  0  0
   -5.0827    9.0652  -33.4456 H   0  0  0  0  0  0  0  0  0  0  0  0
   -7.3374   10.3697  -28.3041 H   0  0  0  0  0  0  0  0  0  0  0  0
   -8.1503    9.3847  -34.7651 H   0  0  0  0  0  0  0  0  0  0  0  0
  1  2  1  0  0  0  0
  1  3  2  0  0  0  0
  2  4  2  0  0  0  0
  3  6  1  0  0  0  0
  4  5  1  0  0  0  0
  4 11  1  0  0  0  0
  5  6  2  0  0  0  0
  5 13  1  0  0  0  0
  6 15  1  0  0  0  0
  7 10  1  0  0  0  0
  7 12  2  0  0  0  0
  7 14  1  0  0  0  0
  8 11  1  0  0  0  0
  9 11  1  0  0  0  0
 10 11  1  0  0  0  0
  1 16  1  0  0  0  0
  2 17  1  0  0  0  0
  3 18  1  0  0  0  0
  8 19  1  0  0  0  0
  8 20  1  0  0  0  0
  8 21  1  0  0  0  0
  9 22  1  0  0  0  0
  9 23  1  0  0  0  0
  9 24  1  0  0  0  0
 10 25  1  0  0  0  0
 10 26  1  0  0  0  0
 13 27  1  0  0  0  0
 14 28  1  0  0  0  0
M  END
> <id>
EN300-1923104

> <smiles>
CC(C)(CC(=O)O)C=1C=CC=C(Br)C1O

> <IUPAC Name>
3-(3-bromo-2-hydroxyphenyl)-3-methylbutanoic acid

> <CAS>
1891915-09-5

> <URL>
https://www.enaminestore.com/catalog/EN300-1923104

> <ROCS_ShapeQuery>
_x1604L0AP1_x0771L0AP1

> <ROCS_TanimotoCombo>
0.998 

> <ROCS_ShapeTanimoto>
0.548 

> <ROCS_ColorTanimoto>
0.449 

> <ROCS_RefTversky>
0.500 

> <ROCS_RefColorTversky>
0.571 

> <ROCS_RefTverskyCombo>
1.071 

> <ROCS_FitTversky>
1.216 

> <ROCS_FitColorTversky>
0.678 

> <ROCS_FitTverskyCombo>
1.894 

> <ROCS_ColorScore>
-5.492

> <ROCS_Overlap>
839.576

> <ROCS_Rank>
124                 

$$$$
untitled-dbase-1417_260
  -OEChem-06052310023D

 26 26  0     0  0  0  0  0  0999 V2000
   -4.6199   12.5050  -29.8742 C   0  0  0  0  0  0  0  0  0  0  0  0
   -5.0906   11.1488  -31.8173 C   0  0  0  0  0  0  0  0  0  0  0  0
   -4.3732   12.1779  -31.2075 C   0  0  0  0  0  0  0  0  0  0  0  0
   -5.5838   11.8029  -29.1506 C   0  0  0  0  0  0  0  0  0  0  0  0
   -6.3012   10.7737  -29.7604 C   0  0  0  0  0  0  0  0  0  0  0  0
   -6.0546   10.4466  -31.0938 C   0  0  0  0  0  0  0  0  0  0  0  0
   -6.8071   13.1268  -27.5992 C   0  0  0  0  0  0  0  0  0  0  0  0
   -3.3432   12.9295  -31.9809 C   0  0  0  0  0  0  0  0  0  0  0  0
   -2.6530   14.0220  -31.1617 C   0  0  0  0  0  0  0  0  0  0  0  0
   -0.7162   12.9003  -30.5556 N   0  0  0  0  0  0  0  0  0  0  0  0
   -7.2407   10.0993  -29.0364 O   0  0  0  0  0  0  0  0  0  0  0  0
   -5.8138   12.1344  -27.8493 O   0  0  0  0  0  0  0  0  0  0  0  0
   -1.9741   13.4351  -30.0588 O   0  0  0  0  0  0  0  0  0  0  0  0
   -7.0093    9.0545  -31.9566 Br  0  0  0  0  0  0  0  0  0  0  0  0
   -4.0622   13.3071  -29.3966 H   0  0  0  0  0  0  0  0  0  0  0  0
   -4.8914   10.9013  -32.8577 H   0  0  0  0  0  0  0  0  0  0  0  0
   -6.8906   13.2967  -26.5230 H   0  0  0  0  0  0  0  0  0  0  0  0
   -7.7667   12.7927  -28.0018 H   0  0  0  0  0  0  0  0  0  0  0  0
   -6.5120   14.0569  -28.0908 H   0  0  0  0  0  0  0  0  0  0  0  0
   -2.5818   12.2355  -32.3702 H   0  0  0  0  0  0  0  0  0  0  0  0
   -3.8106   13.3958  -32.8619 H   0  0  0  0  0  0  0  0  0  0  0  0
   -1.9093   14.5402  -31.7757 H   0  0  0  0  0  0  0  0  0  0  0  0
   -3.3712   14.7570  -30.7837 H   0  0  0  0  0  0  0  0  0  0  0  0
   -0.7886   11.9340  -30.2406 H   0  0  0  0  0  0  0  0  0  0  0  0
   -0.0583   13.3618  -29.9294 H   0  0  0  0  0  0  0  0  0  0  0  0
   -7.2833   10.4528  -28.1349 H   0  0  0  0  0  0  0  0  0  0  0  0
  1  3  1  0  0  0  0
  1  4  2  0  0  0  0
  2  3  2  0  0  0  0
  2  6  1  0  0  0  0
  3  8  1  0  0  0  0
  4  5  1  0  0  0  0
  4 12  1  0  0  0  0
  5  6  2  0  0  0  0
  5 11  1  0  0  0  0
  6 14  1  0  0  0  0
  7 12  1  0  0  0  0
  8  9  1  0  0  0  0
  9 13  1  0  0  0  0
 10 13  1  0  0  0  0
  1 15  1  0  0  0  0
  2 16  1  0  0  0  0
  7 17  1  0  0  0  0
  7 18  1  0  0  0  0
  7 19  1  0  0  0  0
  8 20  1  0  0  0  0
  8 21  1  0  0  0  0
  9 22  1  0  0  0  0
  9 23  1  0  0  0  0
 10 24  1  0  0  0  0
 10 25  1  0  0  0  0
 11 26  1  0  0  0  0
M  END
> <id>
EN300-1926996

> <smiles>
COC=1C=C(CCON)C=C(Br)C1O

> <IUPAC Name>
4-[2-(aminooxy)ethyl]-2-bromo-6-methoxyphenol

> <CAS>
2228419-19-8

> <URL>
https://www.enaminestore.com/catalog/EN300-1926996

> <ROCS_ShapeQuery>
_x1604L0AP1_x0771L0AP1

> <ROCS_TanimotoCombo>
0.998 

> <ROCS_ShapeTanimoto>
0.501 

> <ROCS_ColorTanimoto>
0.497 

> <ROCS_RefTversky>
0.462 

> <ROCS_RefColorTversky>
0.516 

> <ROCS_RefTverskyCombo>
0.977 

> <ROCS_FitTversky>
1.204 

> <ROCS_FitColorTversky>
0.932 

> <ROCS_FitTverskyCombo>
2.136 

> <ROCS_ColorScore>
-4.880

> <ROCS_Overlap>
774.299

> <ROCS_Rank>
125                 

$$$$
untitled-dbase-629_301
  -OEChem-06052310023D

 25 25  0     0  0  0  0  0  0999 V2000
   -4.3723   12.1646  -31.2364 C   0  0  0  0  0  0  0  0  0  0  0  0
   -4.6041   12.4925  -29.9006 C   0  0  0  0  0  0  0  0  0  0  0  0
   -5.1007   11.1391  -31.8394 C   0  0  0  0  0  0  0  0  0  0  0  0
   -5.5641   11.7947  -29.1677 C   0  0  0  0  0  0  0  0  0  0  0  0
   -6.2924   10.7692  -29.7706 C   0  0  0  0  0  0  0  0  0  0  0  0
   -6.0607   10.4414  -31.1065 C   0  0  0  0  0  0  0  0  0  0  0  0
   -4.9909   13.1871  -27.3269 C   0  0  0  0  0  0  0  0  0  0  0  0
   -4.8150   10.8280  -33.2735 C   0  0  0  0  0  0  0  0  0  0  0  0
   -6.0500   10.9203  -34.1750 C   0  0  0  0  0  0  0  0  0  0  0  0
   -5.8695    8.2781  -36.1441 N   0  5  0  0  0  0  0  0  0  0  0  0
   -5.6844   10.5803  -35.5527 N   0  0  0  0  0  0  0  0  0  0  0  0
   -5.7823    9.3785  -35.8568 N   0  3  0  0  0  0  0  0  0  0  0  0
   -7.2264   10.1014  -29.0328 O   0  0  0  0  0  0  0  0  0  0  0  0
   -5.7790   12.1267  -27.8639 O   0  0  0  0  0  0  0  0  0  0  0  0
   -7.0654    9.0466  -31.9240 Br  0  0  0  0  0  0  0  0  0  0  0  0
   -3.6222   12.7151  -31.7983 H   0  0  0  0  0  0  0  0  0  0  0  0
   -4.0340   13.2932  -29.4375 H   0  0  0  0  0  0  0  0  0  0  0  0
   -5.2618   13.3497  -26.2808 H   0  0  0  0  0  0  0  0  0  0  0  0
   -5.1627   14.0987  -27.9048 H   0  0  0  0  0  0  0  0  0  0  0  0
   -3.9353   12.9121  -27.3890 H   0  0  0  0  0  0  0  0  0  0  0  0
   -4.0269   11.4931  -33.6626 H   0  0  0  0  0  0  0  0  0  0  0  0
   -4.3997    9.8099  -33.3466 H   0  0  0  0  0  0  0  0  0  0  0  0
   -6.8143   10.2129  -33.8375 H   0  0  0  0  0  0  0  0  0  0  0  0
   -6.4898   11.9230  -34.1484 H   0  0  0  0  0  0  0  0  0  0  0  0
   -7.2551   10.4573  -28.1317 H   0  0  0  0  0  0  0  0  0  0  0  0
  1  2  1  0  0  0  0
  1  3  2  0  0  0  0
  2  4  2  0  0  0  0
  3  6  1  0  0  0  0
  3  8  1  0  0  0  0
  4  5  1  0  0  0  0
  4 14  1  0  0  0  0
  5  6  2  0  0  0  0
  5 13  1  0  0  0  0
  6 15  1  0  0  0  0
  7 14  1  0  0  0  0
  8  9  1  0  0  0  0
  9 11  1  0  0  0  0
 10 12  2  0  0  0  0
 11 12  2  0  0  0  0
  1 16  1  0  0  0  0
  2 17  1  0  0  0  0
  7 18  1  0  0  0  0
  7 19  1  0  0  0  0
  7 20  1  0  0  0  0
  8 21  1  0  0  0  0
  8 22  1  0  0  0  0
  9 23  1  0  0  0  0
  9 24  1  0  0  0  0
 13 25  1  0  0  0  0
M  CHG  2  10  -1  12   1
M  END
> <id>
EN300-1936288

> <smiles>
COC=1C=CC(CCN=[N+]=[N-])=C(Br)C1O

> <IUPAC Name>
3-(2-azidoethyl)-2-bromo-6-methoxyphenol

> <CAS>
2228430-74-6

> <URL>
https://www.enaminestore.com/catalog/EN300-1936288

> <ROCS_ShapeQuery>
_x1604L0AP1_x0771L0AP1

> <ROCS_TanimotoCombo>
0.997 

> <ROCS_ShapeTanimoto>
0.500 

> <ROCS_ColorTanimoto>
0.497 

> <ROCS_RefTversky>
0.471 

> <ROCS_RefColorTversky>
0.516 

> <ROCS_RefTverskyCombo>
0.986 

> <ROCS_FitTversky>
1.145 

> <ROCS_FitColorTversky>
0.932 

> <ROCS_FitTverskyCombo>
2.077 

> <ROCS_ColorScore>
-4.880

> <ROCS_Overlap>
790.759

> <ROCS_Rank>
126                 

$$$$
untitled-dbase-2201_128
  -OEChem-06052310023D

 30 31  0     0  0  0  0  0  0999 V2000
   -4.3533   12.1691  -31.2012 C   0  0  0  0  0  0  0  0  0  0  0  0
   -4.6025   12.4935  -29.8677 C   0  0  0  0  0  0  0  0  0  0  0  0
   -5.0738   11.1453  -31.8164 C   0  0  0  0  0  0  0  0  0  0  0  0
   -5.5722   11.7940  -29.1493 C   0  0  0  0  0  0  0  0  0  0  0  0
   -6.2927   10.7701  -29.7644 C   0  0  0  0  0  0  0  0  0  0  0  0
   -6.0434   10.4458  -31.0980 C   0  0  0  0  0  0  0  0  0  0  0  0
   -4.2879    9.4366  -33.5786 C   0  0  0  0  0  0  0  0  0  0  0  0
   -3.3236   10.5804  -33.6217 C   0  0  0  0  0  0  0  0  0  0  0  0
   -4.7701   10.8350  -33.2467 C   0  0  0  0  0  0  0  0  0  0  0  0
   -5.0232   13.1805  -27.2967 C   0  0  0  0  0  0  0  0  0  0  0  0
   -5.6463   11.5358  -34.2446 C   0  0  0  0  0  0  0  0  0  0  0  0
   -6.6688    9.7006  -35.2260 N   0  0  0  0  0  0  0  0  0  0  0  0
   -7.2362   10.1007  -29.0403 O   0  0  0  0  0  0  0  0  0  0  0  0
   -5.8041   12.1217  -27.8474 O   0  0  0  0  0  0  0  0  0  0  0  0
   -6.8861   10.8446  -34.3558 O   0  0  0  0  0  0  0  0  0  0  0  0
   -7.0338    9.0464  -31.9265 Br  0  0  0  0  0  0  0  0  0  0  0  0
   -3.5954   12.7211  -31.7509 H   0  0  0  0  0  0  0  0  0  0  0  0
   -4.0380   13.2922  -29.3944 H   0  0  0  0  0  0  0  0  0  0  0  0
   -4.5903    8.9971  -34.5221 H   0  0  0  0  0  0  0  0  0  0  0  0
   -4.1779    8.7160  -32.7763 H   0  0  0  0  0  0  0  0  0  0  0  0
   -2.5651   10.6268  -32.8486 H   0  0  0  0  0  0  0  0  0  0  0  0
   -2.9773   10.9116  -34.5939 H   0  0  0  0  0  0  0  0  0  0  0  0
   -5.3077   13.3396  -26.2537 H   0  0  0  0  0  0  0  0  0  0  0  0
   -5.1877   14.0939  -27.8738 H   0  0  0  0  0  0  0  0  0  0  0  0
   -3.9669   12.9059  -27.3460 H   0  0  0  0  0  0  0  0  0  0  0  0
   -5.1757   11.5599  -35.2369 H   0  0  0  0  0  0  0  0  0  0  0  0
   -5.8547   12.5682  -33.9329 H   0  0  0  0  0  0  0  0  0  0  0  0
   -7.3938    9.8595  -35.9241 H   0  0  0  0  0  0  0  0  0  0  0  0
   -7.0023    8.9469  -34.6270 H   0  0  0  0  0  0  0  0  0  0  0  0
   -7.2764   10.4544  -28.1388 H   0  0  0  0  0  0  0  0  0  0  0  0
  1  2  1  0  0  0  0
  1  3  2  0  0  0  0
  2  4  2  0  0  0  0
  3  6  1  0  0  0  0
  3  9  1  0  0  0  0
  4  5  1  0  0  0  0
  4 14  1  0  0  0  0
  5  6  2  0  0  0  0
  5 13  1  0  0  0  0
  6 16  1  0  0  0  0
  7  8  1  0  0  0  0
  7  9  1  0  0  0  0
  8  9  1  0  0  0  0
  9 11  1  0  0  0  0
 10 14  1  0  0  0  0
 11 15  1  0  0  0  0
 12 15  1  0  0  0  0
  1 17  1  0  0  0  0
  2 18  1  0  0  0  0
  7 19  1  0  0  0  0
  7 20  1  0  0  0  0
  8 21  1  0  0  0  0
  8 22  1  0  0  0  0
 10 23  1  0  0  0  0
 10 24  1  0  0  0  0
 10 25  1  0  0  0  0
 11 26  1  0  0  0  0
 11 27  1  0  0  0  0
 12 28  1  0  0  0  0
 12 29  1  0  0  0  0
 13 30  1  0  0  0  0
M  END
> <id>
EN300-2004964

> <smiles>
COC=1C=CC(=C(Br)C1O)C2(CON)CC2

> <IUPAC Name>
3-{1-[(aminooxy)methyl]cyclopropyl}-2-bromo-6-methoxyphenol

> <CAS>
2228485-31-0

> <URL>
https://www.enaminestore.com/catalog/EN300-2004964

> <ROCS_ShapeQuery>
_x1604L0AP1_x0771L0AP1

> <ROCS_TanimotoCombo>
0.997 

> <ROCS_ShapeTanimoto>
0.500 

> <ROCS_ColorTanimoto>
0.498 

> <ROCS_RefTversky>
0.479 

> <ROCS_RefColorTversky>
0.516 

> <ROCS_RefTverskyCombo>
0.996 

> <ROCS_FitTversky>
1.091 

> <ROCS_FitColorTversky>
0.933 

> <ROCS_FitTverskyCombo>
2.024 

> <ROCS_ColorScore>
-4.885

> <ROCS_Overlap>
806.773

> <ROCS_Rank>
127                 

$$$$
untitled-dbase-53_5
  -OEChem-06052310023D

 22 22  0     0  0  0  0  0  0999 V2000
   -4.6138   12.4970  -29.8452 C   0  0  0  0  0  0  0  0  0  0  0  0
   -5.5843   11.7926  -29.1328 C   0  0  0  0  0  0  0  0  0  0  0  0
   -5.0778   11.1576  -31.8017 C   0  0  0  0  0  0  0  0  0  0  0  0
   -4.3606   12.1795  -31.1797 C   0  0  0  0  0  0  0  0  0  0  0  0
   -6.3015   10.7706  -29.7548 C   0  0  0  0  0  0  0  0  0  0  0  0
   -6.0483   10.4531  -31.0893 C   0  0  0  0  0  0  0  0  0  0  0  0
   -2.6964   12.0950  -33.0710 C   0  0  0  0  0  0  0  0  0  0  0  0
   -2.2136   13.4916  -31.0286 C   0  0  0  0  0  0  0  0  0  0  0  0
   -3.3227   12.9332  -31.9403 C   0  0  0  0  0  0  0  0  0  0  0  0
   -7.2419   10.1003  -29.0305 O   0  0  0  0  0  0  0  0  0  0  0  0
   -7.0025    9.0697  -31.9658 Br  0  0  0  0  0  0  0  0  0  0  0  0
   -4.0603   13.2915  -29.3515 H   0  0  0  0  0  0  0  0  0  0  0  0
   -5.7760   12.0456  -28.0934 H   0  0  0  0  0  0  0  0  0  0  0  0
   -4.8739   10.9172  -32.8430 H   0  0  0  0  0  0  0  0  0  0  0  0
   -2.2111   11.1929  -32.6828 H   0  0  0  0  0  0  0  0  0  0  0  0
   -1.9423   12.6665  -33.6230 H   0  0  0  0  0  0  0  0  0  0  0  0
   -3.4661   11.7794  -33.7842 H   0  0  0  0  0  0  0  0  0  0  0  0
   -1.7060   12.6765  -30.5008 H   0  0  0  0  0  0  0  0  0  0  0  0
   -2.6202   14.1761  -30.2762 H   0  0  0  0  0  0  0  0  0  0  0  0
   -1.4581   14.0397  -31.6022 H   0  0  0  0  0  0  0  0  0  0  0  0
   -3.7819   13.8118  -32.4324 H   0  0  0  0  0  0  0  0  0  0  0  0
   -7.6636    9.4202  -29.5783 H   0  0  0  0  0  0  0  0  0  0  0  0
  1  2  1  0  0  0  0
  1  4  2  0  0  0  0
  2  5  2  0  0  0  0
  3  4  1  0  0  0  0
  3  6  2  0  0  0  0
  4  9  1  0  0  0  0
  5  6  1  0  0  0  0
  5 10  1  0  0  0  0
  6 11  1  0  0  0  0
  7  9  1  0  0  0  0
  8  9  1  0  0  0  0
  1 12  1  0  0  0  0
  2 13  1  0  0  0  0
  3 14  1  0  0  0  0
  7 15  1  0  0  0  0
  7 16  1  0  0  0  0
  7 17  1  0  0  0  0
  8 18  1  0  0  0  0
  8 19  1  0  0  0  0
  8 20  1  0  0  0  0
  9 21  1  0  0  0  0
 10 22  1  0  0  0  0
M  END
> <id>
EN300-127045

> <smiles>
CC(C)C=1C=CC(O)=C(Br)C1

> <MDLNUMBER>
MFCD08700373

> <IUPAC Name>
2-bromo-4-(propan-2-yl)phenol

> <CAS>
19432-27-0

> <Purity>
95

> <URL>
https://www.enaminestore.com/catalog/EN300-127045

> <ROCS_ShapeQuery>
_x1604L0AP1_x0771L0AP1

> <ROCS_TanimotoCombo>
0.996 

> <ROCS_ShapeTanimoto>
0.500 

> <ROCS_ColorTanimoto>
0.497 

> <ROCS_RefTversky>
0.436 

> <ROCS_RefColorTversky>
0.515 

> <ROCS_RefTverskyCombo>
0.952 

> <ROCS_FitTversky>
1.410 

> <ROCS_FitColorTversky>
0.932 

> <ROCS_FitTverskyCombo>
2.341 

> <ROCS_ColorScore>
-4.877

> <ROCS_Overlap>
729.190

> <ROCS_Rank>
128                 

$$$$
untitled-dbase-2293_0
  -OEChem-06052310023D

 17 18  0     0  0  0  0  0  0999 V2000
   -5.5710   11.7842  -29.1257 C   0  0  0  0  0  0  0  0  0  0  0  0
   -5.0699   11.1200  -31.8358 C   0  0  0  0  0  0  0  0  0  0  0  0
   -4.6210   12.4380  -29.8743 C   0  0  0  0  0  0  0  0  0  0  0  0
   -4.3781   12.1161  -31.1878 C   0  0  0  0  0  0  0  0  0  0  0  0
   -6.2918   10.7664  -29.7557 C   0  0  0  0  0  0  0  0  0  0  0  0
   -6.0428   10.4365  -31.1021 C   0  0  0  0  0  0  0  0  0  0  0  0
   -3.5827   13.5200  -29.8474 C   0  0  0  0  0  0  0  0  0  0  0  0
   -3.3065   13.1537  -31.3440 C   0  0  0  0  0  0  0  0  0  0  0  0
   -7.2406   10.1032  -29.0328 O   0  0  0  0  0  0  0  0  0  0  0  0
   -7.0202    9.0558  -31.9607 Br  0  0  0  0  0  0  0  0  0  0  0  0
   -5.7503   12.0497  -28.0903 H   0  0  0  0  0  0  0  0  0  0  0  0
   -4.8584   10.8868  -32.8733 H   0  0  0  0  0  0  0  0  0  0  0  0
   -3.9488   14.5413  -29.6964 H   0  0  0  0  0  0  0  0  0  0  0  0
   -2.7283   13.3578  -29.1812 H   0  0  0  0  0  0  0  0  0  0  0  0
   -2.2941   12.7810  -31.5338 H   0  0  0  0  0  0  0  0  0  0  0  0
   -3.5153   13.9654  -32.0494 H   0  0  0  0  0  0  0  0  0  0  0  0
   -7.6646    9.4266  -29.5821 H   0  0  0  0  0  0  0  0  0  0  0  0
  1  3  1  0  0  0  0
  1  5  2  0  0  0  0
  2  4  1  0  0  0  0
  2  6  2  0  0  0  0
  3  4  2  0  0  0  0
  3  7  1  0  0  0  0
  4  8  1  0  0  0  0
  5  6  1  0  0  0  0
  5  9  1  0  0  0  0
  6 10  1  0  0  0  0
  7  8  1  0  0  0  0
  1 11  1  0  0  0  0
  2 12  1  0  0  0  0
  7 13  1  0  0  0  0
  7 14  1  0  0  0  0
  8 15  1  0  0  0  0
  8 16  1  0  0  0  0
  9 17  1  0  0  0  0
M  END
> <id>
EN300-45428708

> <smiles>
OC=1C=C2CCC2=CC1Br

> <IUPAC Name>
4-bromobicyclo[4.2.0]octa-1(6),2,4-trien-3-ol

> <URL>
https://www.enaminestore.com/catalog/EN300-45428708

> <ROCS_ShapeQuery>
_x1604L0AP1_x0771L0AP1

> <ROCS_TanimotoCombo>
0.996 

> <ROCS_ShapeTanimoto>
0.498 

> <ROCS_ColorTanimoto>
0.498 

> <ROCS_RefTversky>
0.432 

> <ROCS_RefColorTversky>
0.518 

> <ROCS_RefTverskyCombo>
0.950 

> <ROCS_FitTversky>
1.442 

> <ROCS_FitColorTversky>
0.928 

> <ROCS_FitTverskyCombo>
2.370 

> <ROCS_ColorScore>
-4.902

> <ROCS_Overlap>
721.855

> <ROCS_Rank>
129                 

$$$$
untitled-dbase-730_20
  -OEChem-06052310023D

 17 17  0     0  0  0  0  0  0999 V2000
   -4.5838   12.4662  -29.8259 C   0  0  0  0  0  0  0  0  0  0  0  0
   -5.5674   11.7726  -29.1209 C   0  0  0  0  0  0  0  0  0  0  0  0
   -5.0511   11.1352  -31.7873 C   0  0  0  0  0  0  0  0  0  0  0  0
   -4.3257   12.1475  -31.1592 C   0  0  0  0  0  0  0  0  0  0  0  0
   -6.2929   10.7603  -29.7491 C   0  0  0  0  0  0  0  0  0  0  0  0
   -6.0348   10.4416  -31.0823 C   0  0  0  0  0  0  0  0  0  0  0  0
   -3.2994   12.8705  -31.8934 C   0  0  0  0  0  0  0  0  0  0  0  0
   -2.6180   13.8574  -31.2178 N   0  0  0  0  0  0  0  0  0  0  0  0
   -7.2478   10.1023  -29.0325 O   0  0  0  0  0  0  0  0  0  0  0  0
   -2.9391   12.5026  -33.4874 S   0  0  0  0  0  0  0  0  0  0  0  0
   -7.0015    9.0728  -31.9681 Br  0  0  0  0  0  0  0  0  0  0  0  0
   -4.0245   13.2532  -29.3267 H   0  0  0  0  0  0  0  0  0  0  0  0
   -5.7636   12.0269  -28.0827 H   0  0  0  0  0  0  0  0  0  0  0  0
   -4.8438   10.8916  -32.8272 H   0  0  0  0  0  0  0  0  0  0  0  0
   -2.8117   14.0911  -30.2492 H   0  0  0  0  0  0  0  0  0  0  0  0
   -1.8946   14.4003  -31.6777 H   0  0  0  0  0  0  0  0  0  0  0  0
   -7.6740    9.4280  -29.5838 H   0  0  0  0  0  0  0  0  0  0  0  0
  1  2  1  0  0  0  0
  1  4  2  0  0  0  0
  2  5  2  0  0  0  0
  3  4  1  0  0  0  0
  3  6  2  0  0  0  0
  4  7  1  0  0  0  0
  5  6  1  0  0  0  0
  5  9  1  0  0  0  0
  6 11  1  0  0  0  0
  7  8  1  0  0  0  0
  7 10  2  0  0  0  0
  1 12  1  0  0  0  0
  2 13  1  0  0  0  0
  3 14  1  0  0  0  0
  8 15  1  0  0  0  0
  8 16  1  0  0  0  0
  9 17  1  0  0  0  0
M  END
> <id>
EN300-1894834

> <smiles>
NC(=S)C=1C=CC(O)=C(Br)C1

> <MDLNUMBER>
MFCD09705416

> <IUPAC Name>
3-bromo-4-hydroxybenzene-1-carbothioamide

> <CAS>
25984-64-9

> <URL>
https://www.enaminestore.com/catalog/EN300-1894834

> <ROCS_ShapeQuery>
_x1604L0AP1_x0771L0AP1

> <ROCS_TanimotoCombo>
0.996 

> <ROCS_ShapeTanimoto>
0.499 

> <ROCS_ColorTanimoto>
0.497 

> <ROCS_RefTversky>
0.436 

> <ROCS_RefColorTversky>
0.515 

> <ROCS_RefTverskyCombo>
0.951 

> <ROCS_FitTversky>
1.407 

> <ROCS_FitColorTversky>
0.932 

> <ROCS_FitTverskyCombo>
2.339 

> <ROCS_ColorScore>
-4.878

> <ROCS_Overlap>
728.700

> <ROCS_Rank>
130                 

$$$$
untitled-dbase-2090_0
  -OEChem-06052310023D

 18 18  0     0  0  0  0  0  0999 V2000
   -4.5765   12.4578  -29.8199 C   0  0  0  0  0  0  0  0  0  0  0  0
   -5.5633   11.7667  -29.1168 C   0  0  0  0  0  0  0  0  0  0  0  0
   -5.0464   11.1312  -31.7836 C   0  0  0  0  0  0  0  0  0  0  0  0
   -4.3181   12.1401  -31.1533 C   0  0  0  0  0  0  0  0  0  0  0  0
   -6.2916   10.7578  -29.7472 C   0  0  0  0  0  0  0  0  0  0  0  0
   -6.0332   10.4400  -31.0806 C   0  0  0  0  0  0  0  0  0  0  0  0
   -3.2885   12.8606  -31.8855 C   0  0  0  0  0  0  0  0  0  0  0  0
   -3.0255   14.2849  -31.4914 C   0  0  0  0  0  0  0  0  0  0  0  0
   -2.6188   12.3918  -32.8083 O   0  0  0  0  0  0  0  0  0  0  0  0
   -7.2495   10.1021  -29.0324 O   0  0  0  0  0  0  0  0  0  0  0  0
   -7.0037    9.0758  -31.9693 Br  0  0  0  0  0  0  0  0  0  0  0  0
   -4.0149   13.2422  -29.3190 H   0  0  0  0  0  0  0  0  0  0  0  0
   -5.7596   12.0202  -28.0785 H   0  0  0  0  0  0  0  0  0  0  0  0
   -4.8388   10.8883  -32.8236 H   0  0  0  0  0  0  0  0  0  0  0  0
   -2.2573   14.3978  -30.7101 H   0  0  0  0  0  0  0  0  0  0  0  0
   -3.9281   14.8124  -31.1456 H   0  0  0  0  0  0  0  0  0  0  0  0
   -2.6462   14.9042  -32.3237 H   0  0  0  0  0  0  0  0  0  0  0  0
   -7.6775    9.4300  -29.5852 H   0  0  0  0  0  0  0  0  0  0  0  0
  1  2  1  0  0  0  0
  1  4  2  0  0  0  0
  2  5  2  0  0  0  0
  3  4  1  0  0  0  0
  3  6  2  0  0  0  0
  4  7  1  0  0  0  0
  5  6  1  0  0  0  0
  5 10  1  0  0  0  0
  6 11  1  0  0  0  0
  7  8  1  0  0  0  0
  7  9  2  0  0  0  0
  1 12  1  0  0  0  0
  2 13  1  0  0  0  0
  3 14  1  0  0  0  0
  8 15  1  0  0  0  0
  8 16  1  0  0  0  0
  8 17  1  0  0  0  0
 10 18  1  0  0  0  0
M  END
> <id>
EN300-261215

> <smiles>
CC(=O)C=1C=CC(O)=C(Br)C1

> <MDLNUMBER>
MFCD03208974

> <IUPAC Name>
1-(3-bromo-4-hydroxyphenyl)ethan-1-one

> <CAS>
1836-06-2

> <Purity>
95

> <URL>
https://www.enaminestore.com/catalog/EN300-261215

> <MP>
98-99

> <ROCS_ShapeQuery>
_x1604L0AP1_x0771L0AP1

> <ROCS_TanimotoCombo>
0.996 

> <ROCS_ShapeTanimoto>
0.499 

> <ROCS_ColorTanimoto>
0.497 

> <ROCS_RefTversky>
0.438 

> <ROCS_RefColorTversky>
0.515 

> <ROCS_RefTverskyCombo>
0.953 

> <ROCS_FitTversky>
1.387 

> <ROCS_FitColorTversky>
0.932 

> <ROCS_FitTverskyCombo>
2.319 

> <ROCS_ColorScore>
-4.878

> <ROCS_Overlap>
732.216

> <ROCS_Rank>
131                 

$$$$
untitled-dbase-1051_162
  -OEChem-06052310023D

 29 29  0     0  0  0  0  0  0999 V2000
   -4.2615   11.6972  -30.5169 C   0  0  0  0  0  0  0  0  0  0  0  0
   -4.4425   11.3433  -31.8539 C   0  0  0  0  0  0  0  0  0  0  0  0
   -5.1929   11.2992  -29.5578 C   0  0  0  0  0  0  0  0  0  0  0  0
   -5.5549   10.5915  -32.2319 C   0  0  0  0  0  0  0  0  0  0  0  0
   -6.3053   10.5473  -29.9358 C   0  0  0  0  0  0  0  0  0  0  0  0
   -6.4864   10.1935  -31.2728 C   0  0  0  0  0  0  0  0  0  0  0  0
   -4.0329    8.4152  -33.3160 C   0  0  0  0  0  0  0  0  0  0  0  0
   -4.9792    8.6989  -35.6071 C   0  0  0  0  0  0  0  0  0  0  0  0
   -5.7047   10.2347  -33.6928 C   0  0  0  0  0  0  0  0  0  0  0  0
   -6.4128    7.7544  -33.7819 C   0  0  0  0  0  0  0  0  0  0  0  0
   -5.3091    8.7853  -34.1057 C   0  0  0  0  0  0  0  0  0  0  0  0
   -7.1947   10.1770  -28.9709 O   0  0  0  0  0  0  0  0  0  0  0  0
   -6.2428    6.5672  -34.5451 O   0  0  0  0  0  0  0  0  0  0  0  0
   -8.0076    9.1673  -31.7765 Br  0  0  0  0  0  0  0  0  0  0  0  0
   -3.3956   12.2831  -30.2226 H   0  0  0  0  0  0  0  0  0  0  0  0
   -3.7105   11.6590  -32.5929 H   0  0  0  0  0  0  0  0  0  0  0  0
   -5.0453   11.5793  -28.5182 H   0  0  0  0  0  0  0  0  0  0  0  0
   -4.2087    8.4597  -32.2352 H   0  0  0  0  0  0  0  0  0  0  0  0
   -3.2053    9.0951  -33.5465 H   0  0  0  0  0  0  0  0  0  0  0  0
   -3.7020    7.3981  -33.5558 H   0  0  0  0  0  0  0  0  0  0  0  0
   -5.8513    8.9523  -36.2199 H   0  0  0  0  0  0  0  0  0  0  0  0
   -4.6434    7.6963  -35.8913 H   0  0  0  0  0  0  0  0  0  0  0  0
   -4.1750    9.3946  -35.8737 H   0  0  0  0  0  0  0  0  0  0  0  0
   -6.7499   10.4193  -33.9799 H   0  0  0  0  0  0  0  0  0  0  0  0
   -5.1265   10.9591  -34.2833 H   0  0  0  0  0  0  0  0  0  0  0  0
   -6.4078    7.4857  -32.7205 H   0  0  0  0  0  0  0  0  0  0  0  0
   -7.4027    8.1644  -34.0137 H   0  0  0  0  0  0  0  0  0  0  0  0
   -7.9171    9.6621  -29.3625 H   0  0  0  0  0  0  0  0  0  0  0  0
   -6.9639    5.9676  -34.2944 H   0  0  0  0  0  0  0  0  0  0  0  0
  1  2  1  0  0  0  0
  1  3  2  0  0  0  0
  2  4  2  0  0  0  0
  3  5  1  0  0  0  0
  4  6  1  0  0  0  0
  4  9  1  0  0  0  0
  5  6  2  0  0  0  0
  5 12  1  0  0  0  0
  6 14  1  0  0  0  0
  7 11  1  0  0  0  0
  8 11  1  0  0  0  0
  9 11  1  0  0  0  0
 10 11  1  0  0  0  0
 10 13  1  0  0  0  0
  1 15  1  0  0  0  0
  2 16  1  0  0  0  0
  3 17  1  0  0  0  0
  7 18  1  0  0  0  0
  7 19  1  0  0  0  0
  7 20  1  0  0  0  0
  8 21  1  0  0  0  0
  8 22  1  0  0  0  0
  8 23  1  0  0  0  0
  9 24  1  0  0  0  0
  9 25  1  0  0  0  0
 10 26  1  0  0  0  0
 10 27  1  0  0  0  0
 12 28  1  0  0  0  0
 13 29  1  0  0  0  0
M  END
> <id>
EN300-1904801

> <smiles>
CC(C)(CO)CC=1C=CC=C(O)C1Br

> <IUPAC Name>
2-bromo-3-(3-hydroxy-2,2-dimethylpropyl)phenol

> <CAS>
2229441-34-1

> <URL>
https://www.enaminestore.com/catalog/EN300-1904801

> <ROCS_ShapeQuery>
_x1604L0AP1_x0771L0AP1

> <ROCS_TanimotoCombo>
0.996 

> <ROCS_ShapeTanimoto>
0.461 

> <ROCS_ColorTanimoto>
0.534 

> <ROCS_RefTversky>
0.435 

> <ROCS_RefColorTversky>
0.608 

> <ROCS_RefTverskyCombo>
1.043 

> <ROCS_FitTversky>
1.148 

> <ROCS_FitColorTversky>
0.815 

> <ROCS_FitTverskyCombo>
1.964 

> <ROCS_ColorScore>
-5.817

> <ROCS_Overlap>
729.901

> <ROCS_Rank>
132                 

$$$$
untitled-dbase-138_0
  -OEChem-06052310023D

 19 20  0     0  0  0  0  0  0999 V2000
   -7.4566    9.8272  -33.2402 C   0  0  0  0  0  0  0  0  0  0  0  0
   -7.3966    9.9055  -31.8486 C   0  0  0  0  0  0  0  0  0  0  0  0
   -4.4639   12.1313  -31.3738 C   0  0  0  0  0  0  0  0  0  0  0  0
   -6.5264   10.5111  -34.0173 C   0  0  0  0  0  0  0  0  0  0  0  0
   -4.4041   12.2096  -29.9821 C   0  0  0  0  0  0  0  0  0  0  0  0
   -6.4033   10.6707  -31.2161 C   0  0  0  0  0  0  0  0  0  0  0  0
   -5.4573   11.3661  -32.0063 C   0  0  0  0  0  0  0  0  0  0  0  0
   -6.3280   10.7609  -29.8166 C   0  0  0  0  0  0  0  0  0  0  0  0
   -5.5327   11.2760  -33.4058 C   0  0  0  0  0  0  0  0  0  0  0  0
   -5.3343   11.5257  -29.2050 C   0  0  0  0  0  0  0  0  0  0  0  0
   -7.2351   10.0944  -29.0390 O   0  0  0  0  0  0  0  0  0  0  0  0
   -4.6476   11.9253  -34.1776 F   0  0  0  0  0  0  0  0  0  0  0  0
   -5.2148   11.6630  -27.3169 Br  0  0  0  0  0  0  0  0  0  0  0  0
   -8.2295    9.2319  -33.7174 H   0  0  0  0  0  0  0  0  0  0  0  0
   -8.1399    9.3578  -31.2735 H   0  0  0  0  0  0  0  0  0  0  0  0
   -3.7256   12.6748  -31.9596 H   0  0  0  0  0  0  0  0  0  0  0  0
   -6.5731   10.4497  -35.1005 H   0  0  0  0  0  0  0  0  0  0  0  0
   -3.6230   12.8104  -29.5233 H   0  0  0  0  0  0  0  0  0  0  0  0
   -7.0491   10.2572  -28.1030 H   0  0  0  0  0  0  0  0  0  0  0  0
  1  2  1  0  0  0  0
  1  4  2  0  0  0  0
  2  6  2  0  0  0  0
  3  5  2  0  0  0  0
  3  7  1  0  0  0  0
  4  9  1  0  0  0  0
  5 10  1  0  0  0  0
  6  7  1  0  0  0  0
  6  8  1  0  0  0  0
  7  9  2  0  0  0  0
  8 10  2  0  0  0  0
  8 11  1  0  0  0  0
  9 12  1  0  0  0  0
 10 13  1  0  0  0  0
  1 14  1  0  0  0  0
  2 15  1  0  0  0  0
  3 16  1  0  0  0  0
  4 17  1  0  0  0  0
  5 18  1  0  0  0  0
 11 19  1  0  0  0  0
M  END
> <id>
EN300-1144196

> <smiles>
OC=1C(Br)=CC=C2C(F)=CC=CC12

> <MDLNUMBER>
MFCD21875084

> <IUPAC Name>
2-bromo-5-fluoronaphthalen-1-ol

> <CAS>
1368920-66-4

> <URL>
https://www.enaminestore.com/catalog/EN300-1144196

> <ROCS_ShapeQuery>
_x1604L0AP1_x0771L0AP1

> <ROCS_TanimotoCombo>
0.995 

> <ROCS_ShapeTanimoto>
0.506 

> <ROCS_ColorTanimoto>
0.490 

> <ROCS_RefTversky>
0.464 

> <ROCS_RefColorTversky>
0.511 

> <ROCS_RefTverskyCombo>
0.974 

> <ROCS_FitTversky>
1.217 

> <ROCS_FitColorTversky>
0.923 

> <ROCS_FitTverskyCombo>
2.140 

> <ROCS_ColorScore>
-4.834

> <ROCS_Overlap>
777.828

> <ROCS_Rank>
133                 

$$$$
untitled-dbase-1757_22
  -OEChem-06052310023D

 21 21  0     0  0  0  0  0  0999 V2000
   -4.9203   11.0624  -31.7230 C   0  0  0  0  0  0  0  0  0  0  0  0
   -4.6637   12.5861  -29.8657 C   0  0  0  0  0  0  0  0  0  0  0  0
   -5.9061   10.3706  -31.0193 C   0  0  0  0  0  0  0  0  0  0  0  0
   -6.2707   10.7865  -29.7388 C   0  0  0  0  0  0  0  0  0  0  0  0
   -4.2990   12.1701  -31.1462 C   0  0  0  0  0  0  0  0  0  0  0  0
   -5.6496   11.8943  -29.1620 C   0  0  0  0  0  0  0  0  0  0  0  0
   -6.5585    9.1872  -31.6555 C   0  0  0  0  0  0  0  0  0  0  0  0
   -7.6262    9.5604  -32.6892 C   0  0  0  0  0  0  0  0  0  0  0  0
   -6.1875    9.0729  -35.6190 N   0  5  0  0  0  0  0  0  0  0  0  0
   -7.0163   10.3346  -33.7737 N   0  0  0  0  0  0  0  0  0  0  0  0
   -6.5853    9.6725  -34.7340 N   0  3  0  0  0  0  0  0  0  0  0  0
   -7.2369   10.0991  -29.0630 O   0  0  0  0  0  0  0  0  0  0  0  0
   -3.0825   13.0233  -32.0149 Cl  0  0  0  0  0  0  0  0  0  0  0  0
   -6.1178   12.4899  -27.4239 Br  0  0  0  0  0  0  0  0  0  0  0  0
   -4.6391   10.7350  -32.7217 H   0  0  0  0  0  0  0  0  0  0  0  0
   -4.1765   13.4501  -29.4192 H   0  0  0  0  0  0  0  0  0  0  0  0
   -5.8037    8.5370  -32.1284 H   0  0  0  0  0  0  0  0  0  0  0  0
   -7.0269    8.5672  -30.8735 H   0  0  0  0  0  0  0  0  0  0  0  0
   -8.0664    8.6547  -33.1188 H   0  0  0  0  0  0  0  0  0  0  0  0
   -8.4363   10.1404  -32.2342 H   0  0  0  0  0  0  0  0  0  0  0  0
   -7.3836   10.5003  -28.1930 H   0  0  0  0  0  0  0  0  0  0  0  0
  1  3  2  0  0  0  0
  1  5  1  0  0  0  0
  2  5  2  0  0  0  0
  2  6  1  0  0  0  0
  3  4  1  0  0  0  0
  3  7  1  0  0  0  0
  4  6  2  0  0  0  0
  4 12  1  0  0  0  0
  5 13  1  0  0  0  0
  6 14  1  0  0  0  0
  7  8  1  0  0  0  0
  8 10  1  0  0  0  0
  9 11  2  0  0  0  0
 10 11  2  0  0  0  0
  1 15  1  0  0  0  0
  2 16  1  0  0  0  0
  7 17  1  0  0  0  0
  7 18  1  0  0  0  0
  8 19  1  0  0  0  0
  8 20  1  0  0  0  0
 12 21  1  0  0  0  0
M  CHG  2   9  -1  11   1
M  END
> <id>
EN300-1922928

> <smiles>
OC=1C(Br)=CC(Cl)=CC1CCN=[N+]=[N-]

> <IUPAC Name>
2-(2-azidoethyl)-6-bromo-4-chlorophenol

> <CAS>
2228201-41-8

> <URL>
https://www.enaminestore.com/catalog/EN300-1922928

> <ROCS_ShapeQuery>
_x1604L0AP1_x0771L0AP1

> <ROCS_TanimotoCombo>
0.995 

> <ROCS_ShapeTanimoto>
0.599 

> <ROCS_ColorTanimoto>
0.396 

> <ROCS_RefTversky>
0.518 

> <ROCS_RefColorTversky>
0.413 

> <ROCS_RefTverskyCombo>
0.930 

> <ROCS_FitTversky>
1.355 

> <ROCS_FitColorTversky>
0.907 

> <ROCS_FitTverskyCombo>
2.262 

> <ROCS_ColorScore>
-3.887

> <ROCS_Overlap>
868.142

> <ROCS_Rank>
134                 

$$$$
untitled-dbase-1955_4
  -OEChem-06052310023D

 25 26  0     0  0  0  0  0  0999 V2000
   -7.1657   10.5515  -34.5102 C   0  0  0  0  0  0  0  0  0  0  0  0
   -6.7309   11.1226  -33.3142 C   0  0  0  0  0  0  0  0  0  0  0  0
   -7.0839    9.1712  -34.6943 C   0  0  0  0  0  0  0  0  0  0  0  0
   -5.4098   11.6931  -29.0432 C   0  0  0  0  0  0  0  0  0  0  0  0
   -6.2143   10.3134  -32.3023 C   0  0  0  0  0  0  0  0  0  0  0  0
   -6.2012   10.7961  -29.7855 C   0  0  0  0  0  0  0  0  0  0  0  0
   -6.5672    8.3621  -33.6824 C   0  0  0  0  0  0  0  0  0  0  0  0
   -6.1324    8.9332  -32.4864 C   0  0  0  0  0  0  0  0  0  0  0  0
   -5.7783   10.9571  -31.0823 C   0  0  0  0  0  0  0  0  0  0  0  0
   -4.0330   12.4227  -32.1513 C   0  0  0  0  0  0  0  0  0  0  0  0
   -4.5491   12.3734  -29.8051 N   0  0  0  0  0  0  0  0  0  0  0  0
   -4.7972   11.9036  -31.0396 N   0  0  0  0  0  0  0  0  0  0  0  0
   -7.1589    9.9699  -29.3199 N   0  0  0  0  0  0  0  0  0  0  0  0
   -6.5033    7.0177  -33.9012 O   0  0  0  0  0  0  0  0  0  0  0  0
   -5.4315    7.7981  -31.1223 Br  0  0  0  0  0  0  0  0  0  0  0  0
   -7.5673   11.1812  -35.2984 H   0  0  0  0  0  0  0  0  0  0  0  0
   -6.8028   12.2007  -33.1888 H   0  0  0  0  0  0  0  0  0  0  0  0
   -7.4233    8.7337  -35.6290 H   0  0  0  0  0  0  0  0  0  0  0  0
   -5.4228   11.8826  -27.9792 H   0  0  0  0  0  0  0  0  0  0  0  0
   -4.5667   13.2883  -32.5526 H   0  0  0  0  0  0  0  0  0  0  0  0
   -3.0377   12.7143  -31.8045 H   0  0  0  0  0  0  0  0  0  0  0  0
   -3.9329   11.6462  -32.9149 H   0  0  0  0  0  0  0  0  0  0  0  0
   -7.3744    9.8886  -28.3140 H   0  0  0  0  0  0  0  0  0  0  0  0
   -7.6602    9.3081  -29.9327 H   0  0  0  0  0  0  0  0  0  0  0  0
   -6.1279    6.5709  -33.1269 H   0  0  0  0  0  0  0  0  0  0  0  0
  1  2  1  0  0  0  0
  1  3  2  0  0  0  0
  2  5  2  0  0  0  0
  3  7  1  0  0  0  0
  4  6  1  0  0  0  0
  4 11  2  0  0  0  0
  5  8  1  0  0  0  0
  5  9  1  0  0  0  0
  6  9  2  0  0  0  0
  6 13  1  0  0  0  0
  7  8  2  0  0  0  0
  7 14  1  0  0  0  0
  8 15  1  0  0  0  0
  9 12  1  0  0  0  0
 10 12  1  0  0  0  0
 11 12  1  0  0  0  0
  1 16  1  0  0  0  0
  2 17  1  0  0  0  0
  3 18  1  0  0  0  0
  4 19  1  0  0  0  0
 10 20  1  0  0  0  0
 10 21  1  0  0  0  0
 10 22  1  0  0  0  0
 13 23  1  0  0  0  0
 13 24  1  0  0  0  0
 14 25  1  0  0  0  0
M  END
> <id>
EN300-2001790

> <smiles>
CN1N=CC(N)=C1C=2C=CC=C(O)C2Br

> <IUPAC Name>
3-(4-amino-1-methyl-1H-pyrazol-5-yl)-2-bromophenol

> <CAS>
2228247-49-0

> <URL>
https://www.enaminestore.com/catalog/EN300-2001790

> <ROCS_ShapeQuery>
_x1604L0AP1_x0771L0AP1

> <ROCS_TanimotoCombo>
0.995 

> <ROCS_ShapeTanimoto>
0.613 

> <ROCS_ColorTanimoto>
0.382 

> <ROCS_RefTversky>
0.544 

> <ROCS_RefColorTversky>
0.509 

> <ROCS_RefTverskyCombo>
1.053 

> <ROCS_FitTversky>
1.260 

> <ROCS_FitColorTversky>
0.605 

> <ROCS_FitTverskyCombo>
1.865 

> <ROCS_ColorScore>
-4.892

> <ROCS_Overlap>
914.876

> <ROCS_Rank>
135                 

$$$$
untitled-dbase-1533_1
  -OEChem-06052310023D

 15 15  0     0  0  0  0  0  0999 V2000
   -5.0476   11.1145  -31.8024 C   0  0  0  0  0  0  0  0  0  0  0  0
   -5.5531   11.7720  -29.1388 C   0  0  0  0  0  0  0  0  0  0  0  0
   -4.3148   12.1267  -31.1828 C   0  0  0  0  0  0  0  0  0  0  0  0
   -6.2860   10.7598  -29.7585 C   0  0  0  0  0  0  0  0  0  0  0  0
   -4.5675   12.4555  -29.8510 C   0  0  0  0  0  0  0  0  0  0  0  0
   -6.0332   10.4311  -31.0903 C   0  0  0  0  0  0  0  0  0  0  0  0
   -3.2941   12.8131  -31.9658 C   0  0  0  0  0  0  0  0  0  0  0  0
   -3.5476   13.4358  -32.9982 O   0  0  0  0  0  0  0  0  0  0  0  0
   -7.2420   10.1102  -29.0357 O   0  0  0  0  0  0  0  0  0  0  0  0
   -3.6832   13.7017  -29.0471 Cl  0  0  0  0  0  0  0  0  0  0  0  0
   -7.0100    9.0607  -31.9633 Br  0  0  0  0  0  0  0  0  0  0  0  0
   -4.8465   10.8615  -32.8414 H   0  0  0  0  0  0  0  0  0  0  0  0
   -5.7569   12.0213  -28.0999 H   0  0  0  0  0  0  0  0  0  0  0  0
   -2.2486   12.7583  -31.5965 H   0  0  0  0  0  0  0  0  0  0  0  0
   -7.6730    9.4350  -29.5822 H   0  0  0  0  0  0  0  0  0  0  0  0
  1  3  1  0  0  0  0
  1  6  2  0  0  0  0
  2  4  2  0  0  0  0
  2  5  1  0  0  0  0
  3  5  2  0  0  0  0
  3  7  1  0  0  0  0
  4  6  1  0  0  0  0
  4  9  1  0  0  0  0
  5 10  1  0  0  0  0
  6 11  1  0  0  0  0
  7  8  2  0  0  0  0
  1 12  1  0  0  0  0
  2 13  1  0  0  0  0
  7 14  1  0  0  0  0
  9 15  1  0  0  0  0
M  END
> <id>
EN300-1276897

> <smiles>
OC=1C=C(Cl)C(C=O)=CC1Br

> <MDLNUMBER>
MFCD30661254

> <IUPAC Name>
5-bromo-2-chloro-4-hydroxybenzaldehyde

> <CAS>
957774-27-5

> <Purity>
95

> <URL>
https://www.enaminestore.com/catalog/EN300-1276897

> <MP>
149-153

> <ROCS_ShapeQuery>
_x1604L0AP1_x0771L0AP1

> <ROCS_TanimotoCombo>
0.994 

> <ROCS_ShapeTanimoto>
0.498 

> <ROCS_ColorTanimoto>
0.497 

> <ROCS_RefTversky>
0.436 

> <ROCS_RefColorTversky>
0.515 

> <ROCS_RefTverskyCombo>
0.951 

> <ROCS_FitTversky>
1.399 

> <ROCS_FitColorTversky>
0.932 

> <ROCS_FitTverskyCombo>
2.331 

> <ROCS_ColorScore>
-4.879

> <ROCS_Overlap>
728.184

> <ROCS_Rank>
136                 

$$$$
untitled-dbase-1704_4
  -OEChem-06052310023D

 17 17  0     0  0  0  0  0  0999 V2000
   -3.1134   14.2405  -31.3867 C   0  0  0  0  0  0  0  0  0  0  0  0
   -4.5677   12.4494  -29.8145 C   0  0  0  0  0  0  0  0  0  0  0  0
   -5.5587   11.7618  -29.1140 C   0  0  0  0  0  0  0  0  0  0  0  0
   -5.0382   11.1255  -31.7799 C   0  0  0  0  0  0  0  0  0  0  0  0
   -4.3075   12.1313  -31.1474 C   0  0  0  0  0  0  0  0  0  0  0  0
   -6.2895   10.7560  -29.7464 C   0  0  0  0  0  0  0  0  0  0  0  0
   -6.0293   10.4378  -31.0794 C   0  0  0  0  0  0  0  0  0  0  0  0
   -3.2476   12.8669  -31.8952 C   0  0  0  0  0  0  0  0  0  0  0  0
   -3.0078   15.3247  -30.9867 N   0  0  0  0  0  0  0  0  0  0  0  0
   -7.2500   10.1019  -29.0337 O   0  0  0  0  0  0  0  0  0  0  0  0
   -7.0015    9.0760  -31.9699 Br  0  0  0  0  0  0  0  0  0  0  0  0
   -4.0037   13.2314  -29.3126 H   0  0  0  0  0  0  0  0  0  0  0  0
   -5.7559   12.0153  -28.0757 H   0  0  0  0  0  0  0  0  0  0  0  0
   -4.8287   10.8845  -32.8199 H   0  0  0  0  0  0  0  0  0  0  0  0
   -3.4805   12.8933  -32.9685 H   0  0  0  0  0  0  0  0  0  0  0  0
   -2.2834   12.3473  -31.8098 H   0  0  0  0  0  0  0  0  0  0  0  0
   -7.6793    9.4320  -29.5880 H   0  0  0  0  0  0  0  0  0  0  0  0
  1  8  1  0  0  0  0
  1  9  3  0  0  0  0
  2  3  1  0  0  0  0
  2  5  2  0  0  0  0
  3  6  2  0  0  0  0
  4  5  1  0  0  0  0
  4  7  2  0  0  0  0
  5  8  1  0  0  0  0
  6  7  1  0  0  0  0
  6 10  1  0  0  0  0
  7 11  1  0  0  0  0
  2 12  1  0  0  0  0
  3 13  1  0  0  0  0
  4 14  1  0  0  0  0
  8 15  1  0  0  0  0
  8 16  1  0  0  0  0
 10 17  1  0  0  0  0
M  END
> <id>
EN300-1894070

> <smiles>
OC=1C=CC(CC#N)=CC1Br

> <MDLNUMBER>
MFCD18391513

> <IUPAC Name>
2-(3-bromo-4-hydroxyphenyl)acetonitrile

> <CAS>
73348-21-7

> <URL>
https://www.enaminestore.com/catalog/EN300-1894070

> <ROCS_ShapeQuery>
_x1604L0AP1_x0771L0AP1

> <ROCS_TanimotoCombo>
0.994 

> <ROCS_ShapeTanimoto>
0.498 

> <ROCS_ColorTanimoto>
0.497 

> <ROCS_RefTversky>
0.436 

> <ROCS_RefColorTversky>
0.515 

> <ROCS_RefTverskyCombo>
0.951 

> <ROCS_FitTversky>
1.395 

> <ROCS_FitColorTversky>
0.932 

> <ROCS_FitTverskyCombo>
2.327 

> <ROCS_ColorScore>
-4.877

> <ROCS_Overlap>
728.933

> <ROCS_Rank>
137                 

$$$$
untitled-dbase-1440_688
  -OEChem-06052310023D

 29 29  0     1  0  0  0  0  0999 V2000
   -4.6379   12.5230  -29.8689 C   0  0  0  0  0  0  0  0  0  0  0  0
   -5.1079   11.1756  -31.8183 C   0  0  0  0  0  0  0  0  0  0  0  0
   -4.3958   12.2067  -31.2056 C   0  0  0  0  0  0  0  0  0  0  0  0
   -5.5921   11.8081  -29.1448 C   0  0  0  0  0  0  0  0  0  0  0  0
   -6.3041   10.7770  -29.7575 C   0  0  0  0  0  0  0  0  0  0  0  0
   -6.0620   10.4607  -31.0943 C   0  0  0  0  0  0  0  0  0  0  0  0
   -2.2811   12.0549  -32.5606 C   0  0  0  0  0  0  0  0  0  0  0  0
   -6.8178   13.1116  -27.5782 C   0  0  0  0  0  0  0  0  0  0  0  0
   -2.7193   14.1048  -31.1582 C   0  0  0  0  0  0  0  0  0  0  0  0
   -3.3763   12.9718  -31.9797 C   0  0  2  0  0  0  0  0  0  0  0  0
   -1.9240   14.6221  -29.0425 N   0  0  0  0  0  0  0  0  0  0  0  0
   -7.2340   10.0900  -29.0329 O   0  0  0  0  0  0  0  0  0  0  0  0
   -5.8177   12.1292  -27.8401 O   0  0  0  0  0  0  0  0  0  0  0  0
   -2.0996   13.5467  -30.0049 O   0  0  0  0  0  0  0  0  0  0  0  0
   -7.0098    9.0663  -31.9611 Br  0  0  0  0  0  0  0  0  0  0  0  0
   -4.0843   13.3266  -29.3891 H   0  0  0  0  0  0  0  0  0  0  0  0
   -4.9123   10.9366  -32.8614 H   0  0  0  0  0  0  0  0  0  0  0  0
   -1.7395   11.5240  -31.7700 H   0  0  0  0  0  0  0  0  0  0  0  0
   -2.7024   11.3028  -33.2363 H   0  0  0  0  0  0  0  0  0  0  0  0
   -1.5516   12.6434  -33.1280 H   0  0  0  0  0  0  0  0  0  0  0  0
   -6.8970   13.2738  -26.5005 H   0  0  0  0  0  0  0  0  0  0  0  0
   -7.7768   12.7721  -27.9777 H   0  0  0  0  0  0  0  0  0  0  0  0
   -6.5332   14.0473  -28.0652 H   0  0  0  0  0  0  0  0  0  0  0  0
   -3.4640   14.8314  -30.8156 H   0  0  0  0  0  0  0  0  0  0  0  0
   -1.9599   14.6388  -31.7388 H   0  0  0  0  0  0  0  0  0  0  0  0
   -3.8625   13.4598  -32.8475 H   0  0  0  0  0  0  0  0  0  0  0  0
   -0.9235   14.5490  -28.8644 H   0  0  0  0  0  0  0  0  0  0  0  0
   -2.3937   14.2228  -28.2313 H   0  0  0  0  0  0  0  0  0  0  0  0
   -7.2747   10.4373  -28.1288 H   0  0  0  0  0  0  0  0  0  0  0  0
  1  3  1  0  0  0  0
  1  4  2  0  0  0  0
  2  3  2  0  0  0  0
  2  6  1  0  0  0  0
  3 10  1  0  0  0  0
  4  5  1  0  0  0  0
  4 13  1  0  0  0  0
  5  6  2  0  0  0  0
  5 12  1  0  0  0  0
  6 15  1  0  0  0  0
  7 10  1  0  0  0  0
  8 13  1  0  0  0  0
  9 10  1  0  0  0  0
  9 14  1  0  0  0  0
 11 14  1  0  0  0  0
  1 16  1  0  0  0  0
  2 17  1  0  0  0  0
  7 18  1  0  0  0  0
  7 19  1  0  0  0  0
  7 20  1  0  0  0  0
  8 21  1  0  0  0  0
  8 22  1  0  0  0  0
  8 23  1  0  0  0  0
  9 24  1  0  0  0  0
  9 25  1  0  0  0  0
 10 26  1  0  0  0  0
 11 27  1  0  0  0  0
 11 28  1  0  0  0  0
 12 29  1  0  0  0  0
M  END
> <id>
EN300-1927002

> <smiles>
COC=1C=C(C=C(Br)C1O)C(C)CON

> <IUPAC Name>
4-[1-(aminooxy)propan-2-yl]-2-bromo-6-methoxyphenol

> <CAS>
2229368-29-8

> <URL>
https://www.enaminestore.com/catalog/EN300-1927002

> <ROCS_ShapeQuery>
_x1604L0AP1_x0771L0AP1

> <ROCS_TanimotoCombo>
0.994 

> <ROCS_ShapeTanimoto>
0.543 

> <ROCS_ColorTanimoto>
0.451 

> <ROCS_RefTversky>
0.495 

> <ROCS_RefColorTversky>
0.513 

> <ROCS_RefTverskyCombo>
1.007 

> <ROCS_FitTversky>
1.219 

> <ROCS_FitColorTversky>
0.788 

> <ROCS_FitTverskyCombo>
2.007 

> <ROCS_ColorScore>
-4.877

> <ROCS_Overlap>
831.281

> <ROCS_Rank>
138                 

$$$$
untitled-dbase-1064_6
  -OEChem-06052310023D

 18 18  0     0  0  0  0  0  0999 V2000
   -2.9971   15.3663  -30.9822 C   0  0  0  0  0  0  0  0  0  0  0  0
   -3.1082   14.2444  -31.3956 C   0  0  0  0  0  0  0  0  0  0  0  0
   -4.5681   12.4498  -29.8174 C   0  0  0  0  0  0  0  0  0  0  0  0
   -5.5589   11.7628  -29.1159 C   0  0  0  0  0  0  0  0  0  0  0  0
   -5.0398   11.1245  -31.7816 C   0  0  0  0  0  0  0  0  0  0  0  0
   -4.3085   12.1307  -31.1502 C   0  0  0  0  0  0  0  0  0  0  0  0
   -6.2901   10.7567  -29.7473 C   0  0  0  0  0  0  0  0  0  0  0  0
   -6.0305   10.4375  -31.0802 C   0  0  0  0  0  0  0  0  0  0  0  0
   -3.2489   12.8656  -31.8991 C   0  0  0  0  0  0  0  0  0  0  0  0
   -7.2503   10.1032  -29.0337 O   0  0  0  0  0  0  0  0  0  0  0  0
   -7.0034    9.0752  -31.9693 Br  0  0  0  0  0  0  0  0  0  0  0  0
   -2.8991   16.3611  -30.6153 H   0  0  0  0  0  0  0  0  0  0  0  0
   -4.0038   13.2320  -29.3164 H   0  0  0  0  0  0  0  0  0  0  0  0
   -5.7555   12.0170  -28.0777 H   0  0  0  0  0  0  0  0  0  0  0  0
   -4.8308   10.8828  -32.8216 H   0  0  0  0  0  0  0  0  0  0  0  0
   -3.4774   12.8940  -32.9765 H   0  0  0  0  0  0  0  0  0  0  0  0
   -2.2796   12.3482  -31.8169 H   0  0  0  0  0  0  0  0  0  0  0  0
   -7.6800    9.4329  -29.5873 H   0  0  0  0  0  0  0  0  0  0  0  0
  1  2  3  0  0  0  0
  2  9  1  0  0  0  0
  3  4  1  0  0  0  0
  3  6  2  0  0  0  0
  4  7  2  0  0  0  0
  5  6  1  0  0  0  0
  5  8  2  0  0  0  0
  6  9  1  0  0  0  0
  7  8  1  0  0  0  0
  7 10  1  0  0  0  0
  8 11  1  0  0  0  0
  1 12  1  0  0  0  0
  3 13  1  0  0  0  0
  4 14  1  0  0  0  0
  5 15  1  0  0  0  0
  9 16  1  0  0  0  0
  9 17  1  0  0  0  0
 10 18  1  0  0  0  0
M  END
> <id>
EN300-1906335

> <smiles>
OC=1C=CC(CC#C)=CC1Br

> <MDLNUMBER>
MFCD33501284

> <IUPAC Name>
2-bromo-4-(prop-2-yn-1-yl)phenol

> <CAS>
2228973-05-3

> <URL>
https://www.enaminestore.com/catalog/EN300-1906335

> <ROCS_ShapeQuery>
_x1604L0AP1_x0771L0AP1

> <ROCS_TanimotoCombo>
0.994 

> <ROCS_ShapeTanimoto>
0.497 

> <ROCS_ColorTanimoto>
0.497 

> <ROCS_RefTversky>
0.436 

> <ROCS_RefColorTversky>
0.515 

> <ROCS_RefTverskyCombo>
0.951 

> <ROCS_FitTversky>
1.396 

> <ROCS_FitColorTversky>
0.932 

> <ROCS_FitTverskyCombo>
2.328 

> <ROCS_ColorScore>
-4.878

> <ROCS_Overlap>
727.844

> <ROCS_Rank>
139                 

$$$$
untitled-dbase-49_0
  -OEChem-06052310023D

 16 16  0     0  0  0  0  0  0999 V2000
   -4.5944   12.4899  -29.8697 C   0  0  0  0  0  0  0  0  0  0  0  0
   -4.3515   12.1634  -31.2038 C   0  0  0  0  0  0  0  0  0  0  0  0
   -5.5637   11.7944  -29.1468 C   0  0  0  0  0  0  0  0  0  0  0  0
   -6.2901   10.7726  -29.7581 C   0  0  0  0  0  0  0  0  0  0  0  0
   -5.0779   11.1416  -31.8152 C   0  0  0  0  0  0  0  0  0  0  0  0
   -6.0472   10.4461  -31.0923 C   0  0  0  0  0  0  0  0  0  0  0  0
   -5.8062   12.1605  -27.7195 C   0  0  0  0  0  0  0  0  0  0  0  0
   -7.2347   10.1021  -29.0366 O   0  0  0  0  0  0  0  0  0  0  0  0
   -4.8292   10.8423  -33.0984 F   0  0  0  0  0  0  0  0  0  0  0  0
   -7.0195    9.0605  -31.9486 Br  0  0  0  0  0  0  0  0  0  0  0  0
   -4.0234   13.2885  -29.4031 H   0  0  0  0  0  0  0  0  0  0  0  0
   -3.5970   12.7049  -31.7670 H   0  0  0  0  0  0  0  0  0  0  0  0
   -6.5780   12.9360  -27.6519 H   0  0  0  0  0  0  0  0  0  0  0  0
   -6.1332   11.2903  -27.1370 H   0  0  0  0  0  0  0  0  0  0  0  0
   -4.8908   12.5361  -27.2455 H   0  0  0  0  0  0  0  0  0  0  0  0
   -7.6554    9.4247  -29.5876 H   0  0  0  0  0  0  0  0  0  0  0  0
  1  2  1  0  0  0  0
  1  3  2  0  0  0  0
  2  5  2  0  0  0  0
  3  4  1  0  0  0  0
  3  7  1  0  0  0  0
  4  6  2  0  0  0  0
  4  8  1  0  0  0  0
  5  6  1  0  0  0  0
  5  9  1  0  0  0  0
  6 10  1  0  0  0  0
  1 11  1  0  0  0  0
  2 12  1  0  0  0  0
  7 13  1  0  0  0  0
  7 14  1  0  0  0  0
  7 15  1  0  0  0  0
  8 16  1  0  0  0  0
M  END
> <id>
EN300-198658

> <smiles>
CC=1C=CC(F)=C(Br)C1O

> <MDLNUMBER>
MFCD22414712

> <IUPAC Name>
2-bromo-3-fluoro-6-methylphenol

> <CAS>
1522001-79-1

> <URL>
https://www.enaminestore.com/catalog/EN300-198658

> <ROCS_ShapeQuery>
_x1604L0AP1_x0771L0AP1

> <ROCS_TanimotoCombo>
0.993 

> <ROCS_ShapeTanimoto>
0.440 

> <ROCS_ColorTanimoto>
0.553 

> <ROCS_RefTversky>
0.395 

> <ROCS_RefColorTversky>
0.518 

> <ROCS_RefTverskyCombo>
0.913 

> <ROCS_FitTversky>
1.351 

> <ROCS_FitColorTversky>
1.139 

> <ROCS_FitTverskyCombo>
2.490 

> <ROCS_ColorScore>
-4.881

> <ROCS_Overlap>
659.010

> <ROCS_Rank>
140                 

$$$$
untitled-dbase-1719_70
  -OEChem-06052310023D

 25 25  0     1  0  0  0  0  0999 V2000
   -4.3141   12.0786  -31.2947 C   0  0  0  0  0  0  0  0  0  0  0  0
   -5.1665   11.1874  -31.9464 C   0  0  0  0  0  0  0  0  0  0  0  0
   -4.4379   12.2838  -29.9205 C   0  0  0  0  0  0  0  0  0  0  0  0
   -6.1428   10.5015  -31.2240 C   0  0  0  0  0  0  0  0  0  0  0  0
   -6.2667   10.7066  -29.8499 C   0  0  0  0  0  0  0  0  0  0  0  0
   -5.4142   11.5978  -29.1981 C   0  0  0  0  0  0  0  0  0  0  0  0
   -6.3127    8.3994  -32.6637 C   0  0  0  0  0  0  0  0  0  0  0  0
   -7.1456    7.7176  -33.7443 C   0  0  0  0  0  0  0  0  0  0  0  0
   -7.0584    9.5396  -31.9518 C   0  0  2  0  0  0  0  0  0  0  0  0
   -7.8943   10.2560  -32.8912 N   0  0  0  0  0  0  0  0  0  0  0  0
   -7.2279   10.0293  -29.1572 O   0  0  0  0  0  0  0  0  0  0  0  0
   -6.3751    6.6718  -34.3224 O   0  0  0  0  0  0  0  0  0  0  0  0
   -5.5498   11.9034  -27.3321 Br  0  0  0  0  0  0  0  0  0  0  0  0
   -3.5535   12.6124  -31.8570 H   0  0  0  0  0  0  0  0  0  0  0  0
   -5.0615   11.0318  -33.0168 H   0  0  0  0  0  0  0  0  0  0  0  0
   -3.7642   12.9818  -29.4299 H   0  0  0  0  0  0  0  0  0  0  0  0
   -5.3982    8.7951  -33.1269 H   0  0  0  0  0  0  0  0  0  0  0  0
   -5.9583    7.6465  -31.9473 H   0  0  0  0  0  0  0  0  0  0  0  0
   -8.0580    7.2794  -33.3291 H   0  0  0  0  0  0  0  0  0  0  0  0
   -7.4157    8.4264  -34.5334 H   0  0  0  0  0  0  0  0  0  0  0  0
   -7.7593    9.0918  -31.2361 H   0  0  0  0  0  0  0  0  0  0  0  0
   -8.5144    9.6109  -33.3302 H   0  0  0  0  0  0  0  0  0  0  0  0
   -8.4154   10.9478  -32.3979 H   0  0  0  0  0  0  0  0  0  0  0  0
   -7.1949   10.2714  -28.2192 H   0  0  0  0  0  0  0  0  0  0  0  0
   -6.9303    6.2591  -35.0034 H   0  0  0  0  0  0  0  0  0  0  0  0
  1  2  1  0  0  0  0
  1  3  2  0  0  0  0
  2  4  2  0  0  0  0
  3  6  1  0  0  0  0
  4  5  1  0  0  0  0
  4  9  1  0  0  0  0
  5  6  2  0  0  0  0
  5 11  1  0  0  0  0
  6 13  1  0  0  0  0
  7  8  1  0  0  0  0
  7  9  1  0  0  0  0
  8 12  1  0  0  0  0
  9 10  1  0  0  0  0
  1 14  1  0  0  0  0
  2 15  1  0  0  0  0
  3 16  1  0  0  0  0
  7 17  1  0  0  0  0
  7 18  1  0  0  0  0
  8 19  1  0  0  0  0
  8 20  1  0  0  0  0
  9 21  1  0  0  0  0
 10 22  1  0  0  0  0
 10 23  1  0  0  0  0
 11 24  1  0  0  0  0
 12 25  1  0  0  0  0
M  END
> <id>
EN300-1896540

> <smiles>
NC(CCO)C=1C=CC=C(Br)C1O

> <MDLNUMBER>
MFCD24528788

> <IUPAC Name>
2-(1-amino-3-hydroxypropyl)-6-bromophenol

> <CAS>
1337462-85-7

> <URL>
https://www.enaminestore.com/catalog/EN300-1896540

> <ROCS_ShapeQuery>
_x1604L0AP1_x0771L0AP1

> <ROCS_TanimotoCombo>
0.993 

> <ROCS_ShapeTanimoto>
0.519 

> <ROCS_ColorTanimoto>
0.474 

> <ROCS_RefTversky>
0.463 

> <ROCS_RefColorTversky>
0.592 

> <ROCS_RefTverskyCombo>
1.055 

> <ROCS_FitTversky>
1.300 

> <ROCS_FitColorTversky>
0.704 

> <ROCS_FitTverskyCombo>
2.004 

> <ROCS_ColorScore>
-5.694

> <ROCS_Overlap>
775.985

> <ROCS_Rank>
141                 

$$$$
untitled-dbase-1279_6
  -OEChem-06052310023D

 24 24  0     1  0  0  0  0  0999 V2000
   -5.1264   11.4034  -31.8225 C   0  0  0  0  0  0  0  0  0  0  0  0
   -4.4294   12.3406  -29.7075 C   0  0  0  0  0  0  0  0  0  0  0  0
   -6.1126   10.6638  -31.1697 C   0  0  0  0  0  0  0  0  0  0  0  0
   -6.2572   10.7626  -29.7859 C   0  0  0  0  0  0  0  0  0  0  0  0
   -4.2848   12.2418  -31.0914 C   0  0  0  0  0  0  0  0  0  0  0  0
   -5.4156   11.6010  -29.0548 C   0  0  0  0  0  0  0  0  0  0  0  0
   -6.2589    8.6791  -32.7625 C   0  0  0  0  0  0  0  0  0  0  0  0
   -7.1911    7.7213  -33.5091 C   0  0  0  0  0  0  0  0  0  0  0  0
   -7.0124    9.7628  -31.9801 C   0  0  2  0  0  0  0  0  0  0  0  0
   -6.4119    6.7129  -34.2194 N   0  0  0  0  0  0  0  0  0  0  0  0
   -7.2267   10.0324  -29.1618 O   0  0  0  0  0  0  0  0  0  0  0  0
   -7.7954   10.4483  -32.8665 F   0  0  0  0  0  0  0  0  0  0  0  0
   -3.0679   13.1541  -31.8973 Cl  0  0  0  0  0  0  0  0  0  0  0  0
   -5.5810   11.7618  -27.1729 Br  0  0  0  0  0  0  0  0  0  0  0  0
   -5.0172   11.3239  -32.9020 H   0  0  0  0  0  0  0  0  0  0  0  0
   -3.7708   12.9952  -29.1410 H   0  0  0  0  0  0  0  0  0  0  0  0
   -5.5530    9.1388  -33.4655 H   0  0  0  0  0  0  0  0  0  0  0  0
   -5.6657    8.0976  -32.0446 H   0  0  0  0  0  0  0  0  0  0  0  0
   -7.8087    8.2652  -34.2313 H   0  0  0  0  0  0  0  0  0  0  0  0
   -7.8624    7.2200  -32.8040 H   0  0  0  0  0  0  0  0  0  0  0  0
   -7.7101    9.2766  -31.2876 H   0  0  0  0  0  0  0  0  0  0  0  0
   -7.0420    6.0928  -34.6713 H   0  0  0  0  0  0  0  0  0  0  0  0
   -5.8379    7.1747  -34.8851 H   0  0  0  0  0  0  0  0  0  0  0  0
   -7.2083   10.2017  -28.2077 H   0  0  0  0  0  0  0  0  0  0  0  0
  1  3  2  0  0  0  0
  1  5  1  0  0  0  0
  2  5  2  0  0  0  0
  2  6  1  0  0  0  0
  3  4  1  0  0  0  0
  3  9  1  0  0  0  0
  4  6  2  0  0  0  0
  4 11  1  0  0  0  0
  5 13  1  0  0  0  0
  6 14  1  0  0  0  0
  7  8  1  0  0  0  0
  7  9  1  0  0  0  0
  8 10  1  0  0  0  0
  9 12  1  0  0  0  0
  1 15  1  0  0  0  0
  2 16  1  0  0  0  0
  7 17  1  0  0  0  0
  7 18  1  0  0  0  0
  8 19  1  0  0  0  0
  8 20  1  0  0  0  0
  9 21  1  0  0  0  0
 10 22  1  0  0  0  0
 10 23  1  0  0  0  0
 11 24  1  0  0  0  0
M  END
> <id>
EN300-1922901

> <smiles>
NCCC(F)C=1C=C(Cl)C=C(Br)C1O

> <IUPAC Name>
2-(3-amino-1-fluoropropyl)-6-bromo-4-chlorophenol

> <CAS>
2228514-23-4

> <URL>
https://www.enaminestore.com/catalog/EN300-1922901

> <ROCS_ShapeQuery>
_x1604L0AP1_x0771L0AP1

> <ROCS_TanimotoCombo>
0.993 

> <ROCS_ShapeTanimoto>
0.563 

> <ROCS_ColorTanimoto>
0.429 

> <ROCS_RefTversky>
0.496 

> <ROCS_RefColorTversky>
0.496 

> <ROCS_RefTverskyCombo>
0.992 

> <ROCS_FitTversky>
1.315 

> <ROCS_FitColorTversky>
0.762 

> <ROCS_FitTverskyCombo>
2.077 

> <ROCS_ColorScore>
-4.715

> <ROCS_Overlap>
832.315

> <ROCS_Rank>
142                 

$$$$
untitled-dbase-1212_16
  -OEChem-06052310023D

 22 23  0     0  0  0  0  0  0999 V2000
   -3.5392   13.2220  -34.5323 C   0  0  0  0  0  0  0  0  0  0  0  0
   -3.4260   13.0776  -33.3460 C   0  0  0  0  0  0  0  0  0  0  0  0
   -4.5968   12.4775  -29.8291 C   0  0  0  0  0  0  0  0  0  0  0  0
   -5.5770   11.7803  -29.1229 C   0  0  0  0  0  0  0  0  0  0  0  0
   -5.0576   11.1409  -31.7883 C   0  0  0  0  0  0  0  0  0  0  0  0
   -4.3371   12.1578  -31.1618 C   0  0  0  0  0  0  0  0  0  0  0  0
   -6.2975   10.7634  -29.7494 C   0  0  0  0  0  0  0  0  0  0  0  0
   -6.0378   10.4437  -31.0821 C   0  0  0  0  0  0  0  0  0  0  0  0
   -1.8544   12.7772  -31.4052 C   0  0  0  0  0  0  0  0  0  0  0  0
   -2.5997   14.0512  -31.1788 C   0  0  0  0  0  0  0  0  0  0  0  0
   -3.2899   12.9032  -31.9156 C   0  0  0  0  0  0  0  0  0  0  0  0
   -7.2484   10.1011  -29.0313 O   0  0  0  0  0  0  0  0  0  0  0  0
   -6.9971    9.0681  -31.9654 Br  0  0  0  0  0  0  0  0  0  0  0  0
   -3.6396   13.3502  -35.5848 H   0  0  0  0  0  0  0  0  0  0  0  0
   -4.0409   13.2681  -29.3320 H   0  0  0  0  0  0  0  0  0  0  0  0
   -5.7739   12.0346  -28.0849 H   0  0  0  0  0  0  0  0  0  0  0  0
   -4.8488   10.8979  -32.8278 H   0  0  0  0  0  0  0  0  0  0  0  0
   -1.0374   12.7934  -32.1183 H   0  0  0  0  0  0  0  0  0  0  0  0
   -1.6623   12.1480  -30.5429 H   0  0  0  0  0  0  0  0  0  0  0  0
   -2.9109   14.2787  -30.1652 H   0  0  0  0  0  0  0  0  0  0  0  0
   -2.2846   14.9243  -31.7399 H   0  0  0  0  0  0  0  0  0  0  0  0
   -7.6713    9.4238  -29.5816 H   0  0  0  0  0  0  0  0  0  0  0  0
  1  2  3  0  0  0  0
  2 11  1  0  0  0  0
  3  4  1  0  0  0  0
  3  6  2  0  0  0  0
  4  7  2  0  0  0  0
  5  6  1  0  0  0  0
  5  8  2  0  0  0  0
  6 11  1  0  0  0  0
  7  8  1  0  0  0  0
  7 12  1  0  0  0  0
  8 13  1  0  0  0  0
  9 10  1  0  0  0  0
  9 11  1  0  0  0  0
 10 11  1  0  0  0  0
  1 14  1  0  0  0  0
  3 15  1  0  0  0  0
  4 16  1  0  0  0  0
  5 17  1  0  0  0  0
  9 18  1  0  0  0  0
  9 19  1  0  0  0  0
 10 20  1  0  0  0  0
 10 21  1  0  0  0  0
 12 22  1  0  0  0  0
M  END
> <id>
EN300-1906343

> <smiles>
OC=1C=CC(=CC1Br)C2(CC2)C#C

> <IUPAC Name>
2-bromo-4-(1-ethynylcyclopropyl)phenol

> <CAS>
2229618-28-2

> <URL>
https://www.enaminestore.com/catalog/EN300-1906343

> <ROCS_ShapeQuery>
_x1604L0AP1_x0771L0AP1

> <ROCS_TanimotoCombo>
0.993 

> <ROCS_ShapeTanimoto>
0.496 

> <ROCS_ColorTanimoto>
0.497 

> <ROCS_RefTversky>
0.453 

> <ROCS_RefColorTversky>
0.515 

> <ROCS_RefTverskyCombo>
0.969 

> <ROCS_FitTversky>
1.234 

> <ROCS_FitColorTversky>
0.932 

> <ROCS_FitTverskyCombo>
2.166 

> <ROCS_ColorScore>
-4.878

> <ROCS_Overlap>
759.674

> <ROCS_Rank>
143                 

$$$$
untitled-dbase-444_29
  -OEChem-06052310023D

 22 22  0     1  0  0  0  0  0999 V2000
   -4.5819   12.4759  -29.8746 C   0  0  0  0  0  0  0  0  0  0  0  0
   -5.0668   11.1208  -31.8151 C   0  0  0  0  0  0  0  0  0  0  0  0
   -5.5575   11.7896  -29.1515 C   0  0  0  0  0  0  0  0  0  0  0  0
   -6.2878   10.7689  -29.7602 C   0  0  0  0  0  0  0  0  0  0  0  0
   -4.3366   12.1415  -31.2064 C   0  0  0  0  0  0  0  0  0  0  0  0
   -6.0424   10.4345  -31.0921 C   0  0  0  0  0  0  0  0  0  0  0  0
   -4.8704   13.2673  -27.2297 C   0  0  0  0  0  0  0  0  0  0  0  0
   -5.8042   12.1637  -27.7268 C   0  0  2  0  0  0  0  0  0  0  0  0
   -4.2424   10.5715  -27.0924 N   0  0  0  0  0  0  0  0  0  0  0  0
   -7.2391   10.1069  -29.0396 O   0  0  0  0  0  0  0  0  0  0  0  0
   -5.6132   11.0090  -26.9024 O   0  0  0  0  0  0  0  0  0  0  0  0
   -3.1327   12.9888  -32.0982 Cl  0  0  0  0  0  0  0  0  0  0  0  0
   -7.0142    9.0535  -31.9541 Br  0  0  0  0  0  0  0  0  0  0  0  0
   -4.0142   13.2711  -29.3960 H   0  0  0  0  0  0  0  0  0  0  0  0
   -4.8727   10.8634  -32.8540 H   0  0  0  0  0  0  0  0  0  0  0  0
   -3.8209   12.9885  -27.3677 H   0  0  0  0  0  0  0  0  0  0  0  0
   -5.0346   13.4811  -26.1676 H   0  0  0  0  0  0  0  0  0  0  0  0
   -5.0560   14.2044  -27.7661 H   0  0  0  0  0  0  0  0  0  0  0  0
   -6.8424   12.4969  -27.5639 H   0  0  0  0  0  0  0  0  0  0  0  0
   -4.3973    9.6005  -27.3597 H   0  0  0  0  0  0  0  0  0  0  0  0
   -3.9200   10.5591  -26.1260 H   0  0  0  0  0  0  0  0  0  0  0  0
   -7.6613    9.4295  -29.5893 H   0  0  0  0  0  0  0  0  0  0  0  0
  1  3  2  0  0  0  0
  1  5  1  0  0  0  0
  2  5  2  0  0  0  0
  2  6  1  0  0  0  0
  3  4  1  0  0  0  0
  3  8  1  0  0  0  0
  4  6  2  0  0  0  0
  4 10  1  0  0  0  0
  5 12  1  0  0  0  0
  6 13  1  0  0  0  0
  7  8  1  0  0  0  0
  8 11  1  0  0  0  0
  9 11  1  0  0  0  0
  1 14  1  0  0  0  0
  2 15  1  0  0  0  0
  7 16  1  0  0  0  0
  7 17  1  0  0  0  0
  7 18  1  0  0  0  0
  8 19  1  0  0  0  0
  9 20  1  0  0  0  0
  9 21  1  0  0  0  0
 10 22  1  0  0  0  0
M  END
> <id>
EN300-1922570

> <smiles>
CC(ON)C=1C=C(Cl)C=C(Br)C1O

> <IUPAC Name>
2-[1-(aminooxy)ethyl]-6-bromo-4-chlorophenol

> <CAS>
2228783-80-8

> <URL>
https://www.enaminestore.com/catalog/EN300-1922570

> <ROCS_ShapeQuery>
_x1604L0AP1_x0771L0AP1

> <ROCS_TanimotoCombo>
0.992 

> <ROCS_ShapeTanimoto>
0.439 

> <ROCS_ColorTanimoto>
0.553 

> <ROCS_RefTversky>
0.414 

> <ROCS_RefColorTversky>
0.518 

> <ROCS_RefTverskyCombo>
0.932 

> <ROCS_FitTversky>
1.159 

> <ROCS_FitColorTversky>
1.139 

> <ROCS_FitTverskyCombo>
2.298 

> <ROCS_ColorScore>
-4.881

> <ROCS_Overlap>
693.274

> <ROCS_Rank>
144                 

$$$$
untitled-dbase-1300_0
  -OEChem-06052310023D

 21 22  0     0  0  0  0  0  0999 V2000
   -6.5454   10.4905  -33.9639 C   0  0  0  0  0  0  0  0  0  0  0  0
   -5.5425   11.2524  -33.3820 C   0  0  0  0  0  0  0  0  0  0  0  0
   -4.3840   12.1991  -29.9790 C   0  0  0  0  0  0  0  0  0  0  0  0
   -7.4312    9.8506  -33.1210 C   0  0  0  0  0  0  0  0  0  0  0  0
   -5.4532   11.3529  -31.9870 C   0  0  0  0  0  0  0  0  0  0  0  0
   -4.4496   12.1164  -31.3669 C   0  0  0  0  0  0  0  0  0  0  0  0
   -6.4056   10.6617  -31.2091 C   0  0  0  0  0  0  0  0  0  0  0  0
   -6.3163   10.7618  -29.8234 C   0  0  0  0  0  0  0  0  0  0  0  0
   -5.3186   11.5208  -29.2066 C   0  0  0  0  0  0  0  0  0  0  0  0
   -3.4193   12.8643  -32.1544 C   0  0  0  0  0  0  0  0  0  0  0  0
   -7.3799    9.9216  -31.7711 N   0  0  0  0  0  0  0  0  0  0  0  0
   -7.2353   10.0965  -29.0566 O   0  0  0  0  0  0  0  0  0  0  0  0
   -5.2057   11.6512  -27.3178 Br  0  0  0  0  0  0  0  0  0  0  0  0
   -6.6287   10.4020  -35.0408 H   0  0  0  0  0  0  0  0  0  0  0  0
   -4.8388   11.7598  -34.0370 H   0  0  0  0  0  0  0  0  0  0  0  0
   -3.6038   12.7937  -29.5093 H   0  0  0  0  0  0  0  0  0  0  0  0
   -8.2366    9.2419  -33.5190 H   0  0  0  0  0  0  0  0  0  0  0  0
   -2.5464   12.2277  -32.3322 H   0  0  0  0  0  0  0  0  0  0  0  0
   -3.8221   13.1883  -33.1205 H   0  0  0  0  0  0  0  0  0  0  0  0
   -3.0957   13.7656  -31.6216 H   0  0  0  0  0  0  0  0  0  0  0  0
   -7.8558    9.6210  -29.6269 H   0  0  0  0  0  0  0  0  0  0  0  0
  1  2  1  0  0  0  0
  1  4  2  0  0  0  0
  2  5  2  0  0  0  0
  3  6  2  0  0  0  0
  3  9  1  0  0  0  0
  4 11  1  0  0  0  0
  5  6  1  0  0  0  0
  5  7  1  0  0  0  0
  6 10  1  0  0  0  0
  7  8  1  0  0  0  0
  7 11  2  0  0  0  0
  8  9  2  0  0  0  0
  8 12  1  0  0  0  0
  9 13  1  0  0  0  0
  1 14  1  0  0  0  0
  2 15  1  0  0  0  0
  3 16  1  0  0  0  0
  4 17  1  0  0  0  0
 10 18  1  0  0  0  0
 10 19  1  0  0  0  0
 10 20  1  0  0  0  0
 12 21  1  0  0  0  0
M  END
> <id>
EN300-25989833

> <smiles>
CC=1C=C(Br)C(O)=C2N=CC=CC12

> <MDLNUMBER>
MFCD00864659

> <IUPAC Name>
7-bromo-5-methylquinolin-8-ol

> <CAS>
7175-09-9

> <URL>
https://www.enaminestore.com/catalog/EN300-25989833

> <ROCS_ShapeQuery>
_x1604L0AP1_x0771L0AP1

> <ROCS_TanimotoCombo>
0.992 

> <ROCS_ShapeTanimoto>
0.548 

> <ROCS_ColorTanimoto>
0.444 

> <ROCS_RefTversky>
0.489 

> <ROCS_RefColorTversky>
0.508 

> <ROCS_RefTverskyCombo>
0.997 

> <ROCS_FitTversky>
1.282 

> <ROCS_FitColorTversky>
0.780 

> <ROCS_FitTverskyCombo>
2.062 

> <ROCS_ColorScore>
-4.829

> <ROCS_Overlap>
820.527

> <ROCS_Rank>
145                 

$$$$
untitled-dbase-853_35
  -OEChem-06052310023D

 18 18  0     0  0  0  0  0  0999 V2000
   -4.5933   12.4759  -29.8229 C   0  0  0  0  0  0  0  0  0  0  0  0
   -5.5736   11.7775  -29.1180 C   0  0  0  0  0  0  0  0  0  0  0  0
   -5.0564   11.1454  -31.7856 C   0  0  0  0  0  0  0  0  0  0  0  0
   -4.3348   12.1599  -31.1567 C   0  0  0  0  0  0  0  0  0  0  0  0
   -6.2953   10.7630  -29.7469 C   0  0  0  0  0  0  0  0  0  0  0  0
   -6.0367   10.4469  -31.0807 C   0  0  0  0  0  0  0  0  0  0  0  0
   -3.3119   12.8880  -31.8907 C   0  0  0  0  0  0  0  0  0  0  0  0
   -3.0371   12.5315  -33.3558 C   0  0  0  0  0  0  0  0  0  0  0  0
   -2.6618   13.7970  -31.3354 O   0  0  0  0  0  0  0  0  0  0  0  0
   -7.2470   10.1002  -29.0305 O   0  0  0  0  0  0  0  0  0  0  0  0
   -1.8129   11.2534  -33.5006 Cl  0  0  0  0  0  0  0  0  0  0  0  0
   -6.9984    9.0751  -31.9675 Br  0  0  0  0  0  0  0  0  0  0  0  0
   -4.0369   13.2647  -29.3231 H   0  0  0  0  0  0  0  0  0  0  0  0
   -5.7702   12.0297  -28.0794 H   0  0  0  0  0  0  0  0  0  0  0  0
   -4.8488   10.9038  -32.8259 H   0  0  0  0  0  0  0  0  0  0  0  0
   -3.9532   12.1601  -33.8216 H   0  0  0  0  0  0  0  0  0  0  0  0
   -2.6561   13.4100  -33.8821 H   0  0  0  0  0  0  0  0  0  0  0  0
   -7.6708    9.4247  -29.5823 H   0  0  0  0  0  0  0  0  0  0  0  0
  1  2  1  0  0  0  0
  1  4  2  0  0  0  0
  2  5  2  0  0  0  0
  3  4  1  0  0  0  0
  3  6  2  0  0  0  0
  4  7  1  0  0  0  0
  5  6  1  0  0  0  0
  5 10  1  0  0  0  0
  6 12  1  0  0  0  0
  7  8  1  0  0  0  0
  7  9  2  0  0  0  0
  8 11  1  0  0  0  0
  1 13  1  0  0  0  0
  2 14  1  0  0  0  0
  3 15  1  0  0  0  0
  8 16  1  0  0  0  0
  8 17  1  0  0  0  0
 10 18  1  0  0  0  0
M  END
> <id>
EN300-1911789

> <smiles>
OC=1C=CC(=CC1Br)C(=O)CCl

> <MDLNUMBER>
MFCD28741207

> <IUPAC Name>
1-(3-bromo-4-hydroxyphenyl)-2-chloroethan-1-one

> <CAS>
1807163-83-2

> <URL>
https://www.enaminestore.com/catalog/EN300-1911789

> <ROCS_ShapeQuery>
_x1604L0AP1_x0771L0AP1

> <ROCS_TanimotoCombo>
0.992 

> <ROCS_ShapeTanimoto>
0.495 

> <ROCS_ColorTanimoto>
0.497 

> <ROCS_RefTversky>
0.442 

> <ROCS_RefColorTversky>
0.515 

> <ROCS_RefTverskyCombo>
0.957 

> <ROCS_FitTversky>
1.323 

> <ROCS_FitColorTversky>
0.932 

> <ROCS_FitTverskyCombo>
2.254 

> <ROCS_ColorScore>
-4.878

> <ROCS_Overlap>
739.400

> <ROCS_Rank>
146                 

$$$$
untitled-dbase-1532_17
  -OEChem-06052310023D

 24 24  0     0  0  0  0  0  0999 V2000
   -4.6098   12.4901  -29.8929 C   0  0  0  0  0  0  0  0  0  0  0  0
   -4.3738   12.1644  -31.2285 C   0  0  0  0  0  0  0  0  0  0  0  0
   -5.5716   11.7906  -29.1639 C   0  0  0  0  0  0  0  0  0  0  0  0
   -5.0995   11.1392  -31.8351 C   0  0  0  0  0  0  0  0  0  0  0  0
   -6.2974   10.7655  -29.7705 C   0  0  0  0  0  0  0  0  0  0  0  0
   -6.0614   10.4398  -31.1061 C   0  0  0  0  0  0  0  0  0  0  0  0
   -5.5113    9.5506  -35.8938 C   0  0  0  0  0  0  0  0  0  0  0  0
   -4.8066   10.8267  -33.2803 C   0  0  0  0  0  0  0  0  0  0  0  0
   -5.5939   11.0408  -35.6664 C   0  0  0  0  0  0  0  0  0  0  0  0
   -5.8784   11.3973  -34.2109 C   0  0  0  0  0  0  0  0  0  0  0  0
   -6.0988    8.7073  -35.2247 O   0  0  0  0  0  0  0  0  0  0  0  0
   -7.2297   10.1045  -29.0269 O   0  0  0  0  0  0  0  0  0  0  0  0
   -7.0574    9.0391  -31.9229 Br  0  0  0  0  0  0  0  0  0  0  0  0
   -4.0451   13.2887  -29.4207 H   0  0  0  0  0  0  0  0  0  0  0  0
   -3.6220   12.7161  -31.7872 H   0  0  0  0  0  0  0  0  0  0  0  0
   -5.7503   12.0507  -28.1240 H   0  0  0  0  0  0  0  0  0  0  0  0
   -4.8636    9.2442  -36.7333 H   0  0  0  0  0  0  0  0  0  0  0  0
   -4.7332    9.7395  -33.4104 H   0  0  0  0  0  0  0  0  0  0  0  0
   -3.8208   11.2290  -33.5469 H   0  0  0  0  0  0  0  0  0  0  0  0
   -4.6416   11.4759  -35.9877 H   0  0  0  0  0  0  0  0  0  0  0  0
   -6.3845   11.4295  -36.3171 H   0  0  0  0  0  0  0  0  0  0  0  0
   -5.9280   12.4884  -34.1019 H   0  0  0  0  0  0  0  0  0  0  0  0
   -6.8666   11.0152  -33.9238 H   0  0  0  0  0  0  0  0  0  0  0  0
   -7.6604    9.4205  -29.5625 H   0  0  0  0  0  0  0  0  0  0  0  0
  1  2  2  0  0  0  0
  1  3  1  0  0  0  0
  2  4  1  0  0  0  0
  3  5  2  0  0  0  0
  4  6  2  0  0  0  0
  4  8  1  0  0  0  0
  5  6  1  0  0  0  0
  5 12  1  0  0  0  0
  6 13  1  0  0  0  0
  7  9  1  0  0  0  0
  7 11  2  0  0  0  0
  8 10  1  0  0  0  0
  9 10  1  0  0  0  0
  1 14  1  0  0  0  0
  2 15  1  0  0  0  0
  3 16  1  0  0  0  0
  7 17  1  0  0  0  0
  8 18  1  0  0  0  0
  8 19  1  0  0  0  0
  9 20  1  0  0  0  0
  9 21  1  0  0  0  0
 10 22  1  0  0  0  0
 10 23  1  0  0  0  0
 12 24  1  0  0  0  0
M  END
> <id>
EN300-1904606

> <smiles>
OC=1C=CC=C(CCCC=O)C1Br

> <IUPAC Name>
4-(2-bromo-3-hydroxyphenyl)butanal

> <CAS>
2229468-19-1

> <URL>
https://www.enaminestore.com/catalog/EN300-1904606

> <ROCS_ShapeQuery>
_x1604L0AP1_x0771L0AP1

> <ROCS_TanimotoCombo>
0.992 

> <ROCS_ShapeTanimoto>
0.494 

> <ROCS_ColorTanimoto>
0.497 

> <ROCS_RefTversky>
0.448 

> <ROCS_RefColorTversky>
0.516 

> <ROCS_RefTverskyCombo>
0.964 

> <ROCS_FitTversky>
1.263 

> <ROCS_FitColorTversky>
0.933 

> <ROCS_FitTverskyCombo>
2.195 

> <ROCS_ColorScore>
-4.883

> <ROCS_Overlap>
750.660

> <ROCS_Rank>
147                 

$$$$
untitled-dbase-2114_11
  -OEChem-06052310023D

 27 27  0     1  0  0  0  0  0999 V2000
   -5.1164   11.4449  -31.8024 C   0  0  0  0  0  0  0  0  0  0  0  0
   -4.4389   12.3576  -29.6705 C   0  0  0  0  0  0  0  0  0  0  0  0
   -6.1019   10.6902  -31.1662 C   0  0  0  0  0  0  0  0  0  0  0  0
   -6.2559   10.7692  -29.7821 C   0  0  0  0  0  0  0  0  0  0  0  0
   -4.2848   12.2786  -31.0546 C   0  0  0  0  0  0  0  0  0  0  0  0
   -5.4244   11.6029  -29.0343 C   0  0  0  0  0  0  0  0  0  0  0  0
   -7.5822    8.7053  -34.9784 C   0  0  0  0  0  0  0  0  0  0  0  0
   -6.9899    9.7954  -31.9937 C   0  0  0  0  0  0  0  0  0  0  0  0
   -6.2224    8.7843  -32.8587 C   0  0  0  0  0  0  0  0  0  0  0  0
   -7.1117    7.9135  -33.7617 C   0  0  2  0  0  0  0  0  0  0  0  0
   -6.4166    6.7240  -34.1936 N   0  0  0  0  0  0  0  0  0  0  0  0
   -7.2247   10.0245  -29.1742 O   0  0  0  0  0  0  0  0  0  0  0  0
   -3.0688   13.2095  -31.8402 Cl  0  0  0  0  0  0  0  0  0  0  0  0
   -5.6029   11.7371  -27.1515 Br  0  0  0  0  0  0  0  0  0  0  0  0
   -4.9998   11.3808  -32.8823 H   0  0  0  0  0  0  0  0  0  0  0  0
   -3.7881   13.0086  -29.0909 H   0  0  0  0  0  0  0  0  0  0  0  0
   -6.7336    9.0669  -35.5699 H   0  0  0  0  0  0  0  0  0  0  0  0
   -8.2148    8.0897  -35.6261 H   0  0  0  0  0  0  0  0  0  0  0  0
   -8.1646    9.5807  -34.6702 H   0  0  0  0  0  0  0  0  0  0  0  0
   -7.7077    9.2735  -31.3491 H   0  0  0  0  0  0  0  0  0  0  0  0
   -7.5979   10.4328  -32.6493 H   0  0  0  0  0  0  0  0  0  0  0  0
   -5.6185    8.1348  -32.2122 H   0  0  0  0  0  0  0  0  0  0  0  0
   -5.5154    9.3458  -33.4838 H   0  0  0  0  0  0  0  0  0  0  0  0
   -7.9945    7.5769  -33.2079 H   0  0  0  0  0  0  0  0  0  0  0  0
   -6.1550    6.1890  -33.3930 H   0  0  0  0  0  0  0  0  0  0  0  0
   -7.0214    6.1860  -34.7771 H   0  0  0  0  0  0  0  0  0  0  0  0
   -7.2134   10.1809  -28.2178 H   0  0  0  0  0  0  0  0  0  0  0  0
  1  3  2  0  0  0  0
  1  5  1  0  0  0  0
  2  5  2  0  0  0  0
  2  6  1  0  0  0  0
  3  4  1  0  0  0  0
  3  8  1  0  0  0  0
  4  6  2  0  0  0  0
  4 12  1  0  0  0  0
  5 13  1  0  0  0  0
  6 14  1  0  0  0  0
  7 10  1  1  0  0  0
  8  9  1  0  0  0  0
  9 10  1  0  0  0  0
 10 11  1  0  0  0  0
  1 15  1  0  0  0  0
  2 16  1  0  0  0  0
  7 17  1  0  0  0  0
  7 18  1  0  0  0  0
  7 19  1  0  0  0  0
  8 20  1  0  0  0  0
  8 21  1  0  0  0  0
  9 22  1  0  0  0  0
  9 23  1  0  0  0  0
 10 24  1  0  0  0  0
 11 25  1  0  0  0  0
 11 26  1  0  0  0  0
 12 27  1  0  0  0  0
M  END
> <id>
EN300-1922589

> <smiles>
C[C@@H](N)CCC=1C=C(Cl)C=C(Br)C1O

> <IUPAC Name>
2-[(3R)-3-aminobutyl]-6-bromo-4-chlorophenol

> <CAS>
2227916-57-4

> <URL>
https://www.enaminestore.com/catalog/EN300-1922589

> <ROCS_ShapeQuery>
_x1604L0AP1_x0771L0AP1

> <ROCS_TanimotoCombo>
0.992 

> <ROCS_ShapeTanimoto>
0.566 

> <ROCS_ColorTanimoto>
0.425 

> <ROCS_RefTversky>
0.497 

> <ROCS_RefColorTversky>
0.492 

> <ROCS_RefTverskyCombo>
0.989 

> <ROCS_FitTversky>
1.326 

> <ROCS_FitColorTversky>
0.757 

> <ROCS_FitTverskyCombo>
2.083 

> <ROCS_ColorScore>
-4.683

> <ROCS_Overlap>
833.746

> <ROCS_Rank>
148                 

$$$$
untitled-dbase-1456_0
  -OEChem-06052310023D

 15 15  0     0  0  0  0  0  0999 V2000
   -4.3535   12.1562  -31.2100 C   0  0  0  0  0  0  0  0  0  0  0  0
   -5.0780   11.1329  -31.8213 C   0  0  0  0  0  0  0  0  0  0  0  0
   -5.5701   11.7899  -29.1550 C   0  0  0  0  0  0  0  0  0  0  0  0
   -4.5995   12.4846  -29.8768 C   0  0  0  0  0  0  0  0  0  0  0  0
   -6.2946   10.7666  -29.7663 C   0  0  0  0  0  0  0  0  0  0  0  0
   -6.0486   10.4382  -31.0995 C   0  0  0  0  0  0  0  0  0  0  0  0
   -3.8432   13.5508  -29.2394 C   0  0  0  0  0  0  0  0  0  0  0  0
   -2.9717   14.2008  -29.8233 O   0  0  0  0  0  0  0  0  0  0  0  0
   -7.2360   10.1067  -29.0337 O   0  0  0  0  0  0  0  0  0  0  0  0
   -7.0137    9.0546  -31.9633 Br  0  0  0  0  0  0  0  0  0  0  0  0
   -3.5992   12.6909  -31.7816 H   0  0  0  0  0  0  0  0  0  0  0  0
   -4.8729   10.8907  -32.8610 H   0  0  0  0  0  0  0  0  0  0  0  0
   -5.7642   12.0432  -28.1153 H   0  0  0  0  0  0  0  0  0  0  0  0
   -4.0744   13.7765  -28.1756 H   0  0  0  0  0  0  0  0  0  0  0  0
   -7.6628    9.4245  -29.5748 H   0  0  0  0  0  0  0  0  0  0  0  0
  1  2  1  0  0  0  0
  1  4  2  0  0  0  0
  2  6  2  0  0  0  0
  3  4  1  0  0  0  0
  3  5  2  0  0  0  0
  4  7  1  0  0  0  0
  5  6  1  0  0  0  0
  5  9  1  0  0  0  0
  6 10  1  0  0  0  0
  7  8  2  0  0  0  0
  1 11  1  0  0  0  0
  2 12  1  0  0  0  0
  3 13  1  0  0  0  0
  7 14  1  0  0  0  0
  9 15  1  0  0  0  0
M  END
> <id>
EN300-189203

> <smiles>
OC=1C=C(C=O)C=CC1Br

> <MDLNUMBER>
MFCD11100992

> <IUPAC Name>
4-bromo-3-hydroxybenzaldehyde

> <CAS>
20035-32-9

> <Purity>
95

> <URL>
https://www.enaminestore.com/catalog/EN300-189203

> <MP>
132-134

> <ROCS_ShapeQuery>
_x1604L0AP1_x0771L0AP1

> <ROCS_TanimotoCombo>
0.991 

> <ROCS_ShapeTanimoto>
0.495 

> <ROCS_ColorTanimoto>
0.497 

> <ROCS_RefTversky>
0.427 

> <ROCS_RefColorTversky>
0.515 

> <ROCS_RefTverskyCombo>
0.943 

> <ROCS_FitTversky>
1.467 

> <ROCS_FitColorTversky>
0.932 

> <ROCS_FitTverskyCombo>
2.398 

> <ROCS_ColorScore>
-4.878

> <ROCS_Overlap>
713.420

> <ROCS_Rank>
149                 

$$$$
untitled-dbase-924_830
  -OEChem-06052310023D

 30 31  0     0  0  0  0  0  0999 V2000
   -4.5833   12.4708  -29.8364 C   0  0  0  0  0  0  0  0  0  0  0  0
   -5.0541   11.1317  -31.7914 C   0  0  0  0  0  0  0  0  0  0  0  0
   -4.3278   12.1468  -31.1688 C   0  0  0  0  0  0  0  0  0  0  0  0
   -5.5650   11.7795  -29.1265 C   0  0  0  0  0  0  0  0  0  0  0  0
   -6.2914   10.7644  -29.7490 C   0  0  0  0  0  0  0  0  0  0  0  0
   -6.0359   10.4404  -31.0815 C   0  0  0  0  0  0  0  0  0  0  0  0
   -2.0958   13.4354  -31.1516 C   0  0  0  0  0  0  0  0  0  0  0  0
   -3.1370   14.3763  -31.6720 C   0  0  0  0  0  0  0  0  0  0  0  0
   -3.2797   12.8867  -31.9272 C   0  0  0  0  0  0  0  0  0  0  0  0
   -6.7851   13.1119  -27.5799 C   0  0  0  0  0  0  0  0  0  0  0  0
   -3.0329   12.3868  -33.3235 C   0  0  0  0  0  0  0  0  0  0  0  0
   -4.1073   11.5784  -35.2126 N   0  0  0  0  0  0  0  0  0  0  0  0
   -7.2473   10.0999  -29.0377 O   0  0  0  0  0  0  0  0  0  0  0  0
   -5.8037   12.1066  -27.8258 O   0  0  0  0  0  0  0  0  0  0  0  0
   -4.2361   12.4783  -34.0780 O   0  0  0  0  0  0  0  0  0  0  0  0
   -7.0031    9.0685  -31.9626 Br  0  0  0  0  0  0  0  0  0  0  0  0
   -4.0192   13.2620  -29.3484 H   0  0  0  0  0  0  0  0  0  0  0  0
   -4.8492   10.8861  -32.8312 H   0  0  0  0  0  0  0  0  0  0  0  0
   -1.1233   13.4461  -31.6299 H   0  0  0  0  0  0  0  0  0  0  0  0
   -2.0540   13.2742  -30.0804 H   0  0  0  0  0  0  0  0  0  0  0  0
   -3.7936   14.8476  -30.9497 H   0  0  0  0  0  0  0  0  0  0  0  0
   -2.8659   15.0196  -32.5012 H   0  0  0  0  0  0  0  0  0  0  0  0
   -6.8773   13.2766  -26.5035 H   0  0  0  0  0  0  0  0  0  0  0  0
   -7.7452   12.7942  -27.9942 H   0  0  0  0  0  0  0  0  0  0  0  0
   -6.4715   14.0405  -28.0626 H   0  0  0  0  0  0  0  0  0  0  0  0
   -2.7095   11.3378  -33.3152 H   0  0  0  0  0  0  0  0  0  0  0  0
   -2.2632   12.9863  -33.8268 H   0  0  0  0  0  0  0  0  0  0  0  0
   -4.2969   12.2209  -35.9804 H   0  0  0  0  0  0  0  0  0  0  0  0
   -4.9453   11.0110  -35.0947 H   0  0  0  0  0  0  0  0  0  0  0  0
   -7.2934   10.4491  -28.1346 H   0  0  0  0  0  0  0  0  0  0  0  0
  1  3  1  0  0  0  0
  1  4  2  0  0  0  0
  2  3  2  0  0  0  0
  2  6  1  0  0  0  0
  3  9  1  0  0  0  0
  4  5  1  0  0  0  0
  4 14  1  0  0  0  0
  5  6  2  0  0  0  0
  5 13  1  0  0  0  0
  6 16  1  0  0  0  0
  7  8  1  0  0  0  0
  7  9  1  0  0  0  0
  8  9  1  0  0  0  0
  9 11  1  0  0  0  0
 10 14  1  0  0  0  0
 11 15  1  0  0  0  0
 12 15  1  0  0  0  0
  1 17  1  0  0  0  0
  2 18  1  0  0  0  0
  7 19  1  0  0  0  0
  7 20  1  0  0  0  0
  8 21  1  0  0  0  0
  8 22  1  0  0  0  0
 10 23  1  0  0  0  0
 10 24  1  0  0  0  0
 10 25  1  0  0  0  0
 11 26  1  0  0  0  0
 11 27  1  0  0  0  0
 12 28  1  0  0  0  0
 12 29  1  0  0  0  0
 13 30  1  0  0  0  0
M  END
> <id>
EN300-1926999

> <smiles>
COC=1C=C(C=C(Br)C1O)C2(CON)CC2

> <IUPAC Name>
4-{1-[(aminooxy)methyl]cyclopropyl}-2-bromo-6-methoxyphenol

> <CAS>
2228625-82-7

> <URL>
https://www.enaminestore.com/catalog/EN300-1926999

> <ROCS_ShapeQuery>
_x1604L0AP1_x0771L0AP1

> <ROCS_TanimotoCombo>
0.991 

> <ROCS_ShapeTanimoto>
0.494 

> <ROCS_ColorTanimoto>
0.497 

> <ROCS_RefTversky>
0.476 

> <ROCS_RefColorTversky>
0.516 

> <ROCS_RefTverskyCombo>
0.992 

> <ROCS_FitTversky>
1.084 

> <ROCS_FitColorTversky>
0.932 

> <ROCS_FitTverskyCombo>
2.017 

> <ROCS_ColorScore>
-4.881

> <ROCS_Overlap>
800.756

> <ROCS_Rank>
150                 

$$$$
untitled-dbase-585_142
  -OEChem-06052310023D

 23 23  0     0  0  0  0  0  0999 V2000
   -4.5774   12.4722  -29.8679 C   0  0  0  0  0  0  0  0  0  0  0  0
   -5.0629   11.1223  -31.8119 C   0  0  0  0  0  0  0  0  0  0  0  0
   -5.5548   11.7860  -29.1472 C   0  0  0  0  0  0  0  0  0  0  0  0
   -6.2862   10.7679  -29.7589 C   0  0  0  0  0  0  0  0  0  0  0  0
   -4.3315   12.1404  -31.2002 C   0  0  0  0  0  0  0  0  0  0  0  0
   -6.0403   10.4360  -31.0912 C   0  0  0  0  0  0  0  0  0  0  0  0
   -5.8020   12.1572  -27.7219 C   0  0  0  0  0  0  0  0  0  0  0  0
   -6.2035   10.9761  -26.8185 C   0  0  0  0  0  0  0  0  0  0  0  0
   -5.1225    9.8975  -26.7534 C   0  0  0  0  0  0  0  0  0  0  0  0
   -7.2393   10.1058  -29.0405 O   0  0  0  0  0  0  0  0  0  0  0  0
   -5.6424    8.5358  -25.6688 S   0  0  0  0  0  0  0  0  0  0  0  0
   -3.1254   12.9877  -32.0891 Cl  0  0  0  0  0  0  0  0  0  0  0  0
   -7.0137    9.0586  -31.9573 Br  0  0  0  0  0  0  0  0  0  0  0  0
   -4.0087   13.2654  -29.3870 H   0  0  0  0  0  0  0  0  0  0  0  0
   -4.8683   10.8669  -32.8512 H   0  0  0  0  0  0  0  0  0  0  0  0
   -6.5723   12.9427  -27.6483 H   0  0  0  0  0  0  0  0  0  0  0  0
   -4.8879   12.6150  -27.3095 H   0  0  0  0  0  0  0  0  0  0  0  0
   -7.1296   10.5416  -27.2168 H   0  0  0  0  0  0  0  0  0  0  0  0
   -6.4312   11.3434  -25.8098 H   0  0  0  0  0  0  0  0  0  0  0  0
   -4.1868   10.3020  -26.3570 H   0  0  0  0  0  0  0  0  0  0  0  0
   -4.9233    9.4893  -27.7494 H   0  0  0  0  0  0  0  0  0  0  0  0
   -7.6622    9.4304  -29.5922 H   0  0  0  0  0  0  0  0  0  0  0  0
   -6.7376    8.2096  -26.3680 H   0  0  0  0  0  0  0  0  0  0  0  0
  1  3  2  0  0  0  0
  1  5  1  0  0  0  0
  2  5  2  0  0  0  0
  2  6  1  0  0  0  0
  3  4  1  0  0  0  0
  3  7  1  0  0  0  0
  4  6  2  0  0  0  0
  4 10  1  0  0  0  0
  5 12  1  0  0  0  0
  6 13  1  0  0  0  0
  7  8  1  0  0  0  0
  8  9  1  0  0  0  0
  9 11  1  0  0  0  0
  1 14  1  0  0  0  0
  2 15  1  0  0  0  0
  7 16  1  0  0  0  0
  7 17  1  0  0  0  0
  8 18  1  0  0  0  0
  8 19  1  0  0  0  0
  9 20  1  0  0  0  0
  9 21  1  0  0  0  0
 10 22  1  0  0  0  0
 11 23  1  0  0  0  0
M  END
> <id>
EN300-1922926

> <smiles>
OC=1C(Br)=CC(Cl)=CC1CCCS

> <IUPAC Name>
2-bromo-4-chloro-6-(3-sulfanylpropyl)phenol

> <CAS>
2228217-39-6

> <URL>
https://www.enaminestore.com/catalog/EN300-1922926

> <ROCS_ShapeQuery>
_x1604L0AP1_x0771L0AP1

> <ROCS_TanimotoCombo>
0.991 

> <ROCS_ShapeTanimoto>
0.437 

> <ROCS_ColorTanimoto>
0.553 

> <ROCS_RefTversky>
0.409 

> <ROCS_RefColorTversky>
0.518 

> <ROCS_RefTverskyCombo>
0.928 

> <ROCS_FitTversky>
1.184 

> <ROCS_FitColorTversky>
1.139 

> <ROCS_FitTverskyCombo>
2.323 

> <ROCS_ColorScore>
-4.881

> <ROCS_Overlap>
685.412

> <ROCS_Rank>
151                 

$$$$
untitled-dbase-1227_67
  -OEChem-06052310023D

 27 27  0     0  0  0  0  0  0999 V2000
   -4.8108   11.6442  -31.4135 C   0  0  0  0  0  0  0  0  0  0  0  0
   -4.7958   12.8254  -29.3060 C   0  0  0  0  0  0  0  0  0  0  0  0
   -5.7804   10.7724  -30.9180 C   0  0  0  0  0  0  0  0  0  0  0  0
   -6.2577   10.9271  -29.6165 C   0  0  0  0  0  0  0  0  0  0  0  0
   -4.3185   12.6707  -30.6074 C   0  0  0  0  0  0  0  0  0  0  0  0
   -5.7654   11.9536  -28.8104 C   0  0  0  0  0  0  0  0  0  0  0  0
   -6.2986    9.6701  -31.8059 C   0  0  0  0  0  0  0  0  0  0  0  0
   -5.8818    9.8749  -33.2645 C   0  0  0  0  0  0  0  0  0  0  0  0
   -6.4424    8.7663  -34.1603 C   0  0  0  0  0  0  0  0  0  0  0  0
   -5.9475    7.3808  -33.7583 C   0  0  0  0  0  0  0  0  0  0  0  0
   -6.4931    6.3421  -34.5876 N   0  0  0  0  0  0  0  0  0  0  0  0
   -7.2062   10.0659  -29.1461 O   0  0  0  0  0  0  0  0  0  0  0  0
   -3.1220   13.7461  -31.2193 Cl  0  0  0  0  0  0  0  0  0  0  0  0
   -6.3892   12.1959  -27.0364 Br  0  0  0  0  0  0  0  0  0  0  0  0
   -4.4415   11.5204  -32.4293 H   0  0  0  0  0  0  0  0  0  0  0  0
   -4.4090   13.6269  -28.6805 H   0  0  0  0  0  0  0  0  0  0  0  0
   -7.3923    9.6241  -31.7280 H   0  0  0  0  0  0  0  0  0  0  0  0
   -5.9300    8.7037  -31.4390 H   0  0  0  0  0  0  0  0  0  0  0  0
   -4.7872    9.8889  -33.3405 H   0  0  0  0  0  0  0  0  0  0  0  0
   -6.2354   10.8525  -33.6145 H   0  0  0  0  0  0  0  0  0  0  0  0
   -7.5374    8.7761  -34.1004 H   0  0  0  0  0  0  0  0  0  0  0  0
   -6.1736    8.9671  -35.2048 H   0  0  0  0  0  0  0  0  0  0  0  0
   -6.2497    7.1599  -32.7297 H   0  0  0  0  0  0  0  0  0  0  0  0
   -4.8563    7.3167  -33.8139 H   0  0  0  0  0  0  0  0  0  0  0  0
   -6.1318    5.4565  -34.2951 H   0  0  0  0  0  0  0  0  0  0  0  0
   -7.4898    6.3385  -34.5054 H   0  0  0  0  0  0  0  0  0  0  0  0
   -7.4395   10.2942  -28.2335 H   0  0  0  0  0  0  0  0  0  0  0  0
  1  3  2  0  0  0  0
  1  5  1  0  0  0  0
  2  5  2  0  0  0  0
  2  6  1  0  0  0  0
  3  4  1  0  0  0  0
  3  7  1  0  0  0  0
  4  6  2  0  0  0  0
  4 12  1  0  0  0  0
  5 13  1  0  0  0  0
  6 14  1  0  0  0  0
  7  8  1  0  0  0  0
  8  9  1  0  0  0  0
  9 10  1  0  0  0  0
 10 11  1  0  0  0  0
  1 15  1  0  0  0  0
  2 16  1  0  0  0  0
  7 17  1  0  0  0  0
  7 18  1  0  0  0  0
  8 19  1  0  0  0  0
  8 20  1  0  0  0  0
  9 21  1  0  0  0  0
  9 22  1  0  0  0  0
 10 23  1  0  0  0  0
 10 24  1  0  0  0  0
 11 25  1  0  0  0  0
 11 26  1  0  0  0  0
 12 27  1  0  0  0  0
M  END
> <id>
EN300-1922922

> <smiles>
NCCCCC=1C=C(Cl)C=C(Br)C1O

> <IUPAC Name>
2-(4-aminobutyl)-6-bromo-4-chlorophenol

> <CAS>
2228548-30-7

> <URL>
https://www.enaminestore.com/catalog/EN300-1922922

> <ROCS_ShapeQuery>
_x1604L0AP1_x0771L0AP1

> <ROCS_TanimotoCombo>
0.990 

> <ROCS_ShapeTanimoto>
0.573 

> <ROCS_ColorTanimoto>
0.418 

> <ROCS_RefTversky>
0.500 

> <ROCS_RefColorTversky>
0.486 

> <ROCS_RefTverskyCombo>
0.986 

> <ROCS_FitTversky>
1.344 

> <ROCS_FitColorTversky>
0.748 

> <ROCS_FitTverskyCombo>
2.092 

> <ROCS_ColorScore>
-4.625

> <ROCS_Overlap>
837.537

> <ROCS_Rank>
152                 

$$$$
untitled-dbase-375_379
  -OEChem-06052310023D

 27 28  0     0  0  0  0  0  0999 V2000
   -6.0983    9.2457  -31.8479 C   0  0  0  0  0  0  0  0  0  0  0  0
   -6.1136    7.9928  -32.4607 C   0  0  0  0  0  0  0  0  0  0  0  0
   -6.6238   10.2870  -33.9637 C   0  0  0  0  0  0  0  0  0  0  0  0
   -6.3534   10.3928  -32.5994 C   0  0  0  0  0  0  0  0  0  0  0  0
   -6.3840    7.8869  -33.8250 C   0  0  0  0  0  0  0  0  0  0  0  0
   -6.6391    9.0340  -34.5765 C   0  0  0  0  0  0  0  0  0  0  0  0
   -4.7058   11.0617  -30.0518 C   0  0  0  0  0  0  0  0  0  0  0  0
   -4.9230   12.5421  -29.9207 C   0  0  0  0  0  0  0  0  0  0  0  0
   -6.0276   11.6663  -30.4643 C   0  0  0  0  0  0  0  0  0  0  0  0
   -6.3363   11.7510  -31.9338 C   0  0  0  0  0  0  0  0  0  0  0  0
   -7.2231   11.4135  -29.5875 C   0  0  0  0  0  0  0  0  0  0  0  0
   -6.3900    6.6481  -34.3940 O   0  0  0  0  0  0  0  0  0  0  0  0
   -7.2029   10.0632  -29.1391 O   0  0  0  0  0  0  0  0  0  0  0  0
   -7.0087    8.9278  -36.4326 Br  0  0  0  0  0  0  0  0  0  0  0  0
   -5.8864    9.3175  -30.7843 H   0  0  0  0  0  0  0  0  0  0  0  0
   -5.9140    7.1035  -31.8687 H   0  0  0  0  0  0  0  0  0  0  0  0
   -6.8221   11.1870  -34.5418 H   0  0  0  0  0  0  0  0  0  0  0  0
   -4.0279   10.7194  -30.8247 H   0  0  0  0  0  0  0  0  0  0  0  0
   -4.6642   10.4768  -29.1406 H   0  0  0  0  0  0  0  0  0  0  0  0
   -5.0268   12.9486  -28.9216 H   0  0  0  0  0  0  0  0  0  0  0  0
   -4.3904   13.1912  -30.6057 H   0  0  0  0  0  0  0  0  0  0  0  0
   -5.6004   12.3913  -32.4479 H   0  0  0  0  0  0  0  0  0  0  0  0
   -7.3105   12.2411  -32.0974 H   0  0  0  0  0  0  0  0  0  0  0  0
   -8.1576   11.5810  -30.1382 H   0  0  0  0  0  0  0  0  0  0  0  0
   -7.2123   12.0701  -28.7080 H   0  0  0  0  0  0  0  0  0  0  0  0
   -6.5902    6.7161  -35.3405 H   0  0  0  0  0  0  0  0  0  0  0  0
   -7.9869    9.9438  -28.5799 H   0  0  0  0  0  0  0  0  0  0  0  0
  1  2  1  0  0  0  0
  1  4  2  0  0  0  0
  2  5  2  0  0  0  0
  3  4  1  0  0  0  0
  3  6  2  0  0  0  0
  4 10  1  0  0  0  0
  5  6  1  0  0  0  0
  5 12  1  0  0  0  0
  6 14  1  0  0  0  0
  7  8  1  0  0  0  0
  7  9  1  0  0  0  0
  8  9  1  0  0  0  0
  9 10  1  0  0  0  0
  9 11  1  0  0  0  0
 11 13  1  0  0  0  0
  1 15  1  0  0  0  0
  2 16  1  0  0  0  0
  3 17  1  0  0  0  0
  7 18  1  0  0  0  0
  7 19  1  0  0  0  0
  8 20  1  0  0  0  0
  8 21  1  0  0  0  0
 10 22  1  0  0  0  0
 10 23  1  0  0  0  0
 11 24  1  0  0  0  0
 11 25  1  0  0  0  0
 12 26  1  0  0  0  0
 13 27  1  0  0  0  0
M  END
> <id>
EN300-1906711

> <smiles>
OCC1(CC=2C=CC(O)=C(Br)C2)CC1

> <IUPAC Name>
2-bromo-4-{[1-(hydroxymethyl)cyclopropyl]methyl}phenol

> <CAS>
2228163-99-1

> <URL>
https://www.enaminestore.com/catalog/EN300-1906711

> <ROCS_ShapeQuery>
_x1604L0AP1_x0771L0AP1

> <ROCS_TanimotoCombo>
0.990 

> <ROCS_ShapeTanimoto>
0.536 

> <ROCS_ColorTanimoto>
0.454 

> <ROCS_RefTversky>
0.484 

> <ROCS_RefColorTversky>
0.515 

> <ROCS_RefTverskyCombo>
0.999 

> <ROCS_FitTversky>
1.252 

> <ROCS_FitColorTversky>
0.792 

> <ROCS_FitTverskyCombo>
2.044 

> <ROCS_ColorScore>
-4.900

> <ROCS_Overlap>
812.370

> <ROCS_Rank>
153                 

$$$$
untitled-dbase-1384_0
  -OEChem-06052310023D

 23 24  0     0  0  0  0  0  0999 V2000
   -7.3816    9.8850  -31.8457 C   0  0  0  0  0  0  0  0  0  0  0  0
   -4.4718   12.1406  -31.3713 C   0  0  0  0  0  0  0  0  0  0  0  0
   -7.4336    9.7965  -33.2371 C   0  0  0  0  0  0  0  0  0  0  0  0
   -4.4198   12.2290  -29.9799 C   0  0  0  0  0  0  0  0  0  0  0  0
   -5.5222   11.2617  -33.4028 C   0  0  0  0  0  0  0  0  0  0  0  0
   -5.4549   11.3621  -32.0036 C   0  0  0  0  0  0  0  0  0  0  0  0
   -6.3985   10.6635  -31.2134 C   0  0  0  0  0  0  0  0  0  0  0  0
   -6.5057   10.4836  -34.0141 C   0  0  0  0  0  0  0  0  0  0  0  0
   -6.3313   10.7639  -29.8142 C   0  0  0  0  0  0  0  0  0  0  0  0
   -5.3478   11.5419  -29.2028 C   0  0  0  0  0  0  0  0  0  0  0  0
   -7.5904    9.5863  -35.9309 C   0  0  0  0  0  0  0  0  0  0  0  0
   -7.2364   10.0945  -29.0367 O   0  0  0  0  0  0  0  0  0  0  0  0
   -6.5587   10.3976  -35.3716 O   0  0  0  0  0  0  0  0  0  0  0  0
   -5.2380   11.6918  -27.3151 Br  0  0  0  0  0  0  0  0  0  0  0  0
   -8.1226    9.3345  -31.2701 H   0  0  0  0  0  0  0  0  0  0  0  0
   -3.7367   12.6865  -31.9591 H   0  0  0  0  0  0  0  0  0  0  0  0
   -8.2017    9.1893  -33.7082 H   0  0  0  0  0  0  0  0  0  0  0  0
   -3.6466   12.8399  -29.5212 H   0  0  0  0  0  0  0  0  0  0  0  0
   -4.8036   11.7930  -34.0242 H   0  0  0  0  0  0  0  0  0  0  0  0
   -7.5189    9.6049  -37.0211 H   0  0  0  0  0  0  0  0  0  0  0  0
   -8.5653    9.9642  -35.6125 H   0  0  0  0  0  0  0  0  0  0  0  0
   -7.4666    8.5599  -35.5773 H   0  0  0  0  0  0  0  0  0  0  0  0
   -7.0567   10.2654  -28.1009 H   0  0  0  0  0  0  0  0  0  0  0  0
  1  3  1  0  0  0  0
  1  7  2  0  0  0  0
  2  4  2  0  0  0  0
  2  6  1  0  0  0  0
  3  8  2  0  0  0  0
  4 10  1  0  0  0  0
  5  6  2  0  0  0  0
  5  8  1  0  0  0  0
  6  7  1  0  0  0  0
  7  9  1  0  0  0  0
  8 13  1  0  0  0  0
  9 10  2  0  0  0  0
  9 12  1  0  0  0  0
 10 14  1  0  0  0  0
 11 13  1  0  0  0  0
  1 15  1  0  0  0  0
  2 16  1  0  0  0  0
  3 17  1  0  0  0  0
  4 18  1  0  0  0  0
  5 19  1  0  0  0  0
 11 20  1  0  0  0  0
 11 21  1  0  0  0  0
 11 22  1  0  0  0  0
 12 23  1  0  0  0  0
M  END
> <id>
EN300-1144190

> <smiles>
COC=1C=CC=2C(O)=C(Br)C=CC2C1

> <MDLNUMBER>
MFCD21875085

> <IUPAC Name>
2-bromo-6-methoxynaphthalen-1-ol

> <CAS>
857091-19-1

> <URL>
https://www.enaminestore.com/catalog/EN300-1144190

> <ROCS_ShapeQuery>
_x1604L0AP1_x0771L0AP1

> <ROCS_TanimotoCombo>
0.990 

> <ROCS_ShapeTanimoto>
0.546 

> <ROCS_ColorTanimoto>
0.444 

> <ROCS_RefTversky>
0.496 

> <ROCS_RefColorTversky>
0.508 

> <ROCS_RefTverskyCombo>
1.003 

> <ROCS_FitTversky>
1.228 

> <ROCS_FitColorTversky>
0.780 

> <ROCS_FitTverskyCombo>
2.008 

> <ROCS_ColorScore>
-4.831

> <ROCS_Overlap>
832.207

> <ROCS_Rank>
154                 

$$$$
untitled-dbase-1193_51
  -OEChem-06052310023D

 22 22  0     0  0  0  0  0  0999 V2000
   -4.5688   12.4643  -29.8614 C   0  0  0  0  0  0  0  0  0  0  0  0
   -5.0579   11.1196  -31.8081 C   0  0  0  0  0  0  0  0  0  0  0  0
   -5.5484   11.7796  -29.1423 C   0  0  0  0  0  0  0  0  0  0  0  0
   -6.2828   10.7649  -29.7560 C   0  0  0  0  0  0  0  0  0  0  0  0
   -4.3235   12.1343  -31.1943 C   0  0  0  0  0  0  0  0  0  0  0  0
   -6.0375   10.4349  -31.0890 C   0  0  0  0  0  0  0  0  0  0  0  0
   -5.7949   12.1488  -27.7163 C   0  0  0  0  0  0  0  0  0  0  0  0
   -7.0493   13.0024  -27.5254 C   0  0  0  0  0  0  0  0  0  0  0  0
   -7.2768   13.8602  -29.6676 N   0  0  0  0  0  0  0  0  0  0  0  0
   -7.2380   10.1043  -29.0392 O   0  0  0  0  0  0  0  0  0  0  0  0
   -6.9383   14.1940  -28.2932 O   0  0  0  0  0  0  0  0  0  0  0  0
   -3.1147   12.9797  -32.0813 Cl  0  0  0  0  0  0  0  0  0  0  0  0
   -7.0149    9.0621  -31.9579 Br  0  0  0  0  0  0  0  0  0  0  0  0
   -3.9978   13.2548  -29.3788 H   0  0  0  0  0  0  0  0  0  0  0  0
   -4.8639   10.8656  -32.8479 H   0  0  0  0  0  0  0  0  0  0  0  0
   -5.8786   11.2397  -27.1017 H   0  0  0  0  0  0  0  0  0  0  0  0
   -4.9293   12.7048  -27.3263 H   0  0  0  0  0  0  0  0  0  0  0  0
   -7.9312   12.4577  -27.8778 H   0  0  0  0  0  0  0  0  0  0  0  0
   -7.1987   13.2720  -26.4747 H   0  0  0  0  0  0  0  0  0  0  0  0
   -6.4454   14.1980  -30.1503 H   0  0  0  0  0  0  0  0  0  0  0  0
   -8.0138   14.5402  -29.8474 H   0  0  0  0  0  0  0  0  0  0  0  0
   -7.6628    9.4312  -29.5922 H   0  0  0  0  0  0  0  0  0  0  0  0
  1  3  2  0  0  0  0
  1  5  1  0  0  0  0
  2  5  2  0  0  0  0
  2  6  1  0  0  0  0
  3  4  1  0  0  0  0
  3  7  1  0  0  0  0
  4  6  2  0  0  0  0
  4 10  1  0  0  0  0
  5 12  1  0  0  0  0
  6 13  1  0  0  0  0
  7  8  1  0  0  0  0
  8 11  1  0  0  0  0
  9 11  1  0  0  0  0
  1 14  1  0  0  0  0
  2 15  1  0  0  0  0
  7 16  1  0  0  0  0
  7 17  1  0  0  0  0
  8 18  1  0  0  0  0
  8 19  1  0  0  0  0
  9 20  1  0  0  0  0
  9 21  1  0  0  0  0
 10 22  1  0  0  0  0
M  END
> <id>
EN300-1922564

> <smiles>
NOCCC=1C=C(Cl)C=C(Br)C1O

> <IUPAC Name>
2-[2-(aminooxy)ethyl]-6-bromo-4-chlorophenol

> <CAS>
2228545-26-2

> <URL>
https://www.enaminestore.com/catalog/EN300-1922564

> <ROCS_ShapeQuery>
_x1604L0AP1_x0771L0AP1

> <ROCS_TanimotoCombo>
0.990 

> <ROCS_ShapeTanimoto>
0.436 

> <ROCS_ColorTanimoto>
0.553 

> <ROCS_RefTversky>
0.411 

> <ROCS_RefColorTversky>
0.518 

> <ROCS_RefTverskyCombo>
0.930 

> <ROCS_FitTversky>
1.162 

> <ROCS_FitColorTversky>
1.139 

> <ROCS_FitTverskyCombo>
2.301 

> <ROCS_ColorScore>
-4.881

> <ROCS_Overlap>
689.042

> <ROCS_Rank>
155                 

$$$$
untitled-dbase-1252_58
  -OEChem-06052310023D

 20 20  0     0  0  0  0  0  0999 V2000
   -4.1626   12.5230  -30.6779 C   0  0  0  0  0  0  0  0  0  0  0  0
   -4.9105   11.7407  -31.5579 C   0  0  0  0  0  0  0  0  0  0  0  0
   -4.4312   12.4843  -29.3097 C   0  0  0  0  0  0  0  0  0  0  0  0
   -5.9269   10.9197  -31.0696 C   0  0  0  0  0  0  0  0  0  0  0  0
   -6.1955   10.8810  -29.7014 C   0  0  0  0  0  0  0  0  0  0  0  0
   -5.4476   11.6633  -28.8214 C   0  0  0  0  0  0  0  0  0  0  0  0
   -7.2239    8.9217  -31.6436 C   0  0  0  0  0  0  0  0  0  0  0  0
   -6.6908   10.1139  -32.0132 C   0  0  0  0  0  0  0  0  0  0  0  0
   -6.9478   10.6338  -33.4152 C   0  0  0  0  0  0  0  0  0  0  0  0
   -7.1928   10.0758  -29.2292 O   0  0  0  0  0  0  0  0  0  0  0  0
   -7.1082    9.2804  -34.5609 Cl  0  0  0  0  0  0  0  0  0  0  0  0
   -5.7789   11.6383  -26.9546 Br  0  0  0  0  0  0  0  0  0  0  0  0
   -3.3711   13.1624  -31.0570 H   0  0  0  0  0  0  0  0  0  0  0  0
   -4.6875   11.7813  -32.6215 H   0  0  0  0  0  0  0  0  0  0  0  0
   -3.8374   13.1006  -28.6393 H   0  0  0  0  0  0  0  0  0  0  0  0
   -7.7941    8.3152  -32.3399 H   0  0  0  0  0  0  0  0  0  0  0  0
   -7.0954    8.5197  -30.6434 H   0  0  0  0  0  0  0  0  0  0  0  0
   -7.8737   11.2146  -33.4841 H   0  0  0  0  0  0  0  0  0  0  0  0
   -6.1389   11.2828  -33.7621 H   0  0  0  0  0  0  0  0  0  0  0  0
   -7.2570   10.1578  -28.2660 H   0  0  0  0  0  0  0  0  0  0  0  0
  1  2  1  0  0  0  0
  1  3  2  0  0  0  0
  2  4  2  0  0  0  0
  3  6  1  0  0  0  0
  4  5  1  0  0  0  0
  4  8  1  0  0  0  0
  5  6  2  0  0  0  0
  5 10  1  0  0  0  0
  6 12  1  0  0  0  0
  7  8  2  0  0  0  0
  8  9  1  0  0  0  0
  9 11  1  0  0  0  0
  1 13  1  0  0  0  0
  2 14  1  0  0  0  0
  3 15  1  0  0  0  0
  7 16  1  0  0  0  0
  7 17  1  0  0  0  0
  9 18  1  0  0  0  0
  9 19  1  0  0  0  0
 10 20  1  0  0  0  0
M  END
> <id>
EN300-1923472

> <smiles>
OC=1C(Br)=CC=CC1C(=C)CCl

> <IUPAC Name>
2-bromo-6-(3-chloroprop-1-en-2-yl)phenol

> <CAS>
2228367-42-6

> <URL>
https://www.enaminestore.com/catalog/EN300-1923472

> <ROCS_ShapeQuery>
_x1604L0AP1_x0771L0AP1

> <ROCS_TanimotoCombo>
0.990 

> <ROCS_ShapeTanimoto>
0.539 

> <ROCS_ColorTanimoto>
0.451 

> <ROCS_RefTversky>
0.467 

> <ROCS_RefColorTversky>
0.483 

> <ROCS_RefTverskyCombo>
0.949 

> <ROCS_FitTversky>
1.403 

> <ROCS_FitColorTversky>
0.873 

> <ROCS_FitTverskyCombo>
2.275 

> <ROCS_ColorScore>
-4.569

> <ROCS_Overlap>
780.760

> <ROCS_Rank>
156                 

$$$$
untitled-dbase-391_5
  -OEChem-06052310023D

 21 22  0     0  0  0  0  0  0999 V2000
   -7.1075   10.4840  -34.6066 C   0  0  0  0  0  0  0  0  0  0  0  0
   -6.7090   11.0460  -33.3938 C   0  0  0  0  0  0  0  0  0  0  0  0
   -7.0209    9.1051  -34.7982 C   0  0  0  0  0  0  0  0  0  0  0  0
   -5.3885   11.6865  -29.1604 C   0  0  0  0  0  0  0  0  0  0  0  0
   -6.2238   10.2291  -32.3726 C   0  0  0  0  0  0  0  0  0  0  0  0
   -6.2161   10.7659  -29.8262 C   0  0  0  0  0  0  0  0  0  0  0  0
   -6.5357    8.2882  -33.7771 C   0  0  0  0  0  0  0  0  0  0  0  0
   -6.1371    8.8502  -32.5642 C   0  0  0  0  0  0  0  0  0  0  0  0
   -5.8247   10.8636  -31.1352 C   0  0  0  0  0  0  0  0  0  0  0  0
   -4.5481   12.3076  -29.9927 N   0  0  0  0  0  0  0  0  0  0  0  0
   -7.1692    9.9750  -29.2979 N   0  0  0  0  0  0  0  0  0  0  0  0
   -4.8298   11.7805  -31.2474 O   0  0  0  0  0  0  0  0  0  0  0  0
   -6.4659    6.9453  -34.0037 O   0  0  0  0  0  0  0  0  0  0  0  0
   -5.4786    7.7046  -31.1878 Br  0  0  0  0  0  0  0  0  0  0  0  0
   -7.4847   11.1199  -35.4019 H   0  0  0  0  0  0  0  0  0  0  0  0
   -6.7840   12.1233  -33.2627 H   0  0  0  0  0  0  0  0  0  0  0  0
   -7.3321    8.6747  -35.7460 H   0  0  0  0  0  0  0  0  0  0  0  0
   -5.3574   11.9345  -28.1092 H   0  0  0  0  0  0  0  0  0  0  0  0
   -7.3582    9.9411  -28.2833 H   0  0  0  0  0  0  0  0  0  0  0  0
   -7.6965    9.2923  -29.8656 H   0  0  0  0  0  0  0  0  0  0  0  0
   -6.1144    6.4926  -33.2216 H   0  0  0  0  0  0  0  0  0  0  0  0
  1  2  1  0  0  0  0
  1  3  2  0  0  0  0
  2  5  2  0  0  0  0
  3  7  1  0  0  0  0
  4  6  1  0  0  0  0
  4 10  2  0  0  0  0
  5  8  1  0  0  0  0
  5  9  1  0  0  0  0
  6  9  2  0  0  0  0
  6 11  1  0  0  0  0
  7  8  2  0  0  0  0
  7 13  1  0  0  0  0
  8 14  1  0  0  0  0
  9 12  1  0  0  0  0
 10 12  1  0  0  0  0
  1 15  1  0  0  0  0
  2 16  1  0  0  0  0
  3 17  1  0  0  0  0
  4 18  1  0  0  0  0
 11 19  1  0  0  0  0
 11 20  1  0  0  0  0
 13 21  1  0  0  0  0
M  END
> <id>
EN300-1904648

> <smiles>
NC=1C=NOC1C=2C=CC=C(O)C2Br

> <IUPAC Name>
3-(4-amino-1,2-oxazol-5-yl)-2-bromophenol

> <CAS>
2228321-30-8

> <URL>
https://www.enaminestore.com/catalog/EN300-1904648

> <ROCS_ShapeQuery>
_x1604L0AP1_x0771L0AP1

> <ROCS_TanimotoCombo>
0.989 

> <ROCS_ShapeTanimoto>
0.581 

> <ROCS_ColorTanimoto>
0.409 

> <ROCS_RefTversky>
0.517 

> <ROCS_RefColorTversky>
0.534 

> <ROCS_RefTverskyCombo>
1.051 

> <ROCS_FitTversky>
1.270 

> <ROCS_FitColorTversky>
0.635 

> <ROCS_FitTverskyCombo>
1.905 

> <ROCS_ColorScore>
-5.137

> <ROCS_Overlap>
867.953

> <ROCS_Rank>
157                 

$$$$
untitled-dbase-50_9
  -OEChem-06052310023D

 17 17  0     0  0  0  0  0  0999 V2000
   -4.3548   12.1579  -31.2082 C   0  0  0  0  0  0  0  0  0  0  0  0
   -5.0790   11.1349  -31.8204 C   0  0  0  0  0  0  0  0  0  0  0  0
   -5.5723   11.7905  -29.1540 C   0  0  0  0  0  0  0  0  0  0  0  0
   -6.2965   10.7676  -29.7662 C   0  0  0  0  0  0  0  0  0  0  0  0
   -4.6014   12.4856  -29.8750 C   0  0  0  0  0  0  0  0  0  0  0  0
   -6.0499   10.4398  -31.0994 C   0  0  0  0  0  0  0  0  0  0  0  0
   -2.6185   14.2802  -30.4752 C   0  0  0  0  0  0  0  0  0  0  0  0
   -7.2367   10.1055  -29.0339 O   0  0  0  0  0  0  0  0  0  0  0  0
   -3.6735   13.7905  -29.0934 S   0  0  0  0  0  0  0  0  0  0  0  0
   -7.0141    9.0561  -31.9639 Br  0  0  0  0  0  0  0  0  0  0  0  0
   -3.6012   12.6875  -31.7860 H   0  0  0  0  0  0  0  0  0  0  0  0
   -4.8719   10.8920  -32.8596 H   0  0  0  0  0  0  0  0  0  0  0  0
   -5.7723   12.0364  -28.1134 H   0  0  0  0  0  0  0  0  0  0  0  0
   -1.9603   15.0971  -30.1691 H   0  0  0  0  0  0  0  0  0  0  0  0
   -3.2355   14.6146  -31.3129 H   0  0  0  0  0  0  0  0  0  0  0  0
   -2.0095   13.4317  -30.7962 H   0  0  0  0  0  0  0  0  0  0  0  0
   -7.6634    9.4238  -29.5759 H   0  0  0  0  0  0  0  0  0  0  0  0
  1  2  1  0  0  0  0
  1  5  2  0  0  0  0
  2  6  2  0  0  0  0
  3  4  2  0  0  0  0
  3  5  1  0  0  0  0
  4  6  1  0  0  0  0
  4  8  1  0  0  0  0
  5  9  1  0  0  0  0
  6 10  1  0  0  0  0
  7  9  1  0  0  0  0
  1 11  1  0  0  0  0
  2 12  1  0  0  0  0
  3 13  1  0  0  0  0
  7 14  1  0  0  0  0
  7 15  1  0  0  0  0
  7 16  1  0  0  0  0
  8 17  1  0  0  0  0
M  END
> <id>
EN300-199131

> <smiles>
CSC=1C=CC(Br)=C(O)C1

> <MDLNUMBER>
MFCD16999029

> <IUPAC Name>
2-bromo-5-(methylsulfanyl)phenol

> <CAS>
1243397-23-0

> <Purity>
95

> <URL>
https://www.enaminestore.com/catalog/EN300-199131

> <ROCS_ShapeQuery>
_x1604L0AP1_x0771L0AP1

> <ROCS_TanimotoCombo>
0.989 

> <ROCS_ShapeTanimoto>
0.493 

> <ROCS_ColorTanimoto>
0.497 

> <ROCS_RefTversky>
0.422 

> <ROCS_RefColorTversky>
0.515 

> <ROCS_RefTverskyCombo>
0.937 

> <ROCS_FitTversky>
1.515 

> <ROCS_FitColorTversky>
0.932 

> <ROCS_FitTverskyCombo>
2.447 

> <ROCS_ColorScore>
-4.878

> <ROCS_Overlap>
703.773

> <ROCS_Rank>
158                 

$$$$
untitled-dbase-1527_0
  -OEChem-06052310023D

 15 15  0     0  0  0  0  0  0999 V2000
   -5.0690   11.1222  -31.8183 C   0  0  0  0  0  0  0  0  0  0  0  0
   -5.5532   11.7879  -29.1527 C   0  0  0  0  0  0  0  0  0  0  0  0
   -6.2853   10.7683  -29.7610 C   0  0  0  0  0  0  0  0  0  0  0  0
   -4.5789   12.4746  -29.8772 C   0  0  0  0  0  0  0  0  0  0  0  0
   -4.3369   12.1418  -31.2100 C   0  0  0  0  0  0  0  0  0  0  0  0
   -6.0433   10.4355  -31.0938 C   0  0  0  0  0  0  0  0  0  0  0  0
   -5.7927   12.1518  -27.7625 C   0  0  0  0  0  0  0  0  0  0  0  0
   -6.6368   11.5939  -27.0584 O   0  0  0  0  0  0  0  0  0  0  0  0
   -7.2376   10.1045  -29.0425 O   0  0  0  0  0  0  0  0  0  0  0  0
   -3.8753   13.4541  -29.2887 F   0  0  0  0  0  0  0  0  0  0  0  0
   -3.1363   12.9854  -32.1097 Cl  0  0  0  0  0  0  0  0  0  0  0  0
   -7.0176    9.0563  -31.9561 Br  0  0  0  0  0  0  0  0  0  0  0  0
   -4.8770   10.8646  -32.8577 H   0  0  0  0  0  0  0  0  0  0  0  0
   -5.1761   12.9721  -27.3377 H   0  0  0  0  0  0  0  0  0  0  0  0
   -7.2793   10.4571  -28.1408 H   0  0  0  0  0  0  0  0  0  0  0  0
  1  5  2  0  0  0  0
  1  6  1  0  0  0  0
  2  3  1  0  0  0  0
  2  4  2  0  0  0  0
  2  7  1  0  0  0  0
  3  6  2  0  0  0  0
  3  9  1  0  0  0  0
  4  5  1  0  0  0  0
  4 10  1  0  0  0  0
  5 11  1  0  0  0  0
  6 12  1  0  0  0  0
  7  8  2  0  0  0  0
  1 13  1  0  0  0  0
  7 14  1  0  0  0  0
  9 15  1  0  0  0  0
M  END
> <id>
EN300-1276473

> <smiles>
OC=1C(Br)=CC(Cl)=C(F)C1C=O

> <MDLNUMBER>
MFCD29934849

> <IUPAC Name>
3-bromo-5-chloro-6-fluoro-2-hydroxybenzaldehyde

> <CAS>
1692795-76-8

> <URL>
https://www.enaminestore.com/catalog/EN300-1276473

> <ROCS_ShapeQuery>
_x1604L0AP1_x0771L0AP1

> <ROCS_TanimotoCombo>
0.989 

> <ROCS_ShapeTanimoto>
0.492 

> <ROCS_ColorTanimoto>
0.497 

> <ROCS_RefTversky>
0.442 

> <ROCS_RefColorTversky>
0.516 

> <ROCS_RefTverskyCombo>
0.958 

> <ROCS_FitTversky>
1.295 

> <ROCS_FitColorTversky>
0.932 

> <ROCS_FitTverskyCombo>
2.227 

> <ROCS_ColorScore>
-4.884

> <ROCS_Overlap>
740.326

> <ROCS_Rank>
159                 

$$$$
untitled-dbase-599_17
  -OEChem-06052310023D

 21 21  0     0  0  0  0  0  0999 V2000
   -4.6104   12.4912  -29.8791 C   0  0  0  0  0  0  0  0  0  0  0  0
   -4.3658   12.1656  -31.2131 C   0  0  0  0  0  0  0  0  0  0  0  0
   -5.5759   11.7908  -29.1559 C   0  0  0  0  0  0  0  0  0  0  0  0
   -5.0867   11.1396  -31.8240 C   0  0  0  0  0  0  0  0  0  0  0  0
   -6.2968   10.7648  -29.7668 C   0  0  0  0  0  0  0  0  0  0  0  0
   -6.0522   10.4392  -31.1009 C   0  0  0  0  0  0  0  0  0  0  0  0
   -5.9897   10.9642  -34.1767 C   0  0  0  0  0  0  0  0  0  0  0  0
   -4.7871   10.8297  -33.2555 C   0  0  0  0  0  0  0  0  0  0  0  0
   -5.7707   10.6091  -35.6202 C   0  0  0  0  0  0  0  0  0  0  0  0
   -7.0904   11.3452  -33.7810 O   0  0  0  0  0  0  0  0  0  0  0  0
   -7.2329   10.1030  -29.0287 O   0  0  0  0  0  0  0  0  0  0  0  0
   -4.4933   10.2173  -35.8553 F   0  0  0  0  0  0  0  0  0  0  0  0
   -6.5747    9.5941  -36.0256 F   0  0  0  0  0  0  0  0  0  0  0  0
   -6.0200   11.6606  -36.4402 F   0  0  0  0  0  0  0  0  0  0  0  0
   -7.0418    9.0373  -31.9235 Br  0  0  0  0  0  0  0  0  0  0  0  0
   -4.0494   13.2905  -29.4035 H   0  0  0  0  0  0  0  0  0  0  0  0
   -3.6112   12.7180  -31.7673 H   0  0  0  0  0  0  0  0  0  0  0  0
   -5.7612   12.0508  -28.1171 H   0  0  0  0  0  0  0  0  0  0  0  0
   -3.9974   11.4974  -33.6308 H   0  0  0  0  0  0  0  0  0  0  0  0
   -4.4031    9.8030  -33.3486 H   0  0  0  0  0  0  0  0  0  0  0  0
   -7.6596    9.4184  -29.5669 H   0  0  0  0  0  0  0  0  0  0  0  0
  1  2  2  0  0  0  0
  1  3  1  0  0  0  0
  2  4  1  0  0  0  0
  3  5  2  0  0  0  0
  4  6  2  0  0  0  0
  4  8  1  0  0  0  0
  5  6  1  0  0  0  0
  5 11  1  0  0  0  0
  6 15  1  0  0  0  0
  7  8  1  0  0  0  0
  7  9  1  0  0  0  0
  7 10  2  0  0  0  0
  9 12  1  0  0  0  0
  9 13  1  0  0  0  0
  9 14  1  0  0  0  0
  1 16  1  0  0  0  0
  2 17  1  0  0  0  0
  3 18  1  0  0  0  0
  8 19  1  0  0  0  0
  8 20  1  0  0  0  0
 11 21  1  0  0  0  0
M  END
> <id>
EN300-1950763

> <smiles>
OC=1C=CC=C(CC(=O)C(F)(F)F)C1Br

> <IUPAC Name>
3-(2-bromo-3-hydroxyphenyl)-1,1,1-trifluoropropan-2-one

> <CAS>
2228581-72-2

> <URL>
https://www.enaminestore.com/catalog/EN300-1950763

> <ROCS_ShapeQuery>
_x1604L0AP1_x0771L0AP1

> <ROCS_TanimotoCombo>
0.989 

> <ROCS_ShapeTanimoto>
0.492 

> <ROCS_ColorTanimoto>
0.497 

> <ROCS_RefTversky>
0.468 

> <ROCS_RefColorTversky>
0.516 

> <ROCS_RefTverskyCombo>
0.984 

> <ROCS_FitTversky>
1.115 

> <ROCS_FitColorTversky>
0.932 

> <ROCS_FitTverskyCombo>
2.048 

> <ROCS_ColorScore>
-4.881

> <ROCS_Overlap>
786.966

> <ROCS_Rank>
160                 

$$$$
untitled-dbase-729_12
  -OEChem-06052310023D

 20 20  0     0  0  0  0  0  0999 V2000
   -4.5735   12.4631  -29.8566 C   0  0  0  0  0  0  0  0  0  0  0  0
   -5.0577   11.1198  -31.8054 C   0  0  0  0  0  0  0  0  0  0  0  0
   -4.3254   12.1346  -31.1893 C   0  0  0  0  0  0  0  0  0  0  0  0
   -5.5538   11.7767  -29.1399 C   0  0  0  0  0  0  0  0  0  0  0  0
   -6.2861   10.7619  -29.7560 C   0  0  0  0  0  0  0  0  0  0  0  0
   -6.0381   10.4334  -31.0887 C   0  0  0  0  0  0  0  0  0  0  0  0
   -4.9913   13.1583  -27.2877 C   0  0  0  0  0  0  0  0  0  0  0  0
   -3.2780   12.8693  -31.9554 C   0  0  0  0  0  0  0  0  0  0  0  0
   -7.2414   10.1027  -29.0386 O   0  0  0  0  0  0  0  0  0  0  0  0
   -5.7849   12.1094  -27.8391 O   0  0  0  0  0  0  0  0  0  0  0  0
   -2.8051   14.3575  -31.1052 Cl  0  0  0  0  0  0  0  0  0  0  0  0
   -7.0128    9.0605  -31.9600 Br  0  0  0  0  0  0  0  0  0  0  0  0
   -4.0041   13.2540  -29.3742 H   0  0  0  0  0  0  0  0  0  0  0  0
   -4.8573   10.8711  -32.8453 H   0  0  0  0  0  0  0  0  0  0  0  0
   -5.2766   13.3228  -26.2458 H   0  0  0  0  0  0  0  0  0  0  0  0
   -5.1417   14.0730  -27.8666 H   0  0  0  0  0  0  0  0  0  0  0  0
   -3.9386   12.8694  -27.3336 H   0  0  0  0  0  0  0  0  0  0  0  0
   -3.6332   13.1493  -32.9560 H   0  0  0  0  0  0  0  0  0  0  0  0
   -2.3766   12.2573  -32.0936 H   0  0  0  0  0  0  0  0  0  0  0  0
   -7.2827   10.4550  -28.1365 H   0  0  0  0  0  0  0  0  0  0  0  0
  1  3  1  0  0  0  0
  1  4  2  0  0  0  0
  2  3  2  0  0  0  0
  2  6  1  0  0  0  0
  3  8  1  0  0  0  0
  4  5  1  0  0  0  0
  4 10  1  0  0  0  0
  5  6  2  0  0  0  0
  5  9  1  0  0  0  0
  6 12  1  0  0  0  0
  7 10  1  0  0  0  0
  8 11  1  0  0  0  0
  1 13  1  0  0  0  0
  2 14  1  0  0  0  0
  7 15  1  0  0  0  0
  7 16  1  0  0  0  0
  7 17  1  0  0  0  0
  8 18  1  0  0  0  0
  8 19  1  0  0  0  0
  9 20  1  0  0  0  0
M  END
> <id>
EN300-1897827

> <smiles>
COC=1C=C(CCl)C=C(Br)C1O

> <MDLNUMBER>
MFCD13178320

> <IUPAC Name>
2-bromo-4-(chloromethyl)-6-methoxyphenol

> <CAS>
21709-81-9

> <URL>
https://www.enaminestore.com/catalog/EN300-1897827

> <ROCS_ShapeQuery>
_x1604L0AP1_x0771L0AP1

> <ROCS_TanimotoCombo>
0.989 

> <ROCS_ShapeTanimoto>
0.492 

> <ROCS_ColorTanimoto>
0.497 

> <ROCS_RefTversky>
0.440 

> <ROCS_RefColorTversky>
0.516 

> <ROCS_RefTverskyCombo>
0.955 

> <ROCS_FitTversky>
1.317 

> <ROCS_FitColorTversky>
0.932 

> <ROCS_FitTverskyCombo>
2.249 

> <ROCS_ColorScore>
-4.882

> <ROCS_Overlap>
735.691

> <ROCS_Rank>
161                 

$$$$
untitled-dbase-553_138
  -OEChem-06052310023D

 24 24  0     0  0  0  0  0  0999 V2000
   -4.5594   12.4493  -29.8393 C   0  0  0  0  0  0  0  0  0  0  0  0
   -5.0441   11.1153  -31.7943 C   0  0  0  0  0  0  0  0  0  0  0  0
   -4.3079   12.1234  -31.1720 C   0  0  0  0  0  0  0  0  0  0  0  0
   -5.5471   11.7670  -29.1288 C   0  0  0  0  0  0  0  0  0  0  0  0
   -6.2833   10.7589  -29.7512 C   0  0  0  0  0  0  0  0  0  0  0  0
   -6.0319   10.4330  -31.0839 C   0  0  0  0  0  0  0  0  0  0  0  0
   -4.9835   13.1392  -27.2700 C   0  0  0  0  0  0  0  0  0  0  0  0
   -3.2524   12.8537  -31.9314 C   0  0  0  0  0  0  0  0  0  0  0  0
   -3.0221   14.3084  -31.4891 C   0  0  0  0  0  0  0  0  0  0  0  0
   -7.2459   10.1037  -29.0399 O   0  0  0  0  0  0  0  0  0  0  0  0
   -5.7815   12.0972  -27.8280 O   0  0  0  0  0  0  0  0  0  0  0  0
   -4.5208   15.3286  -31.6440 S   0  0  0  0  0  0  0  0  0  0  0  0
   -7.0118    9.0692  -31.9636 Br  0  0  0  0  0  0  0  0  0  0  0  0
   -3.9870   13.2350  -29.3520 H   0  0  0  0  0  0  0  0  0  0  0  0
   -4.8409   10.8685  -32.8341 H   0  0  0  0  0  0  0  0  0  0  0  0
   -5.2721   13.3023  -26.2287 H   0  0  0  0  0  0  0  0  0  0  0  0
   -5.1255   14.0567  -27.8466 H   0  0  0  0  0  0  0  0  0  0  0  0
   -3.9325   12.8436  -27.3124 H   0  0  0  0  0  0  0  0  0  0  0  0
   -2.2920   12.3093  -31.9061 H   0  0  0  0  0  0  0  0  0  0  0  0
   -3.5352   12.8657  -32.9984 H   0  0  0  0  0  0  0  0  0  0  0  0
   -2.7200   14.3314  -30.4370 H   0  0  0  0  0  0  0  0  0  0  0  0
   -2.2224   14.7760  -32.0723 H   0  0  0  0  0  0  0  0  0  0  0  0
   -7.2887   10.4534  -28.1369 H   0  0  0  0  0  0  0  0  0  0  0  0
   -4.6674   15.1583  -32.9645 H   0  0  0  0  0  0  0  0  0  0  0  0
  1  3  1  0  0  0  0
  1  4  2  0  0  0  0
  2  3  2  0  0  0  0
  2  6  1  0  0  0  0
  3  8  1  0  0  0  0
  4  5  1  0  0  0  0
  4 11  1  0  0  0  0
  5  6  2  0  0  0  0
  5 10  1  0  0  0  0
  6 13  1  0  0  0  0
  7 11  1  0  0  0  0
  8  9  1  0  0  0  0
  9 12  1  0  0  0  0
  1 14  1  0  0  0  0
  2 15  1  0  0  0  0
  7 16  1  0  0  0  0
  7 17  1  0  0  0  0
  7 18  1  0  0  0  0
  8 19  1  0  0  0  0
  8 20  1  0  0  0  0
  9 21  1  0  0  0  0
  9 22  1  0  0  0  0
 10 23  1  0  0  0  0
 12 24  1  0  0  0  0
M  END
> <id>
EN300-1925669

> <smiles>
COC=1C=C(CCS)C=C(Br)C1O

> <IUPAC Name>
2-bromo-6-methoxy-4-(2-sulfanylethyl)phenol

> <CAS>
2229006-81-7

> <URL>
https://www.enaminestore.com/catalog/EN300-1925669

> <ROCS_ShapeQuery>
_x1604L0AP1_x0771L0AP1

> <ROCS_TanimotoCombo>
0.988 

> <ROCS_ShapeTanimoto>
0.491 

> <ROCS_ColorTanimoto>
0.497 

> <ROCS_RefTversky>
0.446 

> <ROCS_RefColorTversky>
0.516 

> <ROCS_RefTverskyCombo>
0.961 

> <ROCS_FitTversky>
1.258 

> <ROCS_FitColorTversky>
0.932 

> <ROCS_FitTverskyCombo>
2.191 

> <ROCS_ColorScore>
-4.881

> <ROCS_Overlap>
746.655

> <ROCS_Rank>
162                 

$$$$
untitled-dbase-2290_0
  -OEChem-06052310023D

 25 25  0     0  0  0  0  0  0999 V2000
   -4.3285   12.1833  -31.1706 C   0  0  0  0  0  0  0  0  0  0  0  0
   -5.0548   11.1643  -31.7868 C   0  0  0  0  0  0  0  0  0  0  0  0
   -4.5753   12.5071  -29.8364 C   0  0  0  0  0  0  0  0  0  0  0  0
   -6.0280   10.4692  -31.0690 C   0  0  0  0  0  0  0  0  0  0  0  0
   -6.2749   10.7930  -29.7349 C   0  0  0  0  0  0  0  0  0  0  0  0
   -5.5486   11.8120  -29.1186 C   0  0  0  0  0  0  0  0  0  0  0  0
   -6.3387    9.2127  -33.2302 C   0  0  0  0  0  0  0  0  0  0  0  0
   -8.3233    9.6920  -31.7578 C   0  0  0  0  0  0  0  0  0  0  0  0
   -6.6594    7.9640  -31.1042 C   0  0  0  0  0  0  0  0  0  0  0  0
   -6.8175    9.3505  -31.7687 C   0  0  0  0  0  0  0  0  0  0  0  0
   -7.2314   10.1049  -29.0464 O   0  0  0  0  0  0  0  0  0  0  0  0
   -5.8536   12.2812  -27.3073 Br  0  0  0  0  0  0  0  0  0  0  0  0
   -3.5704   12.7243  -31.7292 H   0  0  0  0  0  0  0  0  0  0  0  0
   -4.8543   10.9170  -32.8259 H   0  0  0  0  0  0  0  0  0  0  0  0
   -3.9990   13.3039  -29.3730 H   0  0  0  0  0  0  0  0  0  0  0  0
   -6.8869    8.4201  -33.7527 H   0  0  0  0  0  0  0  0  0  0  0  0
   -6.4858   10.1347  -33.8034 H   0  0  0  0  0  0  0  0  0  0  0  0
   -5.2715    8.9650  -33.2739 H   0  0  0  0  0  0  0  0  0  0  0  0
   -8.9270    8.9201  -32.2474 H   0  0  0  0  0  0  0  0  0  0  0  0
   -8.6990    9.7899  -30.7325 H   0  0  0  0  0  0  0  0  0  0  0  0
   -8.5168   10.6388  -32.2757 H   0  0  0  0  0  0  0  0  0  0  0  0
   -7.2397    7.2017  -31.6379 H   0  0  0  0  0  0  0  0  0  0  0  0
   -5.6145    7.6324  -31.1058 H   0  0  0  0  0  0  0  0  0  0  0  0
   -7.0142    7.9708  -30.0670 H   0  0  0  0  0  0  0  0  0  0  0  0
   -7.2912   10.4372  -28.1379 H   0  0  0  0  0  0  0  0  0  0  0  0
  1  2  1  0  0  0  0
  1  3  2  0  0  0  0
  2  4  2  0  0  0  0
  3  6  1  0  0  0  0
  4  5  1  0  0  0  0
  4 10  1  0  0  0  0
  5  6  2  0  0  0  0
  5 11  1  0  0  0  0
  6 12  1  0  0  0  0
  7 10  1  0  0  0  0
  8 10  1  0  0  0  0
  9 10  1  0  0  0  0
  1 13  1  0  0  0  0
  2 14  1  0  0  0  0
  3 15  1  0  0  0  0
  7 16  1  0  0  0  0
  7 17  1  0  0  0  0
  7 18  1  0  0  0  0
  8 19  1  0  0  0  0
  8 20  1  0  0  0  0
  8 21  1  0  0  0  0
  9 22  1  0  0  0  0
  9 23  1  0  0  0  0
  9 24  1  0  0  0  0
 11 25  1  0  0  0  0
M  END
> <id>
EN300-3205932

> <smiles>
CC(C)(C)C=1C=CC=C(Br)C1O

> <MDLNUMBER>
MFCD16996888

> <IUPAC Name>
2-bromo-6-tert-butylphenol

> <CAS>
23159-87-7

> <Purity>
95

> <URL>
https://www.enaminestore.com/catalog/EN300-3205932

> <ROCS_ShapeQuery>
_x1604L0AP1_x0771L0AP1

> <ROCS_TanimotoCombo>
0.987 

> <ROCS_ShapeTanimoto>
0.490 

> <ROCS_ColorTanimoto>
0.497 

> <ROCS_RefTversky>
0.439 

> <ROCS_RefColorTversky>
0.516 

> <ROCS_RefTverskyCombo>
0.955 

> <ROCS_FitTversky>
1.307 

> <ROCS_FitColorTversky>
0.932 

> <ROCS_FitTverskyCombo>
2.239 

> <ROCS_ColorScore>
-4.881

> <ROCS_Overlap>
734.986

> <ROCS_Rank>
163                 

$$$$
untitled-dbase-486_46
  -OEChem-06052310023D

 18 18  0     0  0  0  0  0  0999 V2000
   -5.0652   11.2172  -31.7861 C   0  0  0  0  0  0  0  0  0  0  0  0
   -4.5289   12.4629  -29.7866 C   0  0  0  0  0  0  0  0  0  0  0  0
   -6.0483   10.5175  -31.0865 C   0  0  0  0  0  0  0  0  0  0  0  0
   -6.2718   10.7905  -29.7370 C   0  0  0  0  0  0  0  0  0  0  0  0
   -4.3054   12.1899  -31.1361 C   0  0  0  0  0  0  0  0  0  0  0  0
   -5.5121   11.7632  -29.0870 C   0  0  0  0  0  0  0  0  0  0  0  0
   -6.8503    9.4802  -31.8016 C   0  0  0  0  0  0  0  0  0  0  0  0
   -6.2841    8.1828  -34.7828 N   0  5  0  0  0  0  0  0  0  0  0  0
   -7.0472    9.8103  -33.2178 N   0  0  0  0  0  0  0  0  0  0  0  0
   -6.6476    8.9585  -34.0296 N   0  3  0  0  0  0  0  0  0  0  0  0
   -7.2372   10.0973  -29.0662 O   0  0  0  0  0  0  0  0  0  0  0  0
   -3.0922   13.0529  -31.9998 Cl  0  0  0  0  0  0  0  0  0  0  0  0
   -5.7861   12.1623  -27.2539 Br  0  0  0  0  0  0  0  0  0  0  0  0
   -4.8943   11.0017  -32.8387 H   0  0  0  0  0  0  0  0  0  0  0  0
   -3.9339   13.2218  -29.2833 H   0  0  0  0  0  0  0  0  0  0  0  0
   -6.3643    8.4966  -31.7272 H   0  0  0  0  0  0  0  0  0  0  0  0
   -7.8359    9.3623  -31.3294 H   0  0  0  0  0  0  0  0  0  0  0  0
   -7.6668    9.4644  -29.6616 H   0  0  0  0  0  0  0  0  0  0  0  0
  1  3  2  0  0  0  0
  1  5  1  0  0  0  0
  2  5  2  0  0  0  0
  2  6  1  0  0  0  0
  3  4  1  0  0  0  0
  3  7  1  0  0  0  0
  4  6  2  0  0  0  0
  4 11  1  0  0  0  0
  5 12  1  0  0  0  0
  6 13  1  0  0  0  0
  7  9  1  0  0  0  0
  8 10  2  0  0  0  0
  9 10  2  0  0  0  0
  1 14  1  0  0  0  0
  2 15  1  0  0  0  0
  7 16  1  0  0  0  0
  7 17  1  0  0  0  0
 11 18  1  0  0  0  0
M  CHG  2   8  -1  10   1
M  END
> <id>
EN300-1922886

> <smiles>
OC=1C(Br)=CC(Cl)=CC1CN=[N+]=[N-]

> <IUPAC Name>
2-(azidomethyl)-6-bromo-4-chlorophenol

> <CAS>
2229143-99-9

> <URL>
https://www.enaminestore.com/catalog/EN300-1922886

> <ROCS_ShapeQuery>
_x1604L0AP1_x0771L0AP1

> <ROCS_TanimotoCombo>
0.987 

> <ROCS_ShapeTanimoto>
0.591 

> <ROCS_ColorTanimoto>
0.396 

> <ROCS_RefTversky>
0.505 

> <ROCS_RefColorTversky>
0.413 

> <ROCS_RefTverskyCombo>
0.918 

> <ROCS_FitTversky>
1.401 

> <ROCS_FitColorTversky>
0.907 

> <ROCS_FitTverskyCombo>
2.308 

> <ROCS_ColorScore>
-3.887

> <ROCS_Overlap>
846.592

> <ROCS_Rank>
164                 

$$$$
untitled-dbase-1906_55
  -OEChem-06052310023D

 23 23  0     0  0  0  0  0  0999 V2000
   -4.5853   12.4730  -29.8518 C   0  0  0  0  0  0  0  0  0  0  0  0
   -5.0627   11.1301  -31.8026 C   0  0  0  0  0  0  0  0  0  0  0  0
   -5.5633   11.7819  -29.1367 C   0  0  0  0  0  0  0  0  0  0  0  0
   -6.2910   10.7648  -29.7545 C   0  0  0  0  0  0  0  0  0  0  0  0
   -4.3350   12.1471  -31.1848 C   0  0  0  0  0  0  0  0  0  0  0  0
   -6.0407   10.4389  -31.0875 C   0  0  0  0  0  0  0  0  0  0  0  0
   -5.7090   14.4829  -27.5209 C   0  0  0  0  0  0  0  0  0  0  0  0
   -5.0083   13.1625  -27.2815 C   0  0  0  0  0  0  0  0  0  0  0  0
   -2.1797   13.5794  -31.1232 O   0  0  0  0  0  0  0  0  0  0  0  0
   -2.6814   12.1670  -33.1763 O   0  0  0  0  0  0  0  0  0  0  0  0
   -7.2434   10.1005  -29.0380 O   0  0  0  0  0  0  0  0  0  0  0  0
   -5.7968   12.1111  -27.8354 O   0  0  0  0  0  0  0  0  0  0  0  0
   -3.8146   14.2603  -32.7659 F   0  0  0  0  0  0  0  0  0  0  0  0
   -3.1106   13.0126  -32.0795 S   0  0  0  0  0  0  0  0  0  0  0  0
   -7.0089    9.0631  -31.9614 Br  0  0  0  0  0  0  0  0  0  0  0  0
   -4.0203   13.2650  -29.3664 H   0  0  0  0  0  0  0  0  0  0  0  0
   -4.8619   10.8815  -32.8423 H   0  0  0  0  0  0  0  0  0  0  0  0
   -5.8363   14.6688  -28.5909 H   0  0  0  0  0  0  0  0  0  0  0  0
   -6.6933   14.4901  -27.0412 H   0  0  0  0  0  0  0  0  0  0  0  0
   -5.1364   15.3082  -27.0846 H   0  0  0  0  0  0  0  0  0  0  0  0
   -4.8842   12.9828  -26.2094 H   0  0  0  0  0  0  0  0  0  0  0  0
   -4.0255   13.1567  -27.7620 H   0  0  0  0  0  0  0  0  0  0  0  0
   -7.2862   10.4513  -28.1354 H   0  0  0  0  0  0  0  0  0  0  0  0
  1  3  2  0  0  0  0
  1  5  1  0  0  0  0
  2  5  2  0  0  0  0
  2  6  1  0  0  0  0
  3  4  1  0  0  0  0
  3 12  1  0  0  0  0
  4  6  2  0  0  0  0
  4 11  1  0  0  0  0
  5 14  1  0  0  0  0
  6 15  1  0  0  0  0
  7  8  1  0  0  0  0
  8 12  1  0  0  0  0
  9 14  2  0  0  0  0
 10 14  2  0  0  0  0
 13 14  1  0  0  0  0
  1 16  1  0  0  0  0
  2 17  1  0  0  0  0
  7 18  1  0  0  0  0
  7 19  1  0  0  0  0
  7 20  1  0  0  0  0
  8 21  1  0  0  0  0
  8 22  1  0  0  0  0
 11 23  1  0  0  0  0
M  END
> <id>
EN300-6493405

> <smiles>
CCOC=1C=C(C=C(Br)C1O)S(=O)(=O)F

> <IUPAC Name>
3-bromo-5-ethoxy-4-hydroxybenzene-1-sulfonyl fluoride

> <CAS>
2247105-97-9

> <URL>
https://www.enaminestore.com/catalog/EN300-6493405

> <ROCS_ShapeQuery>
_x1604L0AP1_x0771L0AP1

> <ROCS_TanimotoCombo>
0.986 

> <ROCS_ShapeTanimoto>
0.489 

> <ROCS_ColorTanimoto>
0.497 

> <ROCS_RefTversky>
0.461 

> <ROCS_RefColorTversky>
0.516 

> <ROCS_RefTverskyCombo>
0.977 

> <ROCS_FitTversky>
1.141 

> <ROCS_FitColorTversky>
0.932 

> <ROCS_FitTverskyCombo>
2.073 

> <ROCS_ColorScore>
-4.881

> <ROCS_Overlap>
773.942

> <ROCS_Rank>
165                 

$$$$
untitled-dbase-753_38
  -OEChem-06052310023D

 21 21  0     0  0  0  0  0  0999 V2000
   -4.3249   12.1434  -31.2361 C   0  0  0  0  0  0  0  0  0  0  0  0
   -5.0392   11.1195  -31.8582 C   0  0  0  0  0  0  0  0  0  0  0  0
   -4.5842   12.4650  -29.9038 C   0  0  0  0  0  0  0  0  0  0  0  0
   -6.0129   10.4173  -31.1480 C   0  0  0  0  0  0  0  0  0  0  0  0
   -6.2723   10.7389  -29.8157 C   0  0  0  0  0  0  0  0  0  0  0  0
   -5.5580   11.7628  -29.1937 C   0  0  0  0  0  0  0  0  0  0  0  0
   -6.8824    7.8380  -33.8840 C   0  0  0  0  0  0  0  0  0  0  0  0
   -6.7667    9.3255  -31.8337 C   0  0  0  0  0  0  0  0  0  0  0  0
   -6.1289    8.9335  -33.1689 C   0  0  0  0  0  0  0  0  0  0  0  0
   -6.4010    6.7606  -34.2174 O   0  0  0  0  0  0  0  0  0  0  0  0
   -7.2292   10.0439  -29.1347 O   0  0  0  0  0  0  0  0  0  0  0  0
   -5.8802   12.2294  -27.3847 Br  0  0  0  0  0  0  0  0  0  0  0  0
   -3.5663   12.6899  -31.7889 H   0  0  0  0  0  0  0  0  0  0  0  0
   -4.8290   10.8739  -32.8958 H   0  0  0  0  0  0  0  0  0  0  0  0
   -4.0171   13.2658  -29.4358 H   0  0  0  0  0  0  0  0  0  0  0  0
   -7.9398    8.0678  -34.1017 H   0  0  0  0  0  0  0  0  0  0  0  0
   -6.8320    8.4405  -31.1798 H   0  0  0  0  0  0  0  0  0  0  0  0
   -7.8127    9.6320  -31.9981 H   0  0  0  0  0  0  0  0  0  0  0  0
   -5.1028    8.5805  -33.0153 H   0  0  0  0  0  0  0  0  0  0  0  0
   -6.0873    9.7971  -33.8425 H   0  0  0  0  0  0  0  0  0  0  0  0
   -7.2983   10.3755  -28.2266 H   0  0  0  0  0  0  0  0  0  0  0  0
  1  2  1  0  0  0  0
  1  3  2  0  0  0  0
  2  4  2  0  0  0  0
  3  6  1  0  0  0  0
  4  5  1  0  0  0  0
  4  8  1  0  0  0  0
  5  6  2  0  0  0  0
  5 11  1  0  0  0  0
  6 12  1  0  0  0  0
  7  9  1  0  0  0  0
  7 10  2  0  0  0  0
  8  9  1  0  0  0  0
  1 13  1  0  0  0  0
  2 14  1  0  0  0  0
  3 15  1  0  0  0  0
  7 16  1  0  0  0  0
  8 17  1  0  0  0  0
  8 18  1  0  0  0  0
  9 19  1  0  0  0  0
  9 20  1  0  0  0  0
 11 21  1  0  0  0  0
M  END
> <id>
EN300-1894720

> <smiles>
OC=1C(Br)=CC=CC1CCC=O

> <MDLNUMBER>
MFCD18391532

> <IUPAC Name>
3-(3-bromo-2-hydroxyphenyl)propanal

> <CAS>
1261756-85-7

> <URL>
https://www.enaminestore.com/catalog/EN300-1894720

> <ROCS_ShapeQuery>
_x1604L0AP1_x0771L0AP1

> <ROCS_TanimotoCombo>
0.986 

> <ROCS_ShapeTanimoto>
0.514 

> <ROCS_ColorTanimoto>
0.471 

> <ROCS_RefTversky>
0.453 

> <ROCS_RefColorTversky>
0.497 

> <ROCS_RefTverskyCombo>
0.951 

> <ROCS_FitTversky>
1.355 

> <ROCS_FitColorTversky>
0.899 

> <ROCS_FitTverskyCombo>
2.254 

> <ROCS_ColorScore>
-4.708

> <ROCS_Overlap>
758.487

> <ROCS_Rank>
166                 

$$$$
untitled-dbase-560_22
  -OEChem-06052310023D

 19 19  0     0  0  0  0  0  0999 V2000
   -4.5586   12.4405  -29.8100 C   0  0  0  0  0  0  0  0  0  0  0  0
   -5.5530   11.7562  -29.1112 C   0  0  0  0  0  0  0  0  0  0  0  0
   -5.0316   11.1195  -31.7768 C   0  0  0  0  0  0  0  0  0  0  0  0
   -4.2979   12.1222  -31.1429 C   0  0  0  0  0  0  0  0  0  0  0  0
   -6.2867   10.7535  -29.7452 C   0  0  0  0  0  0  0  0  0  0  0  0
   -6.0260   10.4351  -31.0780 C   0  0  0  0  0  0  0  0  0  0  0  0
   -3.2343   12.8544  -31.8889 C   0  0  0  0  0  0  0  0  0  0  0  0
   -3.0670   14.2834  -31.3820 C   0  0  0  0  0  0  0  0  0  0  0  0
   -7.2505   10.1025  -29.0340 O   0  0  0  0  0  0  0  0  0  0  0  0
   -7.0022    9.0775  -31.9705 Br  0  0  0  0  0  0  0  0  0  0  0  0
   -4.7431   15.2594  -31.5483 Br  0  0  0  0  0  0  0  0  0  0  0  0
   -3.9923   13.2201  -29.3070 H   0  0  0  0  0  0  0  0  0  0  0  0
   -5.7505   12.0097  -28.0730 H   0  0  0  0  0  0  0  0  0  0  0  0
   -4.8217   10.8784  -32.8167 H   0  0  0  0  0  0  0  0  0  0  0  0
   -3.4650   12.8631  -32.9677 H   0  0  0  0  0  0  0  0  0  0  0  0
   -2.2757   12.3138  -31.8110 H   0  0  0  0  0  0  0  0  0  0  0  0
   -2.7916   14.3133  -30.3236 H   0  0  0  0  0  0  0  0  0  0  0  0
   -2.3233   14.8392  -31.9607 H   0  0  0  0  0  0  0  0  0  0  0  0
   -7.6817    9.4345  -29.5892 H   0  0  0  0  0  0  0  0  0  0  0  0
  1  2  1  0  0  0  0
  1  4  2  0  0  0  0
  2  5  2  0  0  0  0
  3  4  1  0  0  0  0
  3  6  2  0  0  0  0
  4  7  1  0  0  0  0
  5  6  1  0  0  0  0
  5  9  1  0  0  0  0
  6 10  1  0  0  0  0
  7  8  1  0  0  0  0
  8 11  1  0  0  0  0
  1 12  1  0  0  0  0
  2 13  1  0  0  0  0
  3 14  1  0  0  0  0
  7 15  1  0  0  0  0
  7 16  1  0  0  0  0
  8 17  1  0  0  0  0
  8 18  1  0  0  0  0
  9 19  1  0  0  0  0
M  END
> <id>
EN300-1906332

> <smiles>
OC=1C=CC(CCBr)=CC1Br

> <MDLNUMBER>
MFCD33501282

> <IUPAC Name>
2-bromo-4-(2-bromoethyl)phenol

> <CAS>
2229475-72-1

> <URL>
https://www.enaminestore.com/catalog/EN300-1906332

> <ROCS_ShapeQuery>
_x1604L0AP1_x0771L0AP1

> <ROCS_TanimotoCombo>
0.985 

> <ROCS_ShapeTanimoto>
0.489 

> <ROCS_ColorTanimoto>
0.496 

> <ROCS_RefTversky>
0.428 

> <ROCS_RefColorTversky>
0.515 

> <ROCS_RefTverskyCombo>
0.943 

> <ROCS_FitTversky>
1.412 

> <ROCS_FitColorTversky>
0.932 

> <ROCS_FitTverskyCombo>
2.344 

> <ROCS_ColorScore>
-4.877

> <ROCS_Overlap>
714.692

> <ROCS_Rank>
167                 

$$$$
untitled-dbase-2292_0
  -OEChem-06052310023D

 15 15  0     0  0  0  0  0  0999 V2000
   -4.5705   12.4713  -29.8540 C   0  0  0  0  0  0  0  0  0  0  0  0
   -5.0574   11.1241  -31.7995 C   0  0  0  0  0  0  0  0  0  0  0  0
   -4.3238   12.1397  -31.1863 C   0  0  0  0  0  0  0  0  0  0  0  0
   -6.2841   10.7715  -29.7482 C   0  0  0  0  0  0  0  0  0  0  0  0
   -5.5506   11.7871  -29.1350 C   0  0  0  0  0  0  0  0  0  0  0  0
   -6.0375   10.4400  -31.0805 C   0  0  0  0  0  0  0  0  0  0  0  0
   -3.3025   12.8537  -31.9362 C   0  0  0  0  0  0  0  0  0  0  0  0
   -2.6215   13.7615  -31.4512 O   0  0  0  0  0  0  0  0  0  0  0  0
   -7.2425   10.1037  -29.0415 O   0  0  0  0  0  0  0  0  0  0  0  0
   -5.8300   12.2210  -27.4884 Cl  0  0  0  0  0  0  0  0  0  0  0  0
   -7.0121    9.0652  -31.9501 Br  0  0  0  0  0  0  0  0  0  0  0  0
   -3.9961   13.2648  -29.3808 H   0  0  0  0  0  0  0  0  0  0  0  0
   -4.8594   10.8709  -32.8389 H   0  0  0  0  0  0  0  0  0  0  0  0
   -3.1420   12.5540  -32.9947 H   0  0  0  0  0  0  0  0  0  0  0  0
   -7.2904   10.4500  -28.1377 H   0  0  0  0  0  0  0  0  0  0  0  0
  1  3  2  0  0  0  0
  1  5  1  0  0  0  0
  2  3  1  0  0  0  0
  2  6  2  0  0  0  0
  3  7  1  0  0  0  0
  4  5  2  0  0  0  0
  4  6  1  0  0  0  0
  4  9  1  0  0  0  0
  5 10  1  0  0  0  0
  6 11  1  0  0  0  0
  7  8  2  0  0  0  0
  1 12  1  0  0  0  0
  2 13  1  0  0  0  0
  7 14  1  0  0  0  0
  9 15  1  0  0  0  0
M  END
> <id>
EN300-7418405

> <smiles>
OC=1C(Cl)=CC(C=O)=CC1Br

> <MDLNUMBER>
MFCD04129026

> <IUPAC Name>
3-bromo-5-chloro-4-hydroxybenzaldehyde

> <URL>
https://www.enaminestore.com/catalog/EN300-7418405

> <ROCS_ShapeQuery>
_x1604L0AP1_x0771L0AP1

> <ROCS_TanimotoCombo>
0.985 

> <ROCS_ShapeTanimoto>
0.488 

> <ROCS_ColorTanimoto>
0.497 

> <ROCS_RefTversky>
0.430 

> <ROCS_RefColorTversky>
0.516 

> <ROCS_RefTverskyCombo>
0.946 

> <ROCS_FitTversky>
1.379 

> <ROCS_FitColorTversky>
0.933 

> <ROCS_FitTverskyCombo>
2.312 

> <ROCS_ColorScore>
-4.882

> <ROCS_Overlap>
718.705

> <ROCS_Rank>
168                 

$$$$
untitled-dbase-1413_20
  -OEChem-06052310023D

 22 22  0     0  0  0  0  0  0999 V2000
   -4.9531   11.4343  -31.7197 C   0  0  0  0  0  0  0  0  0  0  0  0
   -4.5891   12.5238  -29.5942 C   0  0  0  0  0  0  0  0  0  0  0  0
   -5.9386   10.6346  -31.1410 C   0  0  0  0  0  0  0  0  0  0  0  0
   -6.2494   10.7795  -29.7889 C   0  0  0  0  0  0  0  0  0  0  0  0
   -4.2783   12.3789  -30.9463 C   0  0  0  0  0  0  0  0  0  0  0  0
   -5.5746   11.7241  -29.0155 C   0  0  0  0  0  0  0  0  0  0  0  0
   -6.6267    9.6564  -31.9734 C   0  0  0  0  0  0  0  0  0  0  0  0
   -6.0787    9.0147  -33.0268 C   0  0  0  0  0  0  0  0  0  0  0  0
   -6.8661    8.0206  -33.8102 C   0  0  0  0  0  0  0  0  0  0  0  0
   -8.1211    8.5246  -34.4733 C   0  0  0  0  0  0  0  0  0  0  0  0
   -6.5071    6.8522  -33.9362 O   0  0  0  0  0  0  0  0  0  0  0  0
   -7.2153    9.9936  -29.2275 O   0  0  0  0  0  0  0  0  0  0  0  0
   -3.0623   13.3656  -31.6604 Cl  0  0  0  0  0  0  0  0  0  0  0  0
   -5.9676   11.9520  -27.1745 Br  0  0  0  0  0  0  0  0  0  0  0  0
   -4.7088   11.3238  -32.7745 H   0  0  0  0  0  0  0  0  0  0  0  0
   -4.0600   13.2617  -28.9944 H   0  0  0  0  0  0  0  0  0  0  0  0
   -7.6591    9.4276  -31.6911 H   0  0  0  0  0  0  0  0  0  0  0  0
   -5.0527    9.1857  -33.3324 H   0  0  0  0  0  0  0  0  0  0  0  0
   -7.8808    8.8825  -35.4776 H   0  0  0  0  0  0  0  0  0  0  0  0
   -8.8480    7.7095  -34.5323 H   0  0  0  0  0  0  0  0  0  0  0  0
   -8.5748    9.3360  -33.8979 H   0  0  0  0  0  0  0  0  0  0  0  0
   -7.3154   10.2111  -28.2888 H   0  0  0  0  0  0  0  0  0  0  0  0
  1  3  2  0  0  0  0
  1  5  1  0  0  0  0
  2  5  2  0  0  0  0
  2  6  1  0  0  0  0
  3  4  1  0  0  0  0
  3  7  1  0  0  0  0
  4  6  2  0  0  0  0
  4 12  1  0  0  0  0
  5 13  1  0  0  0  0
  6 14  1  0  0  0  0
  7  8  2  3  0  0  0
  8  9  1  0  0  0  0
  9 10  1  0  0  0  0
  9 11  2  0  0  0  0
  1 15  1  0  0  0  0
  2 16  1  0  0  0  0
  7 17  1  0  0  0  0
  8 18  1  0  0  0  0
 10 19  1  0  0  0  0
 10 20  1  0  0  0  0
 10 21  1  0  0  0  0
 12 22  1  0  0  0  0
M  END
> <id>
EN300-1922927

> <smiles>
CC(=O)C=CC=1C=C(Cl)C=C(Br)C1O

> <IUPAC Name>
4-(3-bromo-5-chloro-2-hydroxyphenyl)but-3-en-2-one

> <CAS>
2191442-60-9

> <URL>
https://www.enaminestore.com/catalog/EN300-1922927

> <ROCS_ShapeQuery>
_x1604L0AP1_x0771L0AP1

> <ROCS_TanimotoCombo>
0.985 

> <ROCS_ShapeTanimoto>
0.561 

> <ROCS_ColorTanimoto>
0.424 

> <ROCS_RefTversky>
0.497 

> <ROCS_RefColorTversky>
0.462 

> <ROCS_RefTverskyCombo>
0.959 

> <ROCS_FitTversky>
1.303 

> <ROCS_FitColorTversky>
0.836 

> <ROCS_FitTverskyCombo>
2.139 

> <ROCS_ColorScore>
-4.375

> <ROCS_Overlap>
832.772

> <ROCS_Rank>
169                 

$$$$
untitled-dbase-22_0
  -OEChem-06052310023D

 17 17  0     0  0  0  0  0  0999 V2000
   -4.5887   12.4734  -29.8447 C   0  0  0  0  0  0  0  0  0  0  0  0
   -5.5680   11.7798  -29.1340 C   0  0  0  0  0  0  0  0  0  0  0  0
   -5.0605   11.1357  -31.8005 C   0  0  0  0  0  0  0  0  0  0  0  0
   -4.3349   12.1515  -31.1780 C   0  0  0  0  0  0  0  0  0  0  0  0
   -6.2936   10.7640  -29.7564 C   0  0  0  0  0  0  0  0  0  0  0  0
   -6.0399   10.4420  -31.0897 C   0  0  0  0  0  0  0  0  0  0  0  0
   -2.6757   13.8552  -31.1732 C   0  0  0  0  0  0  0  0  0  0  0  0
   -7.2436   10.1053  -29.0339 O   0  0  0  0  0  0  0  0  0  0  0  0
   -3.3792   12.8289  -31.8712 O   0  0  0  0  0  0  0  0  0  0  0  0
   -7.0061    9.0681  -31.9679 Br  0  0  0  0  0  0  0  0  0  0  0  0
   -4.0269   13.2638  -29.3544 H   0  0  0  0  0  0  0  0  0  0  0  0
   -5.7603   12.0361  -28.0956 H   0  0  0  0  0  0  0  0  0  0  0  0
   -4.8536   10.8939  -32.8404 H   0  0  0  0  0  0  0  0  0  0  0  0
   -1.9431   14.3149  -31.8411 H   0  0  0  0  0  0  0  0  0  0  0  0
   -2.1725   13.4261  -30.3030 H   0  0  0  0  0  0  0  0  0  0  0  0
   -3.3894   14.6132  -30.8419 H   0  0  0  0  0  0  0  0  0  0  0  0
   -7.6704    9.4284  -29.5817 H   0  0  0  0  0  0  0  0  0  0  0  0
  1  2  1  0  0  0  0
  1  4  2  0  0  0  0
  2  5  2  0  0  0  0
  3  4  1  0  0  0  0
  3  6  2  0  0  0  0
  4  9  1  0  0  0  0
  5  6  1  0  0  0  0
  5  8  1  0  0  0  0
  6 10  1  0  0  0  0
  7  9  1  0  0  0  0
  1 11  1  0  0  0  0
  2 12  1  0  0  0  0
  3 13  1  0  0  0  0
  7 14  1  0  0  0  0
  7 15  1  0  0  0  0
  7 16  1  0  0  0  0
  8 17  1  0  0  0  0
M  END
> <id>
EN300-103076

> <smiles>
COC=1C=CC(O)=C(Br)C1

> <MDLNUMBER>
MFCD02113712

> <IUPAC Name>
2-bromo-4-methoxyphenol

> <CAS>
17332-11-5

> <Purity>
95

> <URL>
https://www.enaminestore.com/catalog/EN300-103076

> <MP>
40-45

> <ROCS_ShapeQuery>
_x1604L0AP1_x0771L0AP1

> <ROCS_TanimotoCombo>
0.985 

> <ROCS_ShapeTanimoto>
0.488 

> <ROCS_ColorTanimoto>
0.497 

> <ROCS_RefTversky>
0.424 

> <ROCS_RefColorTversky>
0.515 

> <ROCS_RefTverskyCombo>
0.939 

> <ROCS_FitTversky>
1.455 

> <ROCS_FitColorTversky>
0.932 

> <ROCS_FitTverskyCombo>
2.387 

> <ROCS_ColorScore>
-4.878

> <ROCS_Overlap>
707.015

> <ROCS_Rank>
170                 

$$$$
untitled-dbase-1399_0
  -OEChem-06052310023D

 13 13  0     0  0  0  0  0  0999 V2000
   -5.5620   11.7787  -29.1438 C   0  0  0  0  0  0  0  0  0  0  0  0
   -5.0619   11.1242  -31.8092 C   0  0  0  0  0  0  0  0  0  0  0  0
   -6.2906   10.7617  -29.7608 C   0  0  0  0  0  0  0  0  0  0  0  0
   -4.5835   12.4685  -29.8596 C   0  0  0  0  0  0  0  0  0  0  0  0
   -6.0405   10.4345  -31.0934 C   0  0  0  0  0  0  0  0  0  0  0  0
   -4.3334   12.1412  -31.1923 C   0  0  0  0  0  0  0  0  0  0  0  0
   -7.2398   10.1073  -29.0335 O   0  0  0  0  0  0  0  0  0  0  0  0
   -3.8962   13.4421  -29.2448 F   0  0  0  0  0  0  0  0  0  0  0  0
   -7.0115    9.0584  -31.9633 Br  0  0  0  0  0  0  0  0  0  0  0  0
   -2.8770   13.1609  -32.2731 I   0  0  0  0  0  0  0  0  0  0  0  0
   -5.7511   12.0390  -28.1061 H   0  0  0  0  0  0  0  0  0  0  0  0
   -4.8696   10.8660  -32.8486 H   0  0  0  0  0  0  0  0  0  0  0  0
   -7.6691    9.4290  -29.5777 H   0  0  0  0  0  0  0  0  0  0  0  0
  1  3  2  0  0  0  0
  1  4  1  0  0  0  0
  2  5  2  0  0  0  0
  2  6  1  0  0  0  0
  3  5  1  0  0  0  0
  3  7  1  0  0  0  0
  4  6  2  0  0  0  0
  4  8  1  0  0  0  0
  5  9  1  0  0  0  0
  6 10  1  0  0  0  0
  1 11  1  0  0  0  0
  2 12  1  0  0  0  0
  7 13  1  0  0  0  0
M  END
> <id>
EN300-365739

> <smiles>
OC=1C=C(F)C(I)=CC1Br

> <MDLNUMBER>
MFCD26895909

> <IUPAC Name>
2-bromo-5-fluoro-4-iodophenol

> <CAS>
1564796-94-6

> <Purity>
95

> <URL>
https://www.enaminestore.com/catalog/EN300-365739

> <ROCS_ShapeQuery>
_x1604L0AP1_x0771L0AP1

> <ROCS_TanimotoCombo>
0.985 

> <ROCS_ShapeTanimoto>
0.488 

> <ROCS_ColorTanimoto>
0.497 

> <ROCS_RefTversky>
0.421 

> <ROCS_RefColorTversky>
0.515 

> <ROCS_RefTverskyCombo>
0.936 

> <ROCS_FitTversky>
1.484 

> <ROCS_FitColorTversky>
0.932 

> <ROCS_FitTverskyCombo>
2.416 

> <ROCS_ColorScore>
-4.879

> <ROCS_Overlap>
702.240

> <ROCS_Rank>
171                 

$$$$
untitled-dbase-480_12
  -OEChem-06052310023D

 16 16  0     0  0  0  0  0  0999 V2000
   -4.5792   12.4624  -29.8315 C   0  0  0  0  0  0  0  0  0  0  0  0
   -5.5637   11.7714  -29.1251 C   0  0  0  0  0  0  0  0  0  0  0  0
   -5.0504   11.1301  -31.7912 C   0  0  0  0  0  0  0  0  0  0  0  0
   -4.3226   12.1418  -31.1646 C   0  0  0  0  0  0  0  0  0  0  0  0
   -6.2914   10.7598  -29.7516 C   0  0  0  0  0  0  0  0  0  0  0  0
   -6.0348   10.4391  -31.0847 C   0  0  0  0  0  0  0  0  0  0  0  0
   -3.2698   12.8810  -31.9188 C   0  0  0  0  0  0  0  0  0  0  0  0
   -7.2454   10.1025  -29.0331 O   0  0  0  0  0  0  0  0  0  0  0  0
   -7.0030    9.0694  -31.9673 Br  0  0  0  0  0  0  0  0  0  0  0  0
   -2.8142   14.5158  -30.9678 Br  0  0  0  0  0  0  0  0  0  0  0  0
   -4.0176   13.2489  -29.3343 H   0  0  0  0  0  0  0  0  0  0  0  0
   -5.7580   12.0268  -28.0867 H   0  0  0  0  0  0  0  0  0  0  0  0
   -4.8437   10.8872  -32.8313 H   0  0  0  0  0  0  0  0  0  0  0  0
   -3.6042   13.1734  -32.9207 H   0  0  0  0  0  0  0  0  0  0  0  0
   -2.3462   12.2996  -32.0212 H   0  0  0  0  0  0  0  0  0  0  0  0
   -7.6733    9.4285  -29.5837 H   0  0  0  0  0  0  0  0  0  0  0  0
  1  2  1  0  0  0  0
  1  4  2  0  0  0  0
  2  5  2  0  0  0  0
  3  4  1  0  0  0  0
  3  6  2  0  0  0  0
  4  7  1  0  0  0  0
  5  6  1  0  0  0  0
  5  8  1  0  0  0  0
  6  9  1  0  0  0  0
  7 10  1  0  0  0  0
  1 11  1  0  0  0  0
  2 12  1  0  0  0  0
  3 13  1  0  0  0  0
  7 14  1  0  0  0  0
  7 15  1  0  0  0  0
  8 16  1  0  0  0  0
M  END
> <id>
EN300-1912153

> <smiles>
OC=1C=CC(CBr)=CC1Br

> <MDLNUMBER>
MFCD18390265

> <IUPAC Name>
2-bromo-4-(bromomethyl)phenol

> <CAS>
52703-21-6

> <URL>
https://www.enaminestore.com/catalog/EN300-1912153

> <ROCS_ShapeQuery>
_x1604L0AP1_x0771L0AP1

> <ROCS_TanimotoCombo>
0.984 

> <ROCS_ShapeTanimoto>
0.488 

> <ROCS_ColorTanimoto>
0.497 

> <ROCS_RefTversky>
0.420 

> <ROCS_RefColorTversky>
0.515 

> <ROCS_RefTverskyCombo>
0.936 

> <ROCS_FitTversky>
1.492 

> <ROCS_FitColorTversky>
0.932 

> <ROCS_FitTverskyCombo>
2.424 

> <ROCS_ColorScore>
-4.878

> <ROCS_Overlap>
700.914

> <ROCS_Rank>
172                 

$$$$
untitled-dbase-412_7
  -OEChem-06052310023D

 23 23  0     0  0  0  0  0  0999 V2000
   -6.9444   10.0346  -33.3387 C   0  0  0  0  0  0  0  0  0  0  0  0
   -4.2647   12.2739  -31.0517 C   0  0  0  0  0  0  0  0  0  0  0  0
   -5.0200   11.3434  -31.7654 C   0  0  0  0  0  0  0  0  0  0  0  0
   -4.5029   12.4691  -29.6912 C   0  0  0  0  0  0  0  0  0  0  0  0
   -6.0134   10.6082  -31.1188 C   0  0  0  0  0  0  0  0  0  0  0  0
   -6.2517   10.8035  -29.7583 C   0  0  0  0  0  0  0  0  0  0  0  0
   -5.4964   11.7339  -29.0445 C   0  0  0  0  0  0  0  0  0  0  0  0
   -8.2727    9.3830  -31.3997 C   0  0  0  0  0  0  0  0  0  0  0  0
   -6.1297    8.2159  -31.8838 C   0  0  0  0  0  0  0  0  0  0  0  0
   -6.8111    9.6181  -31.9021 C   0  0  0  0  0  0  0  0  0  0  0  0
   -7.0325   10.3801  -34.4433 N   0  0  0  0  0  0  0  0  0  0  0  0
   -7.2282   10.0778  -29.1401 O   0  0  0  0  0  0  0  0  0  0  0  0
   -5.7887   12.0277  -27.1946 Br  0  0  0  0  0  0  0  0  0  0  0  0
   -3.4908   12.8460  -31.5550 H   0  0  0  0  0  0  0  0  0  0  0  0
   -4.8261   11.1959  -32.8245 H   0  0  0  0  0  0  0  0  0  0  0  0
   -3.9039   13.1983  -29.1515 H   0  0  0  0  0  0  0  0  0  0  0  0
   -8.2810    9.0717  -30.3478 H   0  0  0  0  0  0  0  0  0  0  0  0
   -8.7702    8.6045  -31.9899 H   0  0  0  0  0  0  0  0  0  0  0  0
   -8.8930   10.2859  -31.4665 H   0  0  0  0  0  0  0  0  0  0  0  0
   -5.9980    7.8438  -30.8609 H   0  0  0  0  0  0  0  0  0  0  0  0
   -6.7444    7.4858  -32.4237 H   0  0  0  0  0  0  0  0  0  0  0  0
   -5.1346    8.2216  -32.3456 H   0  0  0  0  0  0  0  0  0  0  0  0
   -7.2788   10.3188  -28.2027 H   0  0  0  0  0  0  0  0  0  0  0  0
  1 10  1  0  0  0  0
  1 11  3  0  0  0  0
  2  3  1  0  0  0  0
  2  4  2  0  0  0  0
  3  5  2  0  0  0  0
  4  7  1  0  0  0  0
  5  6  1  0  0  0  0
  5 10  1  0  0  0  0
  6  7  2  0  0  0  0
  6 12  1  0  0  0  0
  7 13  1  0  0  0  0
  8 10  1  0  0  0  0
  9 10  1  0  0  0  0
  2 14  1  0  0  0  0
  3 15  1  0  0  0  0
  4 16  1  0  0  0  0
  8 17  1  0  0  0  0
  8 18  1  0  0  0  0
  8 19  1  0  0  0  0
  9 20  1  0  0  0  0
  9 21  1  0  0  0  0
  9 22  1  0  0  0  0
 12 23  1  0  0  0  0
M  END
> <id>
EN300-1913683

> <smiles>
CC(C)(C#N)C=1C=CC=C(Br)C1O

> <MDLNUMBER>
MFCD19694918

> <IUPAC Name>
2-(3-bromo-2-hydroxyphenyl)-2-methylpropanenitrile

> <CAS>
1314648-76-4

> <URL>
https://www.enaminestore.com/catalog/EN300-1913683

> <ROCS_ShapeQuery>
_x1604L0AP1_x0771L0AP1

> <ROCS_TanimotoCombo>
0.984 

> <ROCS_ShapeTanimoto>
0.540 

> <ROCS_ColorTanimoto>
0.444 

> <ROCS_RefTversky>
0.478 

> <ROCS_RefColorTversky>
0.508 

> <ROCS_RefTverskyCombo>
0.986 

> <ROCS_FitTversky>
1.316 

> <ROCS_FitColorTversky>
0.781 

> <ROCS_FitTverskyCombo>
2.097 

> <ROCS_ColorScore>
-4.831

> <ROCS_Overlap>
800.699

> <ROCS_Rank>
173                 

$$$$
untitled-dbase-100_0
  -OEChem-06052310023D

 13 13  0     0  0  0  0  0  0999 V2000
   -4.5996   12.4851  -29.8553 C   0  0  0  0  0  0  0  0  0  0  0  0
   -5.5720   11.7862  -29.1402 C   0  0  0  0  0  0  0  0  0  0  0  0
   -4.3506   12.1651  -31.1900 C   0  0  0  0  0  0  0  0  0  0  0  0
   -6.2955   10.7671  -29.7597 C   0  0  0  0  0  0  0  0  0  0  0  0
   -5.0740   11.1461  -31.8095 C   0  0  0  0  0  0  0  0  0  0  0  0
   -6.0465   10.4470  -31.0944 C   0  0  0  0  0  0  0  0  0  0  0  0
   -7.2385   10.1035  -29.0324 O   0  0  0  0  0  0  0  0  0  0  0  0
   -4.8200   10.8540  -33.0933 F   0  0  0  0  0  0  0  0  0  0  0  0
   -7.0143    9.0644  -31.9593 Br  0  0  0  0  0  0  0  0  0  0  0  0
   -4.0356   13.2783  -29.3733 H   0  0  0  0  0  0  0  0  0  0  0  0
   -5.7606   12.0407  -28.1007 H   0  0  0  0  0  0  0  0  0  0  0  0
   -3.5936   12.7094  -31.7468 H   0  0  0  0  0  0  0  0  0  0  0  0
   -7.6648    9.4247  -29.5782 H   0  0  0  0  0  0  0  0  0  0  0  0
  1  2  1  0  0  0  0
  1  3  2  0  0  0  0
  2  4  2  0  0  0  0
  3  5  1  0  0  0  0
  4  6  1  0  0  0  0
  4  7  1  0  0  0  0
  5  6  2  0  0  0  0
  5  8  1  0  0  0  0
  6  9  1  0  0  0  0
  1 10  1  0  0  0  0
  2 11  1  0  0  0  0
  3 12  1  0  0  0  0
  7 13  1  0  0  0  0
M  END
> <id>
EN300-121461

> <smiles>
OC=1C=CC=C(F)C1Br

> <MDLNUMBER>
MFCD04037220

> <IUPAC Name>
2-bromo-3-fluorophenol

> <CAS>
443-81-2

> <Purity>
95

> <URL>
https://www.enaminestore.com/catalog/EN300-121461

> <ROCS_ShapeQuery>
_x1604L0AP1_x0771L0AP1

> <ROCS_TanimotoCombo>
0.984 

> <ROCS_ShapeTanimoto>
0.431 

> <ROCS_ColorTanimoto>
0.553 

> <ROCS_RefTversky>
0.382 

> <ROCS_RefColorTversky>
0.518 

> <ROCS_RefTverskyCombo>
0.900 

> <ROCS_FitTversky>
1.425 

> <ROCS_FitColorTversky>
1.139 

> <ROCS_FitTverskyCombo>
2.564 

> <ROCS_ColorScore>
-4.879

> <ROCS_Overlap>
636.565

> <ROCS_Rank>
174                 

$$$$
untitled-dbase-1597_181
  -OEChem-06052310023D

 25 25  0     0  0  0  0  0  0999 V2000
   -4.9391   11.7237  -31.5872 C   0  0  0  0  0  0  0  0  0  0  0  0
   -4.4297   12.4780  -29.3492 C   0  0  0  0  0  0  0  0  0  0  0  0
   -5.9503   10.9067  -31.0817 C   0  0  0  0  0  0  0  0  0  0  0  0
   -6.2013   10.8754  -29.7100 C   0  0  0  0  0  0  0  0  0  0  0  0
   -4.1787   12.5093  -30.7210 C   0  0  0  0  0  0  0  0  0  0  0  0
   -5.4410   11.6611  -28.8437 C   0  0  0  0  0  0  0  0  0  0  0  0
   -7.2570    8.9083  -31.6256 C   0  0  0  0  0  0  0  0  0  0  0  0
   -6.7413   10.0832  -32.0263 C   0  0  0  0  0  0  0  0  0  0  0  0
   -6.9118   10.5662  -33.4508 C   0  0  0  0  0  0  0  0  0  0  0  0
   -6.2725    9.6142  -34.4660 C   0  0  0  0  0  0  0  0  0  0  0  0
   -6.4776   10.1108  -35.8226 N   0  0  0  0  0  0  0  0  0  0  0  0
   -7.1928   10.0734  -29.2206 O   0  0  0  0  0  0  0  0  0  0  0  0
   -2.9309   13.5173  -31.3448 Cl  0  0  0  0  0  0  0  0  0  0  0  0
   -5.7508   11.6470  -26.9730 Br  0  0  0  0  0  0  0  0  0  0  0  0
   -4.7412   11.7505  -32.6571 H   0  0  0  0  0  0  0  0  0  0  0  0
   -3.8340   13.0923  -28.6769 H   0  0  0  0  0  0  0  0  0  0  0  0
   -7.8419    8.2748  -32.2849 H   0  0  0  0  0  0  0  0  0  0  0  0
   -7.1123    8.5498  -30.6113 H   0  0  0  0  0  0  0  0  0  0  0  0
   -7.9747   10.7090  -33.6803 H   0  0  0  0  0  0  0  0  0  0  0  0
   -6.4557   11.5601  -33.5611 H   0  0  0  0  0  0  0  0  0  0  0  0
   -5.1974    9.5188  -34.2749 H   0  0  0  0  0  0  0  0  0  0  0  0
   -6.7127    8.6141  -34.3902 H   0  0  0  0  0  0  0  0  0  0  0  0
   -6.0358   10.9966  -35.9006 H   0  0  0  0  0  0  0  0  0  0  0  0
   -6.0738    9.4616  -36.4562 H   0  0  0  0  0  0  0  0  0  0  0  0
   -7.2445   10.1607  -28.2571 H   0  0  0  0  0  0  0  0  0  0  0  0
  1  3  2  0  0  0  0
  1  5  1  0  0  0  0
  2  5  2  0  0  0  0
  2  6  1  0  0  0  0
  3  4  1  0  0  0  0
  3  8  1  0  0  0  0
  4  6  2  0  0  0  0
  4 12  1  0  0  0  0
  5 13  1  0  0  0  0
  6 14  1  0  0  0  0
  7  8  2  0  0  0  0
  8  9  1  0  0  0  0
  9 10  1  0  0  0  0
 10 11  1  0  0  0  0
  1 15  1  0  0  0  0
  2 16  1  0  0  0  0
  7 17  1  0  0  0  0
  7 18  1  0  0  0  0
  9 19  1  0  0  0  0
  9 20  1  0  0  0  0
 10 21  1  0  0  0  0
 10 22  1  0  0  0  0
 11 23  1  0  0  0  0
 11 24  1  0  0  0  0
 12 25  1  0  0  0  0
M  END
> <id>
EN300-1922942

> <smiles>
NCCC(=C)C=1C=C(Cl)C=C(Br)C1O

> <IUPAC Name>
2-(4-aminobut-1-en-2-yl)-6-bromo-4-chlorophenol

> <CAS>
2228578-23-0

> <URL>
https://www.enaminestore.com/catalog/EN300-1922942

> <ROCS_ShapeQuery>
_x1604L0AP1_x0771L0AP1

> <ROCS_TanimotoCombo>
0.984 

> <ROCS_ShapeTanimoto>
0.607 

> <ROCS_ColorTanimoto>
0.377 

> <ROCS_RefTversky>
0.521 

> <ROCS_RefColorTversky>
0.478 

> <ROCS_RefTverskyCombo>
0.998 

> <ROCS_FitTversky>
1.379 

> <ROCS_FitColorTversky>
0.640 

> <ROCS_FitTverskyCombo>
2.019 

> <ROCS_ColorScore>
-4.569

> <ROCS_Overlap>
872.888

> <ROCS_Rank>
175                 

$$$$
untitled-dbase-554_181
  -OEChem-06052310023D

 27 27  0     0  0  0  0  0  0999 V2000
   -4.5541   12.4423  -29.8279 C   0  0  0  0  0  0  0  0  0  0  0  0
   -5.0374   11.1134  -31.7868 C   0  0  0  0  0  0  0  0  0  0  0  0
   -4.3001   12.1184  -31.1606 C   0  0  0  0  0  0  0  0  0  0  0  0
   -5.5452   11.7612  -29.1213 C   0  0  0  0  0  0  0  0  0  0  0  0
   -6.2825   10.7562  -29.7474 C   0  0  0  0  0  0  0  0  0  0  0  0
   -6.0286   10.4323  -31.0802 C   0  0  0  0  0  0  0  0  0  0  0  0
   -5.0380   11.3845  -26.8285 C   0  0  0  0  0  0  0  0  0  0  0  0
   -3.2410   12.8476  -31.9160 C   0  0  0  0  0  0  0  0  0  0  0  0
   -3.0189   14.3023  -31.4584 C   0  0  0  0  0  0  0  0  0  0  0  0
   -4.2835   15.1517  -31.5814 C   0  0  0  0  0  0  0  0  0  0  0  0
   -7.2485   10.1020  -29.0398 O   0  0  0  0  0  0  0  0  0  0  0  0
   -5.7820   12.0893  -27.8203 O   0  0  0  0  0  0  0  0  0  0  0  0
   -3.9697   16.8510  -31.0205 S   0  0  0  0  0  0  0  0  0  0  0  0
   -7.0098    9.0727  -31.9649 Br  0  0  0  0  0  0  0  0  0  0  0  0
   -3.9809   13.2257  -29.3377 H   0  0  0  0  0  0  0  0  0  0  0  0
   -4.8323   10.8683  -32.8266 H   0  0  0  0  0  0  0  0  0  0  0  0
   -5.3225   11.7422  -25.8359 H   0  0  0  0  0  0  0  0  0  0  0  0
   -3.9691   11.5434  -26.9922 H   0  0  0  0  0  0  0  0  0  0  0  0
   -5.2620   10.3181  -26.9071 H   0  0  0  0  0  0  0  0  0  0  0  0
   -3.4534   12.8427  -32.9987 H   0  0  0  0  0  0  0  0  0  0  0  0
   -2.2874   12.3028  -31.8120 H   0  0  0  0  0  0  0  0  0  0  0  0
   -2.2242   14.7384  -32.0777 H   0  0  0  0  0  0  0  0  0  0  0  0
   -2.6574   14.3116  -30.4222 H   0  0  0  0  0  0  0  0  0  0  0  0
   -5.0932   14.7422  -30.9705 H   0  0  0  0  0  0  0  0  0  0  0  0
   -4.6250   15.1883  -32.6209 H   0  0  0  0  0  0  0  0  0  0  0  0
   -7.2926   10.4500  -28.1362 H   0  0  0  0  0  0  0  0  0  0  0  0
   -3.6176   16.5234  -29.7701 H   0  0  0  0  0  0  0  0  0  0  0  0
  1  3  1  0  0  0  0
  1  4  2  0  0  0  0
  2  3  2  0  0  0  0
  2  6  1  0  0  0  0
  3  8  1  0  0  0  0
  4  5  1  0  0  0  0
  4 12  1  0  0  0  0
  5  6  2  0  0  0  0
  5 11  1  0  0  0  0
  6 14  1  0  0  0  0
  7 12  1  0  0  0  0
  8  9  1  0  0  0  0
  9 10  1  0  0  0  0
 10 13  1  0  0  0  0
  1 15  1  0  0  0  0
  2 16  1  0  0  0  0
  7 17  1  0  0  0  0
  7 18  1  0  0  0  0
  7 19  1  0  0  0  0
  8 20  1  0  0  0  0
  8 21  1  0  0  0  0
  9 22  1  0  0  0  0
  9 23  1  0  0  0  0
 10 24  1  0  0  0  0
 10 25  1  0  0  0  0
 11 26  1  0  0  0  0
 13 27  1  0  0  0  0
M  END
> <id>
EN300-1925670

> <smiles>
COC=1C=C(CCCS)C=C(Br)C1O

> <IUPAC Name>
2-bromo-6-methoxy-4-(3-sulfanylpropyl)phenol

> <CAS>
2228168-63-4

> <URL>
https://www.enaminestore.com/catalog/EN300-1925670

> <ROCS_ShapeQuery>
_x1604L0AP1_x0771L0AP1

> <ROCS_TanimotoCombo>
0.984 

> <ROCS_ShapeTanimoto>
0.487 

> <ROCS_ColorTanimoto>
0.497 

> <ROCS_RefTversky>
0.450 

> <ROCS_RefColorTversky>
0.516 

> <ROCS_RefTverskyCombo>
0.966 

> <ROCS_FitTversky>
1.200 

> <ROCS_FitColorTversky>
0.932 

> <ROCS_FitTverskyCombo>
2.132 

> <ROCS_ColorScore>
-4.880

> <ROCS_Overlap>
755.149

> <ROCS_Rank>
176                 

$$$$
untitled-dbase-2190_280
  -OEChem-06052310023D

 25 25  0     0  0  0  0  0  0999 V2000
   -4.5562   12.4420  -29.8336 C   0  0  0  0  0  0  0  0  0  0  0  0
   -5.0451   11.1134  -31.7912 C   0  0  0  0  0  0  0  0  0  0  0  0
   -4.3061   12.1184  -31.1671 C   0  0  0  0  0  0  0  0  0  0  0  0
   -5.5452   11.7606  -29.1241 C   0  0  0  0  0  0  0  0  0  0  0  0
   -6.2842   10.7556  -29.7483 C   0  0  0  0  0  0  0  0  0  0  0  0
   -6.0341   10.4320  -31.0818 C   0  0  0  0  0  0  0  0  0  0  0  0
   -3.4989   14.9594  -30.5407 C   0  0  0  0  0  0  0  0  0  0  0  0
   -4.9774   13.1274  -27.2626 C   0  0  0  0  0  0  0  0  0  0  0  0
   -3.2493   12.8478  -31.9254 C   0  0  0  0  0  0  0  0  0  0  0  0
   -2.5516   13.9104  -31.0711 C   0  0  0  0  0  0  0  0  0  0  0  0
   -4.5041   15.3525  -31.1227 O   0  0  0  0  0  0  0  0  0  0  0  0
   -7.2480   10.1012  -29.0380 O   0  0  0  0  0  0  0  0  0  0  0  0
   -5.7782   12.0885  -27.8225 O   0  0  0  0  0  0  0  0  0  0  0  0
   -7.0177    9.0724  -31.9639 Br  0  0  0  0  0  0  0  0  0  0  0  0
   -3.9817   13.2253  -29.3449 H   0  0  0  0  0  0  0  0  0  0  0  0
   -4.8430   10.8684  -32.8317 H   0  0  0  0  0  0  0  0  0  0  0  0
   -3.2272   15.3742  -29.5547 H   0  0  0  0  0  0  0  0  0  0  0  0
   -5.2651   13.2890  -26.2208 H   0  0  0  0  0  0  0  0  0  0  0  0
   -5.1176   14.0465  -27.8372 H   0  0  0  0  0  0  0  0  0  0  0  0
   -3.9272   12.8294  -27.3061 H   0  0  0  0  0  0  0  0  0  0  0  0
   -2.5008   12.1379  -32.3161 H   0  0  0  0  0  0  0  0  0  0  0  0
   -3.6817   13.3210  -32.8230 H   0  0  0  0  0  0  0  0  0  0  0  0
   -1.7822   14.4275  -31.6556 H   0  0  0  0  0  0  0  0  0  0  0  0
   -2.0596   13.4461  -30.2088 H   0  0  0  0  0  0  0  0  0  0  0  0
   -7.2895   10.4491  -28.1342 H   0  0  0  0  0  0  0  0  0  0  0  0
  1  3  1  0  0  0  0
  1  4  2  0  0  0  0
  2  3  2  0  0  0  0
  2  6  1  0  0  0  0
  3  9  1  0  0  0  0
  4  5  1  0  0  0  0
  4 13  1  0  0  0  0
  5  6  2  0  0  0  0
  5 12  1  0  0  0  0
  6 14  1  0  0  0  0
  7 10  1  0  0  0  0
  7 11  2  0  0  0  0
  8 13  1  0  0  0  0
  9 10  1  0  0  0  0
  1 15  1  0  0  0  0
  2 16  1  0  0  0  0
  7 17  1  0  0  0  0
  8 18  1  0  0  0  0
  8 19  1  0  0  0  0
  8 20  1  0  0  0  0
  9 21  1  0  0  0  0
  9 22  1  0  0  0  0
 10 23  1  0  0  0  0
 10 24  1  0  0  0  0
 12 25  1  0  0  0  0
M  END
> <id>
EN300-1925697

> <smiles>
COC=1C=C(CCC=O)C=C(Br)C1O

> <IUPAC Name>
3-(3-bromo-4-hydroxy-5-methoxyphenyl)propanal

> <CAS>
1781650-71-2

> <URL>
https://www.enaminestore.com/catalog/EN300-1925697

> <ROCS_ShapeQuery>
_x1604L0AP1_x0771L0AP1

> <ROCS_TanimotoCombo>
0.984 

> <ROCS_ShapeTanimoto>
0.533 

> <ROCS_ColorTanimoto>
0.451 

> <ROCS_RefTversky>
0.481 

> <ROCS_RefColorTversky>
0.513 

> <ROCS_RefTverskyCombo>
0.994 

> <ROCS_FitTversky>
1.253 

> <ROCS_FitColorTversky>
0.789 

> <ROCS_FitTverskyCombo>
2.042 

> <ROCS_ColorScore>
-4.881

> <ROCS_Overlap>
806.857

> <ROCS_Rank>
177                 

$$$$
untitled-dbase-51_0
  -OEChem-06052310023D

 13 13  0     0  0  0  0  0  0999 V2000
   -4.5894   12.4986  -29.8440 C   0  0  0  0  0  0  0  0  0  0  0  0
   -4.3349   12.1827  -31.1785 C   0  0  0  0  0  0  0  0  0  0  0  0
   -6.2833   10.7779  -29.7597 C   0  0  0  0  0  0  0  0  0  0  0  0
   -5.5636   11.7962  -29.1346 C   0  0  0  0  0  0  0  0  0  0  0  0
   -5.0545   11.1644  -31.8037 C   0  0  0  0  0  0  0  0  0  0  0  0
   -6.0288   10.4620  -31.0943 C   0  0  0  0  0  0  0  0  0  0  0  0
   -7.2343   10.0972  -29.0540 O   0  0  0  0  0  0  0  0  0  0  0  0
   -5.8528   12.2125  -27.4849 Cl  0  0  0  0  0  0  0  0  0  0  0  0
   -4.6792   10.8333  -33.4597 Cl  0  0  0  0  0  0  0  0  0  0  0  0
   -7.0335    9.0624  -31.9152 Br  0  0  0  0  0  0  0  0  0  0  0  0
   -4.0190   13.2936  -29.3703 H   0  0  0  0  0  0  0  0  0  0  0  0
   -3.5707   12.7399  -31.7148 H   0  0  0  0  0  0  0  0  0  0  0  0
   -7.2834   10.4390  -28.1488 H   0  0  0  0  0  0  0  0  0  0  0  0
  1  2  2  0  0  0  0
  1  4  1  0  0  0  0
  2  5  1  0  0  0  0
  3  4  2  0  0  0  0
  3  6  1  0  0  0  0
  3  7  1  0  0  0  0
  4  8  1  0  0  0  0
  5  6  2  0  0  0  0
  5  9  1  0  0  0  0
  6 10  1  0  0  0  0
  1 11  1  0  0  0  0
  2 12  1  0  0  0  0
  7 13  1  0  0  0  0
M  END
> <id>
EN300-198648

> <smiles>
OC=1C(Cl)=CC=C(Cl)C1Br

> <MDLNUMBER>
MFCD00152293

> <IUPAC Name>
2-bromo-3,6-dichlorophenol

> <CAS>
63862-91-9

> <Purity>
95

> <URL>
https://www.enaminestore.com/catalog/EN300-198648

> <ROCS_ShapeQuery>
_x1604L0AP1_x0771L0AP1

> <ROCS_TanimotoCombo>
0.984 

> <ROCS_ShapeTanimoto>
0.429 

> <ROCS_ColorTanimoto>
0.554 

> <ROCS_RefTversky>
0.385 

> <ROCS_RefColorTversky>
0.519 

> <ROCS_RefTverskyCombo>
0.904 

> <ROCS_FitTversky>
1.367 

> <ROCS_FitColorTversky>
1.140 

> <ROCS_FitTverskyCombo>
2.508 

> <ROCS_ColorScore>
-4.886

> <ROCS_Overlap>
642.236

> <ROCS_Rank>
178                 

$$$$
untitled-dbase-918_8
  -OEChem-06052310023D

 27 27  0     0  0  0  0  0  0999 V2000
   -4.9400   11.2868  -31.7347 C   0  0  0  0  0  0  0  0  0  0  0  0
   -4.5733   12.5397  -29.7017 C   0  0  0  0  0  0  0  0  0  0  0  0
   -5.9352   10.5453  -31.0982 C   0  0  0  0  0  0  0  0  0  0  0  0
   -6.2496   10.8010  -29.7635 C   0  0  0  0  0  0  0  0  0  0  0  0
   -4.2590   12.2841  -31.0364 C   0  0  0  0  0  0  0  0  0  0  0  0
   -5.5686   11.7982  -29.0652 C   0  0  0  0  0  0  0  0  0  0  0  0
   -6.4674    8.0836  -31.2115 C   0  0  0  0  0  0  0  0  0  0  0  0
   -8.1773    9.7690  -31.9512 C   0  0  0  0  0  0  0  0  0  0  0  0
   -6.7632   10.3844  -34.0954 C   0  0  0  0  0  0  0  0  0  0  0  0
   -6.6716    9.4531  -31.8853 C   0  0  0  0  0  0  0  0  0  0  0  0
   -6.1864    9.3439  -33.2556 N   0  0  0  0  0  0  0  0  0  0  0  0
   -7.2258   10.0668  -29.1547 O   0  0  0  0  0  0  0  0  0  0  0  0
   -3.0307   13.1987  -31.8223 Cl  0  0  0  0  0  0  0  0  0  0  0  0
   -5.9673   12.1750  -27.2503 Br  0  0  0  0  0  0  0  0  0  0  0  0
   -4.6981   11.0846  -32.7760 H   0  0  0  0  0  0  0  0  0  0  0  0
   -4.0396   13.3180  -29.1606 H   0  0  0  0  0  0  0  0  0  0  0  0
   -6.9887    7.2921  -31.7635 H   0  0  0  0  0  0  0  0  0  0  0  0
   -5.4049    7.8124  -31.1817 H   0  0  0  0  0  0  0  0  0  0  0  0
   -6.8424    8.0660  -30.1824 H   0  0  0  0  0  0  0  0  0  0  0  0
   -8.7171    8.9959  -32.5115 H   0  0  0  0  0  0  0  0  0  0  0  0
   -8.3588   10.7240  -32.4596 H   0  0  0  0  0  0  0  0  0  0  0  0
   -8.6336    9.8315  -30.9573 H   0  0  0  0  0  0  0  0  0  0  0  0
   -6.4900   11.3722  -33.6959 H   0  0  0  0  0  0  0  0  0  0  0  0
   -6.3770   10.2840  -35.1205 H   0  0  0  0  0  0  0  0  0  0  0  0
   -7.8585   10.2828  -34.1046 H   0  0  0  0  0  0  0  0  0  0  0  0
   -6.4417    8.4305  -33.6288 H   0  0  0  0  0  0  0  0  0  0  0  0
   -7.3335   10.3540  -28.2353 H   0  0  0  0  0  0  0  0  0  0  0  0
  1  3  2  0  0  0  0
  1  5  1  0  0  0  0
  2  5  2  0  0  0  0
  2  6  1  0  0  0  0
  3  4  1  0  0  0  0
  3 10  1  0  0  0  0
  4  6  2  0  0  0  0
  4 12  1  0  0  0  0
  5 13  1  0  0  0  0
  6 14  1  0  0  0  0
  7 10  1  0  0  0  0
  8 10  1  0  0  0  0
  9 11  1  0  0  0  0
 10 11  1  0  0  0  0
  1 15  1  0  0  0  0
  2 16  1  0  0  0  0
  7 17  1  0  0  0  0
  7 18  1  0  0  0  0
  7 19  1  0  0  0  0
  8 20  1  0  0  0  0
  8 21  1  0  0  0  0
  8 22  1  0  0  0  0
  9 23  1  0  0  0  0
  9 24  1  0  0  0  0
  9 25  1  0  0  0  0
 11 26  1  0  0  0  0
 12 27  1  0  0  0  0
M  END
> <id>
EN300-1922939

> <smiles>
CNC(C)(C)C=1C=C(Cl)C=C(Br)C1O

> <IUPAC Name>
2-bromo-4-chloro-6-[2-(methylamino)propan-2-yl]phenol

> <CAS>
2228379-79-9

> <URL>
https://www.enaminestore.com/catalog/EN300-1922939

> <ROCS_ShapeQuery>
_x1604L0AP1_x0771L0AP1

> <ROCS_TanimotoCombo>
0.984 

> <ROCS_ShapeTanimoto>
0.580 

> <ROCS_ColorTanimoto>
0.403 

> <ROCS_RefTversky>
0.508 

> <ROCS_RefColorTversky>
0.502 

> <ROCS_RefTverskyCombo>
1.009 

> <ROCS_FitTversky>
1.328 

> <ROCS_FitColorTversky>
0.673 

> <ROCS_FitTverskyCombo>
2.000 

> <ROCS_ColorScore>
-4.799

> <ROCS_Overlap>
851.536

> <ROCS_Rank>
179                 

$$$$
untitled-dbase-544_5
  -OEChem-06052310023D

 24 24  0     0  0  0  0  0  0999 V2000
   -7.0347   10.4020  -34.4803 C   0  0  0  0  0  0  0  0  0  0  0  0
   -6.9424   10.0425  -33.3380 C   0  0  0  0  0  0  0  0  0  0  0  0
   -4.2657   12.2809  -31.0452 C   0  0  0  0  0  0  0  0  0  0  0  0
   -5.0196   11.3508  -31.7608 C   0  0  0  0  0  0  0  0  0  0  0  0
   -4.5045   12.4735  -29.6844 C   0  0  0  0  0  0  0  0  0  0  0  0
   -6.0125   10.6134  -31.1158 C   0  0  0  0  0  0  0  0  0  0  0  0
   -6.2514   10.8061  -29.7550 C   0  0  0  0  0  0  0  0  0  0  0  0
   -5.4974   11.7361  -29.0394 C   0  0  0  0  0  0  0  0  0  0  0  0
   -6.1272    8.2210  -31.8840 C   0  0  0  0  0  0  0  0  0  0  0  0
   -8.2703    9.3856  -31.3981 C   0  0  0  0  0  0  0  0  0  0  0  0
   -6.8317    9.5952  -31.9238 C   0  0  0  0  0  0  0  0  0  0  0  0
   -7.2274   10.0782  -29.1384 O   0  0  0  0  0  0  0  0  0  0  0  0
   -5.7907   12.0263  -27.1891 Br  0  0  0  0  0  0  0  0  0  0  0  0
   -7.1164   10.7208  -35.4930 H   0  0  0  0  0  0  0  0  0  0  0  0
   -3.4922   12.8548  -31.5472 H   0  0  0  0  0  0  0  0  0  0  0  0
   -4.8253   11.2054  -32.8201 H   0  0  0  0  0  0  0  0  0  0  0  0
   -3.9065   13.2024  -29.1433 H   0  0  0  0  0  0  0  0  0  0  0  0
   -6.0166    7.8384  -30.8627 H   0  0  0  0  0  0  0  0  0  0  0  0
   -5.1169    8.2792  -32.3076 H   0  0  0  0  0  0  0  0  0  0  0  0
   -6.6872    7.4728  -32.4576 H   0  0  0  0  0  0  0  0  0  0  0  0
   -8.2666    9.0525  -30.3523 H   0  0  0  0  0  0  0  0  0  0  0  0
   -8.8556   10.3116  -31.4406 H   0  0  0  0  0  0  0  0  0  0  0  0
   -8.8039    8.6175  -31.9716 H   0  0  0  0  0  0  0  0  0  0  0  0
   -7.2786   10.3175  -28.2006 H   0  0  0  0  0  0  0  0  0  0  0  0
  1  2  3  0  0  0  0
  2 11  1  0  0  0  0
  3  4  1  0  0  0  0
  3  5  2  0  0  0  0
  4  6  2  0  0  0  0
  5  8  1  0  0  0  0
  6  7  1  0  0  0  0
  6 11  1  0  0  0  0
  7  8  2  0  0  0  0
  7 12  1  0  0  0  0
  8 13  1  0  0  0  0
  9 11  1  0  0  0  0
 10 11  1  0  0  0  0
  1 14  1  0  0  0  0
  3 15  1  0  0  0  0
  4 16  1  0  0  0  0
  5 17  1  0  0  0  0
  9 18  1  0  0  0  0
  9 19  1  0  0  0  0
  9 20  1  0  0  0  0
 10 21  1  0  0  0  0
 10 22  1  0  0  0  0
 10 23  1  0  0  0  0
 12 24  1  0  0  0  0
M  END
> <id>
EN300-1923436

> <smiles>
CC(C)(C#C)C=1C=CC=C(Br)C1O

> <IUPAC Name>
2-bromo-6-(2-methylbut-3-yn-2-yl)phenol

> <CAS>
2229474-98-8

> <URL>
https://www.enaminestore.com/catalog/EN300-1923436

> <ROCS_ShapeQuery>
_x1604L0AP1_x0771L0AP1

> <ROCS_TanimotoCombo>
0.984 

> <ROCS_ShapeTanimoto>
0.539 

> <ROCS_ColorTanimoto>
0.445 

> <ROCS_RefTversky>
0.477 

> <ROCS_RefColorTversky>
0.508 

> <ROCS_RefTverskyCombo>
0.985 

> <ROCS_FitTversky>
1.317 

> <ROCS_FitColorTversky>
0.781 

> <ROCS_FitTverskyCombo>
2.098 

> <ROCS_ColorScore>
-4.833

> <ROCS_Overlap>
799.333

> <ROCS_Rank>
180                 

$$$$
untitled-dbase-214_18
  -OEChem-06052310023D

 17 17  0     0  0  0  0  0  0999 V2000
   -5.0720   11.1370  -31.8058 C   0  0  0  0  0  0  0  0  0  0  0  0
   -4.5908   12.4912  -29.8639 C   0  0  0  0  0  0  0  0  0  0  0  0
   -4.3453   12.1597  -31.1963 C   0  0  0  0  0  0  0  0  0  0  0  0
   -6.2898   10.7773  -29.7504 C   0  0  0  0  0  0  0  0  0  0  0  0
   -6.0443   10.4458  -31.0829 C   0  0  0  0  0  0  0  0  0  0  0  0
   -5.5630   11.8001  -29.1409 C   0  0  0  0  0  0  0  0  0  0  0  0
   -3.3059   12.8990  -31.9695 C   0  0  0  0  0  0  0  0  0  0  0  0
   -7.2405   10.1000  -29.0421 O   0  0  0  0  0  0  0  0  0  0  0  0
   -2.2242   13.8992  -30.9031 S   0  0  0  0  0  0  0  0  0  0  0  0
   -7.0091    9.0622  -31.9493 Br  0  0  0  0  0  0  0  0  0  0  0  0
   -5.8662   12.2824  -27.3323 Br  0  0  0  0  0  0  0  0  0  0  0  0
   -4.8738   10.8867  -32.8453 H   0  0  0  0  0  0  0  0  0  0  0  0
   -4.0188   13.2901  -29.3970 H   0  0  0  0  0  0  0  0  0  0  0  0
   -2.6771   12.2035  -32.5447 H   0  0  0  0  0  0  0  0  0  0  0  0
   -3.7726   13.5666  -32.7087 H   0  0  0  0  0  0  0  0  0  0  0  0
   -7.2906   10.4460  -28.1384 H   0  0  0  0  0  0  0  0  0  0  0  0
   -1.7609   12.8744  -30.1755 H   0  0  0  0  0  0  0  0  0  0  0  0
  1  3  2  0  0  0  0
  1  5  1  0  0  0  0
  2  3  1  0  0  0  0
  2  6  2  0  0  0  0
  3  7  1  0  0  0  0
  4  5  2  0  0  0  0
  4  6  1  0  0  0  0
  4  8  1  0  0  0  0
  5 10  1  0  0  0  0
  6 11  1  0  0  0  0
  7  9  1  0  0  0  0
  1 12  1  0  0  0  0
  2 13  1  0  0  0  0
  7 14  1  0  0  0  0
  7 15  1  0  0  0  0
  8 16  1  0  0  0  0
  9 17  1  0  0  0  0
M  END
> <id>
EN300-1288713

> <smiles>
OC=1C(Br)=CC(CS)=CC1Br

> <MDLNUMBER>
MFCD33497329

> <IUPAC Name>
2,6-dibromo-4-(sulfanylmethyl)phenol

> <CAS>
2172291-20-0

> <URL>
https://www.enaminestore.com/catalog/EN300-1288713

> <ROCS_ShapeQuery>
_x1604L0AP1_x0771L0AP1

> <ROCS_TanimotoCombo>
0.983 

> <ROCS_ShapeTanimoto>
0.486 

> <ROCS_ColorTanimoto>
0.497 

> <ROCS_RefTversky>
0.426 

> <ROCS_RefColorTversky>
0.516 

> <ROCS_RefTverskyCombo>
0.941 

> <ROCS_FitTversky>
1.415 

> <ROCS_FitColorTversky>
0.933 

> <ROCS_FitTverskyCombo>
2.347 

> <ROCS_ColorScore>
-4.882

> <ROCS_Overlap>
710.814

> <ROCS_Rank>
181                 

$$$$
untitled-dbase-342_399
  -OEChem-06052310023D

 26 26  0     0  0  0  0  0  0999 V2000
   -4.3726   12.1675  -31.2344 C   0  0  0  0  0  0  0  0  0  0  0  0
   -4.6068   12.4941  -29.8987 C   0  0  0  0  0  0  0  0  0  0  0  0
   -5.0987   11.1416  -31.8392 C   0  0  0  0  0  0  0  0  0  0  0  0
   -5.5671   11.7947  -29.1678 C   0  0  0  0  0  0  0  0  0  0  0  0
   -6.2932   10.7687  -29.7726 C   0  0  0  0  0  0  0  0  0  0  0  0
   -6.0590   10.4421  -31.1083 C   0  0  0  0  0  0  0  0  0  0  0  0
   -4.9984   13.1863  -27.3251 C   0  0  0  0  0  0  0  0  0  0  0  0
   -4.8105   10.8319  -33.2732 C   0  0  0  0  0  0  0  0  0  0  0  0
   -6.0431   10.9469  -34.1700 C   0  0  0  0  0  0  0  0  0  0  0  0
   -5.2075    9.2339  -35.4906 N   0  0  0  0  0  0  0  0  0  0  0  0
   -7.2275   10.0992  -29.0367 O   0  0  0  0  0  0  0  0  0  0  0  0
   -5.7844   12.1254  -27.8641 O   0  0  0  0  0  0  0  0  0  0  0  0
   -5.6970   10.6032  -35.5056 O   0  0  0  0  0  0  0  0  0  0  0  0
   -7.0608    9.0468  -31.9284 Br  0  0  0  0  0  0  0  0  0  0  0  0
   -3.6223   12.7193  -31.7947 H   0  0  0  0  0  0  0  0  0  0  0  0
   -4.0384   13.2952  -29.4341 H   0  0  0  0  0  0  0  0  0  0  0  0
   -5.2711   13.3478  -26.2793 H   0  0  0  0  0  0  0  0  0  0  0  0
   -5.1704   14.0981  -27.9026 H   0  0  0  0  0  0  0  0  0  0  0  0
   -3.9424   12.9127  -27.3858 H   0  0  0  0  0  0  0  0  0  0  0  0
   -4.0236   11.5017  -33.6500 H   0  0  0  0  0  0  0  0  0  0  0  0
   -4.4108    9.8106  -33.3533 H   0  0  0  0  0  0  0  0  0  0  0  0
   -6.8169   10.2489  -33.8343 H   0  0  0  0  0  0  0  0  0  0  0  0
   -6.4563   11.9609  -34.1621 H   0  0  0  0  0  0  0  0  0  0  0  0
   -4.2988    9.3572  -35.9348 H   0  0  0  0  0  0  0  0  0  0  0  0
   -5.8174    8.8113  -36.1887 H   0  0  0  0  0  0  0  0  0  0  0  0
   -7.2580   10.4544  -28.1354 H   0  0  0  0  0  0  0  0  0  0  0  0
  1  2  1  0  0  0  0
  1  3  2  0  0  0  0
  2  4  2  0  0  0  0
  3  6  1  0  0  0  0
  3  8  1  0  0  0  0
  4  5  1  0  0  0  0
  4 12  1  0  0  0  0
  5  6  2  0  0  0  0
  5 11  1  0  0  0  0
  6 14  1  0  0  0  0
  7 12  1  0  0  0  0
  8  9  1  0  0  0  0
  9 13  1  0  0  0  0
 10 13  1  0  0  0  0
  1 15  1  0  0  0  0
  2 16  1  0  0  0  0
  7 17  1  0  0  0  0
  7 18  1  0  0  0  0
  7 19  1  0  0  0  0
  8 20  1  0  0  0  0
  8 21  1  0  0  0  0
  9 22  1  0  0  0  0
  9 23  1  0  0  0  0
 10 24  1  0  0  0  0
 10 25  1  0  0  0  0
 11 26  1  0  0  0  0
M  END
> <id>
EN300-1935608

> <smiles>
COC=1C=CC(CCON)=C(Br)C1O

> <IUPAC Name>
3-[2-(aminooxy)ethyl]-2-bromo-6-methoxyphenol

> <CAS>
2229572-51-2

> <URL>
https://www.enaminestore.com/catalog/EN300-1935608

> <ROCS_ShapeQuery>
_x1604L0AP1_x0771L0AP1

> <ROCS_TanimotoCombo>
0.983 

> <ROCS_ShapeTanimoto>
0.486 

> <ROCS_ColorTanimoto>
0.497 

> <ROCS_RefTversky>
0.453 

> <ROCS_RefColorTversky>
0.516 

> <ROCS_RefTverskyCombo>
0.968 

> <ROCS_FitTversky>
1.178 

> <ROCS_FitColorTversky>
0.932 

> <ROCS_FitTverskyCombo>
2.111 

> <ROCS_ColorScore>
-4.881

> <ROCS_Overlap>
759.462

> <ROCS_Rank>
182                 

$$$$
untitled-dbase-1735_135
  -OEChem-06052310023D

 23 23  0     0  0  0  0  0  0999 V2000
   -4.3497   12.1610  -31.2083 C   0  0  0  0  0  0  0  0  0  0  0  0
   -4.5991   12.4898  -29.8759 C   0  0  0  0  0  0  0  0  0  0  0  0
   -5.0706   11.1356  -31.8204 C   0  0  0  0  0  0  0  0  0  0  0  0
   -5.5693   11.7931  -29.1555 C   0  0  0  0  0  0  0  0  0  0  0  0
   -6.2902   10.7677  -29.7676 C   0  0  0  0  0  0  0  0  0  0  0  0
   -6.0408   10.4390  -31.1000 C   0  0  0  0  0  0  0  0  0  0  0  0
   -5.0199   13.1862  -27.3080 C   0  0  0  0  0  0  0  0  0  0  0  0
   -4.7660   10.8235  -33.2504 C   0  0  0  0  0  0  0  0  0  0  0  0
   -6.6117   12.1979  -33.5352 N   0  0  0  0  0  0  0  0  0  0  0  0
   -7.2344   10.1010  -29.0419 O   0  0  0  0  0  0  0  0  0  0  0  0
   -5.8015   12.1260  -27.8549 O   0  0  0  0  0  0  0  0  0  0  0  0
   -5.9396   11.0068  -34.0305 O   0  0  0  0  0  0  0  0  0  0  0  0
   -7.0354    9.0444  -31.9300 Br  0  0  0  0  0  0  0  0  0  0  0  0
   -3.5918   12.7107  -31.7604 H   0  0  0  0  0  0  0  0  0  0  0  0
   -4.0347   13.2905  -29.4056 H   0  0  0  0  0  0  0  0  0  0  0  0
   -5.3047   13.3496  -26.2657 H   0  0  0  0  0  0  0  0  0  0  0  0
   -5.1833   14.0975  -27.8887 H   0  0  0  0  0  0  0  0  0  0  0  0
   -3.9638   12.9104  -27.3558 H   0  0  0  0  0  0  0  0  0  0  0  0
   -3.9766   11.4784  -33.6405 H   0  0  0  0  0  0  0  0  0  0  0  0
   -4.4230    9.7872  -33.3622 H   0  0  0  0  0  0  0  0  0  0  0  0
   -7.5377   11.8205  -33.3395 H   0  0  0  0  0  0  0  0  0  0  0  0
   -6.6933   12.7365  -34.3961 H   0  0  0  0  0  0  0  0  0  0  0  0
   -7.2749   10.4574  -28.1415 H   0  0  0  0  0  0  0  0  0  0  0  0
  1  2  1  0  0  0  0
  1  3  2  0  0  0  0
  2  4  2  0  0  0  0
  3  6  1  0  0  0  0
  3  8  1  0  0  0  0
  4  5  1  0  0  0  0
  4 11  1  0  0  0  0
  5  6  2  0  0  0  0
  5 10  1  0  0  0  0
  6 13  1  0  0  0  0
  7 11  1  0  0  0  0
  8 12  1  0  0  0  0
  9 12  1  0  0  0  0
  1 14  1  0  0  0  0
  2 15  1  0  0  0  0
  7 16  1  0  0  0  0
  7 17  1  0  0  0  0
  7 18  1  0  0  0  0
  8 19  1  0  0  0  0
  8 20  1  0  0  0  0
  9 21  1  0  0  0  0
  9 22  1  0  0  0  0
 10 23  1  0  0  0  0
M  END
> <id>
EN300-1935606

> <smiles>
COC=1C=CC(CON)=C(Br)C1O

> <IUPAC Name>
3-[(aminooxy)methyl]-2-bromo-6-methoxyphenol

> <CAS>
2229215-66-9

> <URL>
https://www.enaminestore.com/catalog/EN300-1935606

> <ROCS_ShapeQuery>
_x1604L0AP1_x0771L0AP1

> <ROCS_TanimotoCombo>
0.983 

> <ROCS_ShapeTanimoto>
0.485 

> <ROCS_ColorTanimoto>
0.498 

> <ROCS_RefTversky>
0.445 

> <ROCS_RefColorTversky>
0.516 

> <ROCS_RefTverskyCombo>
0.961 

> <ROCS_FitTversky>
1.228 

> <ROCS_FitColorTversky>
0.933 

> <ROCS_FitTverskyCombo>
2.161 

> <ROCS_ColorScore>
-4.884

> <ROCS_Overlap>
746.171

> <ROCS_Rank>
183                 

$$$$
untitled-dbase-985_1148
  -OEChem-06052310023D

 26 26  0     1  0  0  0  0  0999 V2000
   -6.7402   11.8650  -32.2249 C   0  0  0  0  0  0  0  0  0  0  0  0
   -6.7297   11.5514  -33.5840 C   0  0  0  0  0  0  0  0  0  0  0  0
   -6.4279    9.5312  -31.6838 C   0  0  0  0  0  0  0  0  0  0  0  0
   -6.5892   10.8549  -31.2748 C   0  0  0  0  0  0  0  0  0  0  0  0
   -6.5683   10.2276  -33.9930 C   0  0  0  0  0  0  0  0  0  0  0  0
   -6.4174    9.2175  -33.0429 C   0  0  0  0  0  0  0  0  0  0  0  0
   -4.3569   12.2089  -30.2627 C   0  0  0  0  0  0  0  0  0  0  0  0
   -3.0530   14.1635  -30.5187 C   0  0  0  0  0  0  0  0  0  0  0  0
   -5.1874   11.4337  -29.2682 C   0  0  0  0  0  0  0  0  0  0  0  0
   -6.6010   11.1960  -29.8025 C   0  0  2  0  0  0  0  0  0  0  0  0
   -4.1440   11.8359  -31.4091 O   0  0  0  0  0  0  0  0  0  0  0  0
   -6.5641    9.9541  -35.3285 O   0  0  0  0  0  0  0  0  0  0  0  0
   -7.2105   10.1141  -29.0971 O   0  0  0  0  0  0  0  0  0  0  0  0
   -3.8792   13.3470  -29.6829 O   0  0  0  0  0  0  0  0  0  0  0  0
   -6.1975    7.4080  -33.5626 Br  0  0  0  0  0  0  0  0  0  0  0  0
   -6.8667   12.8995  -31.9164 H   0  0  0  0  0  0  0  0  0  0  0  0
   -6.8479   12.3437  -34.3184 H   0  0  0  0  0  0  0  0  0  0  0  0
   -6.3103    8.7500  -30.9358 H   0  0  0  0  0  0  0  0  0  0  0  0
   -2.7259   15.0440  -29.9602 H   0  0  0  0  0  0  0  0  0  0  0  0
   -3.6172   14.4689  -31.4034 H   0  0  0  0  0  0  0  0  0  0  0  0
   -2.1789   13.5856  -30.8279 H   0  0  0  0  0  0  0  0  0  0  0  0
   -5.2012   12.0090  -28.3342 H   0  0  0  0  0  0  0  0  0  0  0  0
   -4.6679   10.4916  -29.0524 H   0  0  0  0  0  0  0  0  0  0  0  0
   -7.2315   12.0769  -29.6319 H   0  0  0  0  0  0  0  0  0  0  0  0
   -6.4447    9.0029  -35.4744 H   0  0  0  0  0  0  0  0  0  0  0  0
   -7.2038   10.3605  -28.1601 H   0  0  0  0  0  0  0  0  0  0  0  0
  1  2  1  0  0  0  0
  1  4  2  0  0  0  0
  2  5  2  0  0  0  0
  3  4  1  0  0  0  0
  3  6  2  0  0  0  0
  4 10  1  0  0  0  0
  5  6  1  0  0  0  0
  5 12  1  0  0  0  0
  6 15  1  0  0  0  0
  7  9  1  0  0  0  0
  7 11  2  0  0  0  0
  7 14  1  0  0  0  0
  8 14  1  0  0  0  0
  9 10  1  0  0  0  0
 10 13  1  0  0  0  0
  1 16  1  0  0  0  0
  2 17  1  0  0  0  0
  3 18  1  0  0  0  0
  8 19  1  0  0  0  0
  8 20  1  0  0  0  0
  8 21  1  0  0  0  0
  9 22  1  0  0  0  0
  9 23  1  0  0  0  0
 10 24  1  0  0  0  0
 12 25  1  0  0  0  0
 13 26  1  0  0  0  0
M  END
> <id>
EN300-1906655

> <smiles>
COC(=O)CC(O)C=1C=CC(O)=C(Br)C1

> <IUPAC Name>
methyl 3-(3-bromo-4-hydroxyphenyl)-3-hydroxypropanoate

> <CAS>
2229562-01-8

> <URL>
https://www.enaminestore.com/catalog/EN300-1906655

> <ROCS_ShapeQuery>
_x1604L0AP1_x0771L0AP1

> <ROCS_TanimotoCombo>
0.983 

> <ROCS_ShapeTanimoto>
0.679 

> <ROCS_ColorTanimoto>
0.304 

> <ROCS_RefTversky>
0.570 

> <ROCS_RefColorTversky>
0.407 

> <ROCS_RefTverskyCombo>
0.977 

> <ROCS_FitTversky>
1.392 

> <ROCS_FitColorTversky>
0.545 

> <ROCS_FitTverskyCombo>
1.937 

> <ROCS_ColorScore>
-3.889

> <ROCS_Overlap>
958.175

> <ROCS_Rank>
184                 

$$$$
untitled-dbase-368_1148
  -OEChem-06052310023D

 26 26  0     1  0  0  0  0  0999 V2000
   -6.7402   11.8650  -32.2249 C   0  0  0  0  0  0  0  0  0  0  0  0
   -6.7297   11.5514  -33.5840 C   0  0  0  0  0  0  0  0  0  0  0  0
   -6.4279    9.5312  -31.6838 C   0  0  0  0  0  0  0  0  0  0  0  0
   -6.5892   10.8549  -31.2748 C   0  0  0  0  0  0  0  0  0  0  0  0
   -6.5683   10.2276  -33.9930 C   0  0  0  0  0  0  0  0  0  0  0  0
   -6.4174    9.2175  -33.0429 C   0  0  0  0  0  0  0  0  0  0  0  0
   -4.3569   12.2089  -30.2627 C   0  0  0  0  0  0  0  0  0  0  0  0
   -3.0530   14.1635  -30.5187 C   0  0  0  0  0  0  0  0  0  0  0  0
   -5.1874   11.4337  -29.2682 C   0  0  0  0  0  0  0  0  0  0  0  0
   -6.6010   11.1960  -29.8025 C   0  0  2  0  0  0  0  0  0  0  0  0
   -4.1440   11.8359  -31.4091 O   0  0  0  0  0  0  0  0  0  0  0  0
   -6.5641    9.9541  -35.3285 O   0  0  0  0  0  0  0  0  0  0  0  0
   -7.2105   10.1141  -29.0971 O   0  0  0  0  0  0  0  0  0  0  0  0
   -3.8792   13.3470  -29.6829 O   0  0  0  0  0  0  0  0  0  0  0  0
   -6.1975    7.4080  -33.5626 Br  0  0  0  0  0  0  0  0  0  0  0  0
   -6.8667   12.8995  -31.9164 H   0  0  0  0  0  0  0  0  0  0  0  0
   -6.8479   12.3437  -34.3184 H   0  0  0  0  0  0  0  0  0  0  0  0
   -6.3103    8.7500  -30.9358 H   0  0  0  0  0  0  0  0  0  0  0  0
   -2.7259   15.0440  -29.9602 H   0  0  0  0  0  0  0  0  0  0  0  0
   -3.6172   14.4689  -31.4034 H   0  0  0  0  0  0  0  0  0  0  0  0
   -2.1789   13.5856  -30.8279 H   0  0  0  0  0  0  0  0  0  0  0  0
   -5.2012   12.0090  -28.3342 H   0  0  0  0  0  0  0  0  0  0  0  0
   -4.6679   10.4916  -29.0524 H   0  0  0  0  0  0  0  0  0  0  0  0
   -7.2315   12.0769  -29.6319 H   0  0  0  0  0  0  0  0  0  0  0  0
   -6.4447    9.0029  -35.4744 H   0  0  0  0  0  0  0  0  0  0  0  0
   -7.2038   10.3605  -28.1601 H   0  0  0  0  0  0  0  0  0  0  0  0
  1  2  1  0  0  0  0
  1  4  2  0  0  0  0
  2  5  2  0  0  0  0
  3  4  1  0  0  0  0
  3  6  2  0  0  0  0
  4 10  1  0  0  0  0
  5  6  1  0  0  0  0
  5 12  1  0  0  0  0
  6 15  1  0  0  0  0
  7  9  1  0  0  0  0
  7 11  2  0  0  0  0
  7 14  1  0  0  0  0
  8 14  1  0  0  0  0
  9 10  1  0  0  0  0
 10 13  1  6  0  0  0
  1 16  1  0  0  0  0
  2 17  1  0  0  0  0
  3 18  1  0  0  0  0
  8 19  1  0  0  0  0
  8 20  1  0  0  0  0
  8 21  1  0  0  0  0
  9 22  1  0  0  0  0
  9 23  1  0  0  0  0
 10 24  1  0  0  0  0
 12 25  1  0  0  0  0
 13 26  1  0  0  0  0
M  END
> <id>
EN300-1906653

> <smiles>
COC(=O)C[C@H](O)C=1C=CC(O)=C(Br)C1

> <IUPAC Name>
methyl (3S)-3-(3-bromo-4-hydroxyphenyl)-3-hydroxypropanoate

> <CAS>
2227818-97-3

> <URL>
https://www.enaminestore.com/catalog/EN300-1906653

> <ROCS_ShapeQuery>
_x1604L0AP1_x0771L0AP1

> <ROCS_TanimotoCombo>
0.983 

> <ROCS_ShapeTanimoto>
0.679 

> <ROCS_ColorTanimoto>
0.304 

> <ROCS_RefTversky>
0.570 

> <ROCS_RefColorTversky>
0.407 

> <ROCS_RefTverskyCombo>
0.977 

> <ROCS_FitTversky>
1.392 

> <ROCS_FitColorTversky>
0.545 

> <ROCS_FitTverskyCombo>
1.937 

> <ROCS_ColorScore>
-3.889

> <ROCS_Overlap>
958.175

> <ROCS_Rank>
185                 

$$$$
untitled-dbase-448_19
  -OEChem-06052310023D

 27 27  0     0  0  0  0  0  0999 V2000
   -4.9341   11.3021  -31.7267 C   0  0  0  0  0  0  0  0  0  0  0  0
   -4.5781   12.5505  -29.6891 C   0  0  0  0  0  0  0  0  0  0  0  0
   -5.9282   10.5547  -31.0952 C   0  0  0  0  0  0  0  0  0  0  0  0
   -6.2473   10.8053  -29.7606 C   0  0  0  0  0  0  0  0  0  0  0  0
   -4.2590   12.2999  -31.0236 C   0  0  0  0  0  0  0  0  0  0  0  0
   -5.5723   11.8032  -29.0575 C   0  0  0  0  0  0  0  0  0  0  0  0
   -6.5079    8.0394  -31.2887 C   0  0  0  0  0  0  0  0  0  0  0  0
   -8.1762    9.7731  -31.8881 C   0  0  0  0  0  0  0  0  0  0  0  0
   -6.1750    9.4233  -33.3659 C   0  0  0  0  0  0  0  0  0  0  0  0
   -6.6605    9.4582  -31.8902 C   0  0  0  0  0  0  0  0  0  0  0  0
   -6.7784   10.4289  -34.2021 N   0  0  0  0  0  0  0  0  0  0  0  0
   -7.2222   10.0655  -29.1567 O   0  0  0  0  0  0  0  0  0  0  0  0
   -3.0322   13.2217  -31.8033 Cl  0  0  0  0  0  0  0  0  0  0  0  0
   -5.9775   12.1731  -27.2427 Br  0  0  0  0  0  0  0  0  0  0  0  0
   -4.6884   11.1039  -32.7679 H   0  0  0  0  0  0  0  0  0  0  0  0
   -4.0490   13.3292  -29.1442 H   0  0  0  0  0  0  0  0  0  0  0  0
   -7.0388    7.2813  -31.8747 H   0  0  0  0  0  0  0  0  0  0  0  0
   -5.4547    7.7396  -31.2323 H   0  0  0  0  0  0  0  0  0  0  0  0
   -6.9080    7.9991  -30.2685 H   0  0  0  0  0  0  0  0  0  0  0  0
   -8.7554    9.0251  -32.4408 H   0  0  0  0  0  0  0  0  0  0  0  0
   -8.3786   10.7487  -32.3461 H   0  0  0  0  0  0  0  0  0  0  0  0
   -8.5734    9.7955  -30.8664 H   0  0  0  0  0  0  0  0  0  0  0  0
   -5.0907    9.5740  -33.4227 H   0  0  0  0  0  0  0  0  0  0  0  0
   -6.3868    8.4571  -33.8370 H   0  0  0  0  0  0  0  0  0  0  0  0
   -6.5264   11.3346  -33.8644 H   0  0  0  0  0  0  0  0  0  0  0  0
   -6.4524   10.3176  -35.1398 H   0  0  0  0  0  0  0  0  0  0  0  0
   -7.3337   10.3496  -28.2368 H   0  0  0  0  0  0  0  0  0  0  0  0
  1  3  2  0  0  0  0
  1  5  1  0  0  0  0
  2  5  2  0  0  0  0
  2  6  1  0  0  0  0
  3  4  1  0  0  0  0
  3 10  1  0  0  0  0
  4  6  2  0  0  0  0
  4 12  1  0  0  0  0
  5 13  1  0  0  0  0
  6 14  1  0  0  0  0
  7 10  1  0  0  0  0
  8 10  1  0  0  0  0
  9 10  1  0  0  0  0
  9 11  1  0  0  0  0
  1 15  1  0  0  0  0
  2 16  1  0  0  0  0
  7 17  1  0  0  0  0
  7 18  1  0  0  0  0
  7 19  1  0  0  0  0
  8 20  1  0  0  0  0
  8 21  1  0  0  0  0
  8 22  1  0  0  0  0
  9 23  1  0  0  0  0
  9 24  1  0  0  0  0
 11 25  1  0  0  0  0
 11 26  1  0  0  0  0
 12 27  1  0  0  0  0
M  END
> <id>
EN300-1922601

> <smiles>
CC(C)(CN)C=1C=C(Cl)C=C(Br)C1O

> <IUPAC Name>
2-(1-amino-2-methylpropan-2-yl)-6-bromo-4-chlorophenol

> <CAS>
2228872-78-2

> <URL>
https://www.enaminestore.com/catalog/EN300-1922601

> <ROCS_ShapeQuery>
_x1604L0AP1_x0771L0AP1

> <ROCS_TanimotoCombo>
0.983 

> <ROCS_ShapeTanimoto>
0.580 

> <ROCS_ColorTanimoto>
0.403 

> <ROCS_RefTversky>
0.506 

> <ROCS_RefColorTversky>
0.501 

> <ROCS_RefTverskyCombo>
1.008 

> <ROCS_FitTversky>
1.336 

> <ROCS_FitColorTversky>
0.672 

> <ROCS_FitTverskyCombo>
2.008 

> <ROCS_ColorScore>
-4.797

> <ROCS_Overlap>
848.875

> <ROCS_Rank>
186                 

$$$$
untitled-dbase-19_0
  -OEChem-06052310023D

 16 16  0     0  0  0  0  0  0999 V2000
   -4.6050   12.4931  -29.8425 C   0  0  0  0  0  0  0  0  0  0  0  0
   -4.3486   12.1789  -31.1770 C   0  0  0  0  0  0  0  0  0  0  0  0
   -5.5784   11.7879  -29.1346 C   0  0  0  0  0  0  0  0  0  0  0  0
   -5.0655   11.1597  -31.8038 C   0  0  0  0  0  0  0  0  0  0  0  0
   -6.2953   10.7687  -29.7614 C   0  0  0  0  0  0  0  0  0  0  0  0
   -6.0389   10.4546  -31.0960 C   0  0  0  0  0  0  0  0  0  0  0  0
   -4.7531   10.8622  -33.2352 C   0  0  0  0  0  0  0  0  0  0  0  0
   -7.2393   10.1019  -29.0380 O   0  0  0  0  0  0  0  0  0  0  0  0
   -7.0230    9.0619  -31.9403 Br  0  0  0  0  0  0  0  0  0  0  0  0
   -4.0471   13.2870  -29.3546 H   0  0  0  0  0  0  0  0  0  0  0  0
   -3.5879   12.7350  -31.7192 H   0  0  0  0  0  0  0  0  0  0  0  0
   -5.7729   12.0389  -28.0953 H   0  0  0  0  0  0  0  0  0  0  0  0
   -3.9640   10.1050  -33.3008 H   0  0  0  0  0  0  0  0  0  0  0  0
   -5.6393   10.4920  -33.7641 H   0  0  0  0  0  0  0  0  0  0  0  0
   -4.4188   11.7640  -33.7620 H   0  0  0  0  0  0  0  0  0  0  0  0
   -7.6621    9.4229  -29.5862 H   0  0  0  0  0  0  0  0  0  0  0  0
  1  2  1  0  0  0  0
  1  3  2  0  0  0  0
  2  4  2  0  0  0  0
  3  5  1  0  0  0  0
  4  6  1  0  0  0  0
  4  7  1  0  0  0  0
  5  6  2  0  0  0  0
  5  8  1  0  0  0  0
  6  9  1  0  0  0  0
  1 10  1  0  0  0  0
  2 11  1  0  0  0  0
  3 12  1  0  0  0  0
  7 13  1  0  0  0  0
  7 14  1  0  0  0  0
  7 15  1  0  0  0  0
  8 16  1  0  0  0  0
M  END
> <id>
EN300-105060

> <smiles>
CC=1C=CC=C(O)C1Br

> <MDLNUMBER>
MFCD09991797

> <IUPAC Name>
2-bromo-3-methylphenol

> <CAS>
22061-78-5

> <Purity>
95

> <URL>
https://www.enaminestore.com/catalog/EN300-105060

> <MP>
59-62

> <ROCS_ShapeQuery>
_x1604L0AP1_x0771L0AP1

> <ROCS_TanimotoCombo>
0.982 

> <ROCS_ShapeTanimoto>
0.428 

> <ROCS_ColorTanimoto>
0.554 

> <ROCS_RefTversky>
0.379 

> <ROCS_RefColorTversky>
0.519 

> <ROCS_RefTverskyCombo>
0.898 

> <ROCS_FitTversky>
1.432 

> <ROCS_FitColorTversky>
1.140 

> <ROCS_FitTverskyCombo>
2.571 

> <ROCS_ColorScore>
-4.883

> <ROCS_Overlap>
632.152

> <ROCS_Rank>
187                 

$$$$
untitled-dbase-2129_8
  -OEChem-06052310023D

 18 18  0     0  0  0  0  0  0999 V2000
   -5.0695   11.1173  -31.8215 C   0  0  0  0  0  0  0  0  0  0  0  0
   -5.5514   11.7884  -29.1569 C   0  0  0  0  0  0  0  0  0  0  0  0
   -6.2846   10.7680  -29.7628 C   0  0  0  0  0  0  0  0  0  0  0  0
   -4.5773   12.4731  -29.8834 C   0  0  0  0  0  0  0  0  0  0  0  0
   -4.3363   12.1376  -31.2157 C   0  0  0  0  0  0  0  0  0  0  0  0
   -6.0437   10.4325  -31.0951 C   0  0  0  0  0  0  0  0  0  0  0  0
   -5.7898   12.1552  -27.7673 C   0  0  0  0  0  0  0  0  0  0  0  0
   -4.9579   13.2632  -27.1927 C   0  0  0  0  0  0  0  0  0  0  0  0
   -6.6188   11.6204  -27.0303 O   0  0  0  0  0  0  0  0  0  0  0  0
   -7.2368   10.1063  -29.0423 O   0  0  0  0  0  0  0  0  0  0  0  0
   -3.8727   13.4533  -29.2973 F   0  0  0  0  0  0  0  0  0  0  0  0
   -3.1359   12.9787  -32.1179 Cl  0  0  0  0  0  0  0  0  0  0  0  0
   -7.0195    9.0523  -31.9540 Br  0  0  0  0  0  0  0  0  0  0  0  0
   -4.8784   10.8575  -32.8606 H   0  0  0  0  0  0  0  0  0  0  0  0
   -5.3991   14.2648  -27.3166 H   0  0  0  0  0  0  0  0  0  0  0  0
   -3.9378   13.2984  -27.6057 H   0  0  0  0  0  0  0  0  0  0  0  0
   -4.8107   13.1745  -26.1016 H   0  0  0  0  0  0  0  0  0  0  0  0
   -7.6594    9.4297  -29.5926 H   0  0  0  0  0  0  0  0  0  0  0  0
  1  5  1  0  0  0  0
  1  6  2  0  0  0  0
  2  3  2  0  0  0  0
  2  4  1  0  0  0  0
  2  7  1  0  0  0  0
  3  6  1  0  0  0  0
  3 10  1  0  0  0  0
  4  5  2  0  0  0  0
  4 11  1  0  0  0  0
  5 12  1  0  0  0  0
  6 13  1  0  0  0  0
  7  8  1  0  0  0  0
  7  9  2  0  0  0  0
  1 14  1  0  0  0  0
  8 15  1  0  0  0  0
  8 16  1  0  0  0  0
  8 17  1  0  0  0  0
 10 18  1  0  0  0  0
M  END
> <id>
EN300-1276915

> <smiles>
CC(=O)C=1C(O)=C(Br)C=C(Cl)C1F

> <IUPAC Name>
1-(3-bromo-5-chloro-6-fluoro-2-hydroxyphenyl)ethan-1-one

> <CAS>
1697975-75-9

> <URL>
https://www.enaminestore.com/catalog/EN300-1276915

> <ROCS_ShapeQuery>
_x1604L0AP1_x0771L0AP1

> <ROCS_TanimotoCombo>
0.982 

> <ROCS_ShapeTanimoto>
0.485 

> <ROCS_ColorTanimoto>
0.497 

> <ROCS_RefTversky>
0.446 

> <ROCS_RefColorTversky>
0.516 

> <ROCS_RefTverskyCombo>
0.961 

> <ROCS_FitTversky>
1.220 

> <ROCS_FitColorTversky>
0.933 

> <ROCS_FitTverskyCombo>
2.153 

> <ROCS_ColorScore>
-4.883

> <ROCS_Overlap>
746.775

> <ROCS_Rank>
188                 

$$$$
untitled-dbase-620_5
  -OEChem-06052310023D

 24 24  0     0  0  0  0  0  0999 V2000
   -4.2676   12.2969  -31.0401 C   0  0  0  0  0  0  0  0  0  0  0  0
   -4.9444   11.2947  -31.7351 C   0  0  0  0  0  0  0  0  0  0  0  0
   -4.5810   12.5537  -29.7053 C   0  0  0  0  0  0  0  0  0  0  0  0
   -5.9347   10.5493  -31.0954 C   0  0  0  0  0  0  0  0  0  0  0  0
   -6.2482   10.8061  -29.7607 C   0  0  0  0  0  0  0  0  0  0  0  0
   -5.5714   11.8083  -29.0656 C   0  0  0  0  0  0  0  0  0  0  0  0
   -6.1492    9.3649  -33.3151 C   0  0  0  0  0  0  0  0  0  0  0  0
   -6.5047    8.0332  -31.3018 C   0  0  0  0  0  0  0  0  0  0  0  0
   -8.1744    9.7723  -31.9292 C   0  0  0  0  0  0  0  0  0  0  0  0
   -6.6667    9.4535  -31.8787 C   0  0  0  0  0  0  0  0  0  0  0  0
   -6.6079    9.9973  -34.2624 O   0  0  0  0  0  0  0  0  0  0  0  0
   -7.2207   10.0693  -29.1491 O   0  0  0  0  0  0  0  0  0  0  0  0
   -5.9674   12.1870  -27.2508 Br  0  0  0  0  0  0  0  0  0  0  0  0
   -3.4961   12.8771  -31.5379 H   0  0  0  0  0  0  0  0  0  0  0  0
   -4.6922   11.0997  -32.7740 H   0  0  0  0  0  0  0  0  0  0  0  0
   -4.0425   13.3384  -29.1799 H   0  0  0  0  0  0  0  0  0  0  0  0
   -5.2588    8.7273  -33.4620 H   0  0  0  0  0  0  0  0  0  0  0  0
   -7.0464    7.2897  -31.8978 H   0  0  0  0  0  0  0  0  0  0  0  0
   -5.4504    7.7303  -31.2820 H   0  0  0  0  0  0  0  0  0  0  0  0
   -6.8673    7.9752  -30.2684 H   0  0  0  0  0  0  0  0  0  0  0  0
   -8.7241    9.0035  -32.4846 H   0  0  0  0  0  0  0  0  0  0  0  0
   -8.6148    9.8405  -30.9279 H   0  0  0  0  0  0  0  0  0  0  0  0
   -8.3619   10.7361  -32.4178 H   0  0  0  0  0  0  0  0  0  0  0  0
   -7.3282   10.3578  -28.2301 H   0  0  0  0  0  0  0  0  0  0  0  0
  1  2  1  0  0  0  0
  1  3  2  0  0  0  0
  2  4  2  0  0  0  0
  3  6  1  0  0  0  0
  4  5  1  0  0  0  0
  4 10  1  0  0  0  0
  5  6  2  0  0  0  0
  5 12  1  0  0  0  0
  6 13  1  0  0  0  0
  7 10  1  0  0  0  0
  7 11  2  0  0  0  0
  8 10  1  0  0  0  0
  9 10  1  0  0  0  0
  1 14  1  0  0  0  0
  2 15  1  0  0  0  0
  3 16  1  0  0  0  0
  7 17  1  0  0  0  0
  8 18  1  0  0  0  0
  8 19  1  0  0  0  0
  8 20  1  0  0  0  0
  9 21  1  0  0  0  0
  9 22  1  0  0  0  0
  9 23  1  0  0  0  0
 12 24  1  0  0  0  0
M  END
> <id>
EN300-1923098

> <smiles>
CC(C)(C=O)C=1C=CC=C(Br)C1O

> <IUPAC Name>
2-(3-bromo-2-hydroxyphenyl)-2-methylpropanal

> <CAS>
2229388-63-8

> <URL>
https://www.enaminestore.com/catalog/EN300-1923098

> <ROCS_ShapeQuery>
_x1604L0AP1_x0771L0AP1

> <ROCS_TanimotoCombo>
0.982 

> <ROCS_ShapeTanimoto>
0.540 

> <ROCS_ColorTanimoto>
0.441 

> <ROCS_RefTversky>
0.478 

> <ROCS_RefColorTversky>
0.505 

> <ROCS_RefTverskyCombo>
0.983 

> <ROCS_FitTversky>
1.318 

> <ROCS_FitColorTversky>
0.777 

> <ROCS_FitTverskyCombo>
2.095 

> <ROCS_ColorScore>
-4.808

> <ROCS_Overlap>
801.102

> <ROCS_Rank>
189                 

$$$$
untitled-dbase-939_34
  -OEChem-06052310023D

 20 20  0     0  0  0  0  0  0999 V2000
   -4.6108   12.4981  -29.8527 C   0  0  0  0  0  0  0  0  0  0  0  0
   -4.3624   12.1882  -31.1898 C   0  0  0  0  0  0  0  0  0  0  0  0
   -5.5780   11.7889  -29.1404 C   0  0  0  0  0  0  0  0  0  0  0  0
   -5.0811   11.1691  -31.8146 C   0  0  0  0  0  0  0  0  0  0  0  0
   -6.2967   10.7698  -29.7652 C   0  0  0  0  0  0  0  0  0  0  0  0
   -6.0483   10.4598  -31.1024 C   0  0  0  0  0  0  0  0  0  0  0  0
   -3.5265   10.5175  -33.5929 C   0  0  0  0  0  0  0  0  0  0  0  0
   -4.7730   10.8945  -33.2139 C   0  0  0  0  0  0  0  0  0  0  0  0
   -5.8710   10.9743  -34.2567 C   0  0  0  0  0  0  0  0  0  0  0  0
   -7.2334   10.0996  -29.0356 O   0  0  0  0  0  0  0  0  0  0  0  0
   -6.0916    9.3959  -35.0507 Cl  0  0  0  0  0  0  0  0  0  0  0  0
   -7.0457    9.0607  -31.9300 Br  0  0  0  0  0  0  0  0  0  0  0  0
   -4.0512   13.2917  -29.3655 H   0  0  0  0  0  0  0  0  0  0  0  0
   -3.6039   12.7515  -31.7285 H   0  0  0  0  0  0  0  0  0  0  0  0
   -5.7653   12.0357  -28.0988 H   0  0  0  0  0  0  0  0  0  0  0  0
   -3.2865   10.3108  -34.6309 H   0  0  0  0  0  0  0  0  0  0  0  0
   -2.7153   10.4162  -32.8786 H   0  0  0  0  0  0  0  0  0  0  0  0
   -6.8398   11.2462  -33.8245 H   0  0  0  0  0  0  0  0  0  0  0  0
   -5.6467   11.7174  -35.0271 H   0  0  0  0  0  0  0  0  0  0  0  0
   -7.6593    9.4208  -29.5817 H   0  0  0  0  0  0  0  0  0  0  0  0
  1  2  2  0  0  0  0
  1  3  1  0  0  0  0
  2  4  1  0  0  0  0
  3  5  2  0  0  0  0
  4  6  2  0  0  0  0
  4  8  1  0  0  0  0
  5  6  1  0  0  0  0
  5 10  1  0  0  0  0
  6 12  1  0  0  0  0
  7  8  2  0  0  0  0
  8  9  1  0  0  0  0
  9 11  1  0  0  0  0
  1 13  1  0  0  0  0
  2 14  1  0  0  0  0
  3 15  1  0  0  0  0
  7 16  1  0  0  0  0
  7 17  1  0  0  0  0
  9 18  1  0  0  0  0
  9 19  1  0  0  0  0
 10 20  1  0  0  0  0
M  END
> <id>
EN300-1904626

> <smiles>
OC=1C=CC=C(C(=C)CCl)C1Br

> <IUPAC Name>
2-bromo-3-(3-chloroprop-1-en-2-yl)phenol

> <CAS>
2229122-39-6

> <URL>
https://www.enaminestore.com/catalog/EN300-1904626

> <ROCS_ShapeQuery>
_x1604L0AP1_x0771L0AP1

> <ROCS_TanimotoCombo>
0.982 

> <ROCS_ShapeTanimoto>
0.485 

> <ROCS_ColorTanimoto>
0.497 

> <ROCS_RefTversky>
0.435 

> <ROCS_RefColorTversky>
0.516 

> <ROCS_RefTverskyCombo>
0.950 

> <ROCS_FitTversky>
1.311 

> <ROCS_FitColorTversky>
0.933 

> <ROCS_FitTverskyCombo>
2.244 

> <ROCS_ColorScore>
-4.882

> <ROCS_Overlap>
726.912

> <ROCS_Rank>
190                 

$$$$
untitled-dbase-885_61
  -OEChem-06052310023D

 22 22  0     0  0  0  0  0  0999 V2000
   -4.6487   12.5032  -29.5300 C   0  0  0  0  0  0  0  0  0  0  0  0
   -5.0370   11.3777  -31.6322 C   0  0  0  0  0  0  0  0  0  0  0  0
   -4.3538   12.3355  -30.8829 C   0  0  0  0  0  0  0  0  0  0  0  0
   -5.6268   11.7130  -28.9262 C   0  0  0  0  0  0  0  0  0  0  0  0
   -6.3100   10.7551  -29.6755 C   0  0  0  0  0  0  0  0  0  0  0  0
   -6.0151   10.5874  -31.0284 C   0  0  0  0  0  0  0  0  0  0  0  0
   -3.3358   13.1617  -31.5128 C   0  0  0  0  0  0  0  0  0  0  0  0
   -5.1584   12.8894  -26.9132 C   0  0  0  0  0  0  0  0  0  0  0  0
   -2.5874   14.2119  -30.7026 C   0  0  0  0  0  0  0  0  0  0  0  0
   -3.0689   13.0442  -32.7243 O   0  0  0  0  0  0  0  0  0  0  0  0
   -7.2640    9.9925  -29.0672 O   0  0  0  0  0  0  0  0  0  0  0  0
   -5.9035   11.8886  -27.6039 O   0  0  0  0  0  0  0  0  0  0  0  0
   -1.9037   13.6650  -29.6608 F   0  0  0  0  0  0  0  0  0  0  0  0
   -3.4403   15.1179  -30.1574 F   0  0  0  0  0  0  0  0  0  0  0  0
   -6.9247    9.2983  -32.0796 Br  0  0  0  0  0  0  0  0  0  0  0  0
   -4.1188   13.2495  -28.9424 H   0  0  0  0  0  0  0  0  0  0  0  0
   -4.8021   11.2536  -32.6873 H   0  0  0  0  0  0  0  0  0  0  0  0
   -5.4769   12.9260  -25.8686 H   0  0  0  0  0  0  0  0  0  0  0  0
   -5.3213   13.8597  -27.3892 H   0  0  0  0  0  0  0  0  0  0  0  0
   -4.0963   12.6370  -26.9592 H   0  0  0  0  0  0  0  0  0  0  0  0
   -1.8658   14.7313  -31.3392 H   0  0  0  0  0  0  0  0  0  0  0  0
   -7.3410   10.2384  -28.1327 H   0  0  0  0  0  0  0  0  0  0  0  0
  1  3  1  0  0  0  0
  1  4  2  0  0  0  0
  2  3  2  0  0  0  0
  2  6  1  0  0  0  0
  3  7  1  0  0  0  0
  4  5  1  0  0  0  0
  4 12  1  0  0  0  0
  5  6  2  0  0  0  0
  5 11  1  0  0  0  0
  6 15  1  0  0  0  0
  7  9  1  0  0  0  0
  7 10  2  0  0  0  0
  8 12  1  0  0  0  0
  9 13  1  0  0  0  0
  9 14  1  0  0  0  0
  1 16  1  0  0  0  0
  2 17  1  0  0  0  0
  8 18  1  0  0  0  0
  8 19  1  0  0  0  0
  8 20  1  0  0  0  0
  9 21  1  0  0  0  0
 11 22  1  0  0  0  0
M  END
> <id>
EN300-1958945

> <smiles>
COC=1C=C(C=C(Br)C1O)C(=O)C(F)F

> <IUPAC Name>
1-(3-bromo-4-hydroxy-5-methoxyphenyl)-2,2-difluoroethan-1-one

> <CAS>
2229606-69-1

> <URL>
https://www.enaminestore.com/catalog/EN300-1958945

> <ROCS_ShapeQuery>
_x1604L0AP1_x0771L0AP1

> <ROCS_TanimotoCombo>
0.982 

> <ROCS_ShapeTanimoto>
0.552 

> <ROCS_ColorTanimoto>
0.430 

> <ROCS_RefTversky>
0.504 

> <ROCS_RefColorTversky>
0.496 

> <ROCS_RefTverskyCombo>
1.001 

> <ROCS_FitTversky>
1.205 

> <ROCS_FitColorTversky>
0.764 

> <ROCS_FitTverskyCombo>
1.969 

> <ROCS_ColorScore>
-4.723

> <ROCS_Overlap>
847.493

> <ROCS_Rank>
191                 

$$$$
untitled-dbase-1259_20
  -OEChem-06052310023D

 26 26  0     0  0  0  0  0  0999 V2000
   -4.9397   11.2944  -31.7305 C   0  0  0  0  0  0  0  0  0  0  0  0
   -4.5751   12.5454  -29.6960 C   0  0  0  0  0  0  0  0  0  0  0  0
   -5.9333   10.5500  -31.0947 C   0  0  0  0  0  0  0  0  0  0  0  0
   -6.2479   10.8034  -29.7597 C   0  0  0  0  0  0  0  0  0  0  0  0
   -4.2605   12.2920  -31.0311 C   0  0  0  0  0  0  0  0  0  0  0  0
   -5.5688   11.8011  -29.0603 C   0  0  0  0  0  0  0  0  0  0  0  0
   -6.5151    8.0386  -31.2780 C   0  0  0  0  0  0  0  0  0  0  0  0
   -8.1832    9.7722  -31.9021 C   0  0  0  0  0  0  0  0  0  0  0  0
   -6.1577    9.4091  -33.3485 C   0  0  0  0  0  0  0  0  0  0  0  0
   -6.6705    9.4533  -31.8860 C   0  0  0  0  0  0  0  0  0  0  0  0
   -7.2225   10.0665  -29.1516 O   0  0  0  0  0  0  0  0  0  0  0  0
   -6.3604   10.6633  -33.9910 O   0  0  0  0  0  0  0  0  0  0  0  0
   -3.0342   13.2101  -31.8160 Cl  0  0  0  0  0  0  0  0  0  0  0  0
   -5.9679   12.1748  -27.2448 Br  0  0  0  0  0  0  0  0  0  0  0  0
   -4.6976   11.0939  -32.7721 H   0  0  0  0  0  0  0  0  0  0  0  0
   -4.0428   13.3240  -29.1540 H   0  0  0  0  0  0  0  0  0  0  0  0
   -7.0527    7.2869  -31.8679 H   0  0  0  0  0  0  0  0  0  0  0  0
   -5.4614    7.7357  -31.2541 H   0  0  0  0  0  0  0  0  0  0  0  0
   -6.8878    7.9889  -30.2486 H   0  0  0  0  0  0  0  0  0  0  0  0
   -8.7421    9.0103  -32.4584 H   0  0  0  0  0  0  0  0  0  0  0  0
   -8.3777   10.7408  -32.3773 H   0  0  0  0  0  0  0  0  0  0  0  0
   -8.6073    9.8200  -30.8931 H   0  0  0  0  0  0  0  0  0  0  0  0
   -5.0829    9.1934  -33.3711 H   0  0  0  0  0  0  0  0  0  0  0  0
   -6.6603    8.6373  -33.9408 H   0  0  0  0  0  0  0  0  0  0  0  0
   -7.3307   10.3524  -28.2318 H   0  0  0  0  0  0  0  0  0  0  0  0
   -6.0213   10.5703  -34.8952 H   0  0  0  0  0  0  0  0  0  0  0  0
  1  3  2  0  0  0  0
  1  5  1  0  0  0  0
  2  5  2  0  0  0  0
  2  6  1  0  0  0  0
  3  4  1  0  0  0  0
  3 10  1  0  0  0  0
  4  6  2  0  0  0  0
  4 11  1  0  0  0  0
  5 13  1  0  0  0  0
  6 14  1  0  0  0  0
  7 10  1  0  0  0  0
  8 10  1  0  0  0  0
  9 10  1  0  0  0  0
  9 12  1  0  0  0  0
  1 15  1  0  0  0  0
  2 16  1  0  0  0  0
  7 17  1  0  0  0  0
  7 18  1  0  0  0  0
  7 19  1  0  0  0  0
  8 20  1  0  0  0  0
  8 21  1  0  0  0  0
  8 22  1  0  0  0  0
  9 23  1  0  0  0  0
  9 24  1  0  0  0  0
 11 25  1  0  0  0  0
 12 26  1  0  0  0  0
M  END
> <id>
EN300-1922598

> <smiles>
CC(C)(CO)C=1C=C(Cl)C=C(Br)C1O

> <IUPAC Name>
2-bromo-4-chloro-6-(1-hydroxy-2-methylpropan-2-yl)phenol

> <CAS>
2228239-92-5

> <URL>
https://www.enaminestore.com/catalog/EN300-1922598

> <ROCS_ShapeQuery>
_x1604L0AP1_x0771L0AP1

> <ROCS_TanimotoCombo>
0.981 

> <ROCS_ShapeTanimoto>
0.578 

> <ROCS_ColorTanimoto>
0.403 

> <ROCS_RefTversky>
0.505 

> <ROCS_RefColorTversky>
0.502 

> <ROCS_RefTverskyCombo>
1.007 

> <ROCS_FitTversky>
1.331 

> <ROCS_FitColorTversky>
0.673 

> <ROCS_FitTverskyCombo>
2.003 

> <ROCS_ColorScore>
-4.800

> <ROCS_Overlap>
847.674

> <ROCS_Rank>
192                 

$$$$
untitled-dbase-18_1
  -OEChem-06052310023D

 15 15  0     0  0  0  0  0  0999 V2000
   -4.5845   12.4679  -29.8411 C   0  0  0  0  0  0  0  0  0  0  0  0
   -5.5653   11.7757  -29.1308 C   0  0  0  0  0  0  0  0  0  0  0  0
   -5.0571   11.1309  -31.7970 C   0  0  0  0  0  0  0  0  0  0  0  0
   -4.3304   12.1456  -31.1742 C   0  0  0  0  0  0  0  0  0  0  0  0
   -6.2920   10.7610  -29.7537 C   0  0  0  0  0  0  0  0  0  0  0  0
   -6.0379   10.4386  -31.0868 C   0  0  0  0  0  0  0  0  0  0  0  0
   -3.3071   12.8672  -31.9139 C   0  0  0  0  0  0  0  0  0  0  0  0
   -2.6311   13.7735  -31.4192 O   0  0  0  0  0  0  0  0  0  0  0  0
   -7.2441   10.1044  -29.0321 O   0  0  0  0  0  0  0  0  0  0  0  0
   -7.0064    9.0664  -31.9655 Br  0  0  0  0  0  0  0  0  0  0  0  0
   -4.0242   13.2569  -29.3460 H   0  0  0  0  0  0  0  0  0  0  0  0
   -5.7583   12.0329  -28.0928 H   0  0  0  0  0  0  0  0  0  0  0  0
   -4.8529   10.8844  -32.8369 H   0  0  0  0  0  0  0  0  0  0  0  0
   -3.1402   12.5751  -32.9736 H   0  0  0  0  0  0  0  0  0  0  0  0
   -7.6715    9.4281  -29.5801 H   0  0  0  0  0  0  0  0  0  0  0  0
  1  2  1  0  0  0  0
  1  4  2  0  0  0  0
  2  5  2  0  0  0  0
  3  4  1  0  0  0  0
  3  6  2  0  0  0  0
  4  7  1  0  0  0  0
  5  6  1  0  0  0  0
  5  9  1  0  0  0  0
  6 10  1  0  0  0  0
  7  8  2  0  0  0  0
  1 11  1  0  0  0  0
  2 12  1  0  0  0  0
  3 13  1  0  0  0  0
  7 14  1  0  0  0  0
  9 15  1  0  0  0  0
M  END
> <id>
EN300-07841

> <smiles>
OC=1C=CC(C=O)=CC1Br

> <MDLNUMBER>
MFCD00017348

> <IUPAC Name>
3-bromo-4-hydroxybenzaldehyde

> <CAS>
2973-78-6

> <Purity>
95

> <URL>
https://www.enaminestore.com/catalog/EN300-07841

> <MP>
130-135

> <ROCS_ShapeQuery>
_x1604L0AP1_x0771L0AP1

> <ROCS_TanimotoCombo>
0.981 

> <ROCS_ShapeTanimoto>
0.485 

> <ROCS_ColorTanimoto>
0.497 

> <ROCS_RefTversky>
0.422 

> <ROCS_RefColorTversky>
0.515 

> <ROCS_RefTverskyCombo>
0.937 

> <ROCS_FitTversky>
1.446 

> <ROCS_FitColorTversky>
0.932 

> <ROCS_FitTverskyCombo>
2.378 

> <ROCS_ColorScore>
-4.879

> <ROCS_Overlap>
703.626

> <ROCS_Rank>
193                 

$$$$
untitled-dbase-171_72
  -OEChem-06052310023D

 21 21  0     0  0  0  0  0  0999 V2000
   -4.5661   12.4545  -29.8463 C   0  0  0  0  0  0  0  0  0  0  0  0
   -5.0553   11.1206  -31.8002 C   0  0  0  0  0  0  0  0  0  0  0  0
   -4.3195   12.1305  -31.1803 C   0  0  0  0  0  0  0  0  0  0  0  0
   -5.5485   11.7687  -29.1320 C   0  0  0  0  0  0  0  0  0  0  0  0
   -6.2844   10.7588  -29.7519 C   0  0  0  0  0  0  0  0  0  0  0  0
   -6.0378   10.4347  -31.0860 C   0  0  0  0  0  0  0  0  0  0  0  0
   -4.9810   13.1411  -27.2746 C   0  0  0  0  0  0  0  0  0  0  0  0
   -3.2697   12.8647  -31.9438 C   0  0  0  0  0  0  0  0  0  0  0  0
   -7.2418   10.1000  -29.0370 O   0  0  0  0  0  0  0  0  0  0  0  0
   -5.7782   12.0970  -27.8299 O   0  0  0  0  0  0  0  0  0  0  0  0
   -3.0870   14.5893  -31.3956 S   0  0  0  0  0  0  0  0  0  0  0  0
   -7.0173    9.0685  -31.9624 Br  0  0  0  0  0  0  0  0  0  0  0  0
   -3.9940   13.2417  -29.3609 H   0  0  0  0  0  0  0  0  0  0  0  0
   -4.8559   10.8753  -32.8411 H   0  0  0  0  0  0  0  0  0  0  0  0
   -5.2655   13.3025  -26.2319 H   0  0  0  0  0  0  0  0  0  0  0  0
   -5.1285   14.0586  -27.8498 H   0  0  0  0  0  0  0  0  0  0  0  0
   -3.9294   12.8488  -27.3219 H   0  0  0  0  0  0  0  0  0  0  0  0
   -2.2939   12.3661  -31.8470 H   0  0  0  0  0  0  0  0  0  0  0  0
   -3.5017   12.8686  -33.0191 H   0  0  0  0  0  0  0  0  0  0  0  0
   -7.2816   10.4489  -28.1335 H   0  0  0  0  0  0  0  0  0  0  0  0
   -4.3448   14.9568  -31.6733 H   0  0  0  0  0  0  0  0  0  0  0  0
  1  3  1  0  0  0  0
  1  4  2  0  0  0  0
  2  3  2  0  0  0  0
  2  6  1  0  0  0  0
  3  8  1  0  0  0  0
  4  5  1  0  0  0  0
  4 10  1  0  0  0  0
  5  6  2  0  0  0  0
  5  9  1  0  0  0  0
  6 12  1  0  0  0  0
  7 10  1  0  0  0  0
  8 11  1  0  0  0  0
  1 13  1  0  0  0  0
  2 14  1  0  0  0  0
  7 15  1  0  0  0  0
  7 16  1  0  0  0  0
  7 17  1  0  0  0  0
  8 18  1  0  0  0  0
  8 19  1  0  0  0  0
  9 20  1  0  0  0  0
 11 21  1  0  0  0  0
M  END
> <id>
EN300-1289252

> <smiles>
COC=1C=C(CS)C=C(Br)C1O

> <IUPAC Name>
2-bromo-6-methoxy-4-(sulfanylmethyl)phenol

> <CAS>
2172356-10-2

> <URL>
https://www.enaminestore.com/catalog/EN300-1289252

> <ROCS_ShapeQuery>
_x1604L0AP1_x0771L0AP1

> <ROCS_TanimotoCombo>
0.981 

> <ROCS_ShapeTanimoto>
0.484 

> <ROCS_ColorTanimoto>
0.497 

> <ROCS_RefTversky>
0.435 

> <ROCS_RefColorTversky>
0.516 

> <ROCS_RefTverskyCombo>
0.951 

> <ROCS_FitTversky>
1.305 

> <ROCS_FitColorTversky>
0.932 

> <ROCS_FitTverskyCombo>
2.237 

> <ROCS_ColorScore>
-4.881

> <ROCS_Overlap>
727.624

> <ROCS_Rank>
194                 

$$$$
untitled-dbase-95_0
  -OEChem-06052310023D

 13 13  0     0  0  0  0  0  0999 V2000
   -4.3431   12.1498  -31.2039 C   0  0  0  0  0  0  0  0  0  0  0  0
   -4.5912   12.4785  -29.8712 C   0  0  0  0  0  0  0  0  0  0  0  0
   -5.0694   11.1289  -31.8172 C   0  0  0  0  0  0  0  0  0  0  0  0
   -6.2916   10.7655  -29.7652 C   0  0  0  0  0  0  0  0  0  0  0  0
   -5.5654   11.7864  -29.1519 C   0  0  0  0  0  0  0  0  0  0  0  0
   -6.0436   10.4368  -31.0979 C   0  0  0  0  0  0  0  0  0  0  0  0
   -7.2376   10.1081  -29.0364 O   0  0  0  0  0  0  0  0  0  0  0  0
   -5.7997   12.1095  -27.8724 F   0  0  0  0  0  0  0  0  0  0  0  0
   -7.0130    9.0582  -31.9651 Br  0  0  0  0  0  0  0  0  0  0  0  0
   -3.5838   12.6887  -31.7628 H   0  0  0  0  0  0  0  0  0  0  0  0
   -4.0267   13.2739  -29.3931 H   0  0  0  0  0  0  0  0  0  0  0  0
   -4.8625   10.8873  -32.8566 H   0  0  0  0  0  0  0  0  0  0  0  0
   -7.2745   10.4662  -28.1359 H   0  0  0  0  0  0  0  0  0  0  0  0
  1  2  2  0  0  0  0
  1  3  1  0  0  0  0
  2  5  1  0  0  0  0
  3  6  2  0  0  0  0
  4  5  2  0  0  0  0
  4  6  1  0  0  0  0
  4  7  1  0  0  0  0
  5  8  1  0  0  0  0
  6  9  1  0  0  0  0
  1 10  1  0  0  0  0
  2 11  1  0  0  0  0
  3 12  1  0  0  0  0
  7 13  1  0  0  0  0
M  END
> <id>
EN300-201350

> <smiles>
OC=1C(F)=CC=CC1Br

> <MDLNUMBER>
MFCD03788533

> <IUPAC Name>
2-bromo-6-fluorophenol

> <CAS>
2040-89-3

> <Purity>
95

> <URL>
https://www.enaminestore.com/catalog/EN300-201350

> <MP>
47-48

> <ROCS_ShapeQuery>
_x1604L0AP1_x0771L0AP1

> <ROCS_TanimotoCombo>
0.981 

> <ROCS_ShapeTanimoto>
0.428 

> <ROCS_ColorTanimoto>
0.553 

> <ROCS_RefTversky>
0.380 

> <ROCS_RefColorTversky>
0.518 

> <ROCS_RefTverskyCombo>
0.898 

> <ROCS_FitTversky>
1.415 

> <ROCS_FitColorTversky>
1.139 

> <ROCS_FitTverskyCombo>
2.554 

> <ROCS_ColorScore>
-4.879

> <ROCS_Overlap>
633.546

> <ROCS_Rank>
195                 

$$$$
untitled-dbase-1179_478
  -OEChem-06052310023D

 33 33  0     0  0  0  0  0  0999 V2000
   -4.4650   11.3614  -31.8796 C   0  0  0  0  0  0  0  0  0  0  0  0
   -4.2766   11.7213  -30.5452 C   0  0  0  0  0  0  0  0  0  0  0  0
   -5.5741   10.5991  -32.2465 C   0  0  0  0  0  0  0  0  0  0  0  0
   -5.1972   11.3188  -29.5777 C   0  0  0  0  0  0  0  0  0  0  0  0
   -6.3063   10.5564  -29.9445 C   0  0  0  0  0  0  0  0  0  0  0  0
   -6.4947   10.1966  -31.2789 C   0  0  0  0  0  0  0  0  0  0  0  0
   -4.0420    8.4331  -33.3372 C   0  0  0  0  0  0  0  0  0  0  0  0
   -5.0085    8.7029  -35.6215 C   0  0  0  0  0  0  0  0  0  0  0  0
   -5.5728   12.9129  -27.8533 C   0  0  0  0  0  0  0  0  0  0  0  0
   -5.7322   10.2374  -33.7053 C   0  0  0  0  0  0  0  0  0  0  0  0
   -6.4197    7.7508  -33.7828 C   0  0  0  0  0  0  0  0  0  0  0  0
   -5.3274    8.7904  -34.1178 C   0  0  0  0  0  0  0  0  0  0  0  0
   -7.1929   10.1750  -28.9797 O   0  0  0  0  0  0  0  0  0  0  0  0
   -6.2455    6.5632  -34.5444 O   0  0  0  0  0  0  0  0  0  0  0  0
   -4.9994   11.6782  -28.2785 O   0  0  0  0  0  0  0  0  0  0  0  0
   -8.0156    9.1639  -31.7722 Br  0  0  0  0  0  0  0  0  0  0  0  0
   -3.7417   11.6808  -32.6254 H   0  0  0  0  0  0  0  0  0  0  0  0
   -3.4111   12.3162  -30.2665 H   0  0  0  0  0  0  0  0  0  0  0  0
   -4.2097    8.4789  -32.2551 H   0  0  0  0  0  0  0  0  0  0  0  0
   -3.2220    9.1195  -33.5758 H   0  0  0  0  0  0  0  0  0  0  0  0
   -3.7042    7.4183  -33.5770 H   0  0  0  0  0  0  0  0  0  0  0  0
   -5.8875    8.9473  -36.2281 H   0  0  0  0  0  0  0  0  0  0  0  0
   -4.6663    7.7025  -35.9058 H   0  0  0  0  0  0  0  0  0  0  0  0
   -4.2124    9.4049  -35.8960 H   0  0  0  0  0  0  0  0  0  0  0  0
   -5.3406   13.0792  -26.7985 H   0  0  0  0  0  0  0  0  0  0  0  0
   -6.6556   12.8819  -27.9985 H   0  0  0  0  0  0  0  0  0  0  0  0
   -5.1503   13.7250  -28.4496 H   0  0  0  0  0  0  0  0  0  0  0  0
   -6.7811   10.4123  -33.9847 H   0  0  0  0  0  0  0  0  0  0  0  0
   -5.1648   10.9651  -34.3021 H   0  0  0  0  0  0  0  0  0  0  0  0
   -6.4041    7.4849  -32.7208 H   0  0  0  0  0  0  0  0  0  0  0  0
   -7.4148    8.1518  -34.0079 H   0  0  0  0  0  0  0  0  0  0  0  0
   -6.9088   10.5099  -28.1157 H   0  0  0  0  0  0  0  0  0  0  0  0
   -6.9595    5.9581  -34.2865 H   0  0  0  0  0  0  0  0  0  0  0  0
  1  2  1  0  0  0  0
  1  3  2  0  0  0  0
  2  4  2  0  0  0  0
  3  6  1  0  0  0  0
  3 10  1  0  0  0  0
  4  5  1  0  0  0  0
  4 15  1  0  0  0  0
  5  6  2  0  0  0  0
  5 13  1  0  0  0  0
  6 16  1  0  0  0  0
  7 12  1  0  0  0  0
  8 12  1  0  0  0  0
  9 15  1  0  0  0  0
 10 12  1  0  0  0  0
 11 12  1  0  0  0  0
 11 14  1  0  0  0  0
  1 17  1  0  0  0  0
  2 18  1  0  0  0  0
  7 19  1  0  0  0  0
  7 20  1  0  0  0  0
  7 21  1  0  0  0  0
  8 22  1  0  0  0  0
  8 23  1  0  0  0  0
  8 24  1  0  0  0  0
  9 25  1  0  0  0  0
  9 26  1  0  0  0  0
  9 27  1  0  0  0  0
 10 28  1  0  0  0  0
 10 29  1  0  0  0  0
 11 30  1  0  0  0  0
 11 31  1  0  0  0  0
 13 32  1  0  0  0  0
 14 33  1  0  0  0  0
M  END
> <id>
EN300-1936273

> <smiles>
COC=1C=CC(CC(C)(C)CO)=C(Br)C1O

> <IUPAC Name>
2-bromo-3-(3-hydroxy-2,2-dimethylpropyl)-6-methoxyphenol

> <CAS>
2229032-71-5

> <URL>
https://www.enaminestore.com/catalog/EN300-1936273

> <ROCS_ShapeQuery>
_x1604L0AP1_x0771L0AP1

> <ROCS_TanimotoCombo>
0.981 

> <ROCS_ShapeTanimoto>
0.491 

> <ROCS_ColorTanimoto>
0.490 

> <ROCS_RefTversky>
0.471 

> <ROCS_RefColorTversky>
0.605 

> <ROCS_RefTverskyCombo>
1.076 

> <ROCS_FitTversky>
1.096 

> <ROCS_FitColorTversky>
0.719 

> <ROCS_FitTverskyCombo>
1.816 

> <ROCS_ColorScore>
-5.817

> <ROCS_Overlap>
791.749

> <ROCS_Rank>
196                 

$$$$
untitled-dbase-341_29
  -OEChem-06052310023D

 26 26  0     1  0  0  0  0  0999 V2000
   -4.3592   12.1711  -31.2103 C   0  0  0  0  0  0  0  0  0  0  0  0
   -4.6037   12.4952  -29.8758 C   0  0  0  0  0  0  0  0  0  0  0  0
   -5.0809   11.1464  -31.8227 C   0  0  0  0  0  0  0  0  0  0  0  0
   -5.5697   11.7946  -29.1537 C   0  0  0  0  0  0  0  0  0  0  0  0
   -6.2914   10.7699  -29.7660 C   0  0  0  0  0  0  0  0  0  0  0  0
   -6.0470   10.4458  -31.1005 C   0  0  0  0  0  0  0  0  0  0  0  0
   -3.7259   11.7675  -33.8542 C   0  0  0  0  0  0  0  0  0  0  0  0
   -5.0150   13.1827  -27.3040 C   0  0  0  0  0  0  0  0  0  0  0  0
   -4.7817   10.8394  -33.2549 C   0  0  2  0  0  0  0  0  0  0  0  0
   -5.7910   10.2303  -35.2516 N   0  0  0  0  0  0  0  0  0  0  0  0
   -7.2315   10.0994  -29.0386 O   0  0  0  0  0  0  0  0  0  0  0  0
   -5.7970   12.1229  -27.8511 O   0  0  0  0  0  0  0  0  0  0  0  0
   -5.9841   10.9727  -34.0193 O   0  0  0  0  0  0  0  0  0  0  0  0
   -7.0427    9.0523  -31.9309 Br  0  0  0  0  0  0  0  0  0  0  0  0
   -3.6045   12.7237  -31.7637 H   0  0  0  0  0  0  0  0  0  0  0  0
   -4.0387   13.2953  -29.4053 H   0  0  0  0  0  0  0  0  0  0  0  0
   -4.0172   12.8175  -33.7497 H   0  0  0  0  0  0  0  0  0  0  0  0
   -3.5659   11.5572  -34.9177 H   0  0  0  0  0  0  0  0  0  0  0  0
   -2.7581   11.6232  -33.3615 H   0  0  0  0  0  0  0  0  0  0  0  0
   -5.2957   13.3423  -26.2600 H   0  0  0  0  0  0  0  0  0  0  0  0
   -5.1823   14.0956  -27.8811 H   0  0  0  0  0  0  0  0  0  0  0  0
   -3.9586   12.9088  -27.3571 H   0  0  0  0  0  0  0  0  0  0  0  0
   -4.4384    9.8007  -33.3872 H   0  0  0  0  0  0  0  0  0  0  0  0
   -6.0000   10.9561  -35.9356 H   0  0  0  0  0  0  0  0  0  0  0  0
   -6.6029    9.6155  -35.2228 H   0  0  0  0  0  0  0  0  0  0  0  0
   -7.2689   10.4528  -28.1369 H   0  0  0  0  0  0  0  0  0  0  0  0
  1  2  1  0  0  0  0
  1  3  2  0  0  0  0
  2  4  2  0  0  0  0
  3  6  1  0  0  0  0
  3  9  1  0  0  0  0
  4  5  1  0  0  0  0
  4 12  1  0  0  0  0
  5  6  2  0  0  0  0
  5 11  1  0  0  0  0
  6 14  1  0  0  0  0
  7  9  1  0  0  0  0
  8 12  1  0  0  0  0
  9 13  1  0  0  0  0
 10 13  1  0  0  0  0
  1 15  1  0  0  0  0
  2 16  1  0  0  0  0
  7 17  1  0  0  0  0
  7 18  1  0  0  0  0
  7 19  1  0  0  0  0
  8 20  1  0  0  0  0
  8 21  1  0  0  0  0
  8 22  1  0  0  0  0
  9 23  1  0  0  0  0
 10 24  1  0  0  0  0
 10 25  1  0  0  0  0
 11 26  1  0  0  0  0
M  END
> <id>
EN300-1935613

> <smiles>
COC=1C=CC(C(C)ON)=C(Br)C1O

> <IUPAC Name>
3-[1-(aminooxy)ethyl]-2-bromo-6-methoxyphenol

> <CAS>
2229278-28-6

> <URL>
https://www.enaminestore.com/catalog/EN300-1935613

> <ROCS_ShapeQuery>
_x1604L0AP1_x0771L0AP1

> <ROCS_TanimotoCombo>
0.981 

> <ROCS_ShapeTanimoto>
0.483 

> <ROCS_ColorTanimoto>
0.497 

> <ROCS_RefTversky>
0.452 

> <ROCS_RefColorTversky>
0.516 

> <ROCS_RefTverskyCombo>
0.968 

> <ROCS_FitTversky>
1.167 

> <ROCS_FitColorTversky>
0.933 

> <ROCS_FitTverskyCombo>
2.099 

> <ROCS_ColorScore>
-4.884

> <ROCS_Overlap>
758.253

> <ROCS_Rank>
197                 

$$$$
untitled-dbase-2003_61
  -OEChem-06052310023D

 21 21  0     0  0  0  0  0  0999 V2000
   -5.0583   11.1395  -31.7927 C   0  0  0  0  0  0  0  0  0  0  0  0
   -5.5721   11.7785  -29.1262 C   0  0  0  0  0  0  0  0  0  0  0  0
   -4.3350   12.1548  -31.1671 C   0  0  0  0  0  0  0  0  0  0  0  0
   -6.2954   10.7631  -29.7519 C   0  0  0  0  0  0  0  0  0  0  0  0
   -4.5919   12.4744  -29.8338 C   0  0  0  0  0  0  0  0  0  0  0  0
   -6.0386   10.4436  -31.0851 C   0  0  0  0  0  0  0  0  0  0  0  0
   -3.3147   12.8791  -31.9087 C   0  0  0  0  0  0  0  0  0  0  0  0
   -1.9946   11.4299  -33.5453 C   0  0  0  0  0  0  0  0  0  0  0  0
   -3.0629   12.4986  -33.3745 C   0  0  0  0  0  0  0  0  0  0  0  0
   -2.6364   13.7924  -31.4086 O   0  0  0  0  0  0  0  0  0  0  0  0
   -7.2464   10.1021  -29.0327 O   0  0  0  0  0  0  0  0  0  0  0  0
   -3.9039   13.4494  -29.2230 F   0  0  0  0  0  0  0  0  0  0  0  0
   -7.0033    9.0714  -31.9677 Br  0  0  0  0  0  0  0  0  0  0  0  0
   -4.8533   10.8960  -32.8330 H   0  0  0  0  0  0  0  0  0  0  0  0
   -5.7662   12.0326  -28.0877 H   0  0  0  0  0  0  0  0  0  0  0  0
   -1.0370   11.7610  -33.1298 H   0  0  0  0  0  0  0  0  0  0  0  0
   -2.2905   10.5106  -33.0306 H   0  0  0  0  0  0  0  0  0  0  0  0
   -1.8389   11.1943  -34.6032 H   0  0  0  0  0  0  0  0  0  0  0  0
   -4.0007   12.1277  -33.8021 H   0  0  0  0  0  0  0  0  0  0  0  0
   -2.7493   13.3972  -33.9166 H   0  0  0  0  0  0  0  0  0  0  0  0
   -7.2876   10.4543  -28.1301 H   0  0  0  0  0  0  0  0  0  0  0  0
  1  3  2  0  0  0  0
  1  6  1  0  0  0  0
  2  4  1  0  0  0  0
  2  5  2  0  0  0  0
  3  5  1  0  0  0  0
  3  7  1  0  0  0  0
  4  6  2  0  0  0  0
  4 11  1  0  0  0  0
  5 12  1  0  0  0  0
  6 13  1  0  0  0  0
  7  9  1  0  0  0  0
  7 10  2  0  0  0  0
  8  9  1  0  0  0  0
  1 14  1  0  0  0  0
  2 15  1  0  0  0  0
  8 16  1  0  0  0  0
  8 17  1  0  0  0  0
  8 18  1  0  0  0  0
  9 19  1  0  0  0  0
  9 20  1  0  0  0  0
 11 21  1  0  0  0  0
M  END
> <id>
EN300-1276577

> <smiles>
CCC(=O)C=1C=C(Br)C(O)=CC1F

> <MDLNUMBER>
MFCD24122857

> <IUPAC Name>
1-(5-bromo-2-fluoro-4-hydroxyphenyl)propan-1-one

> <CAS>
1541607-36-6

> <URL>
https://www.enaminestore.com/catalog/EN300-1276577

> <ROCS_ShapeQuery>
_x1604L0AP1_x0771L0AP1

> <ROCS_TanimotoCombo>
0.981 

> <ROCS_ShapeTanimoto>
0.530 

> <ROCS_ColorTanimoto>
0.451 

> <ROCS_RefTversky>
0.473 

> <ROCS_RefColorTversky>
0.513 

> <ROCS_RefTverskyCombo>
0.986 

> <ROCS_FitTversky>
1.294 

> <ROCS_FitColorTversky>
0.789 

> <ROCS_FitTverskyCombo>
2.082 

> <ROCS_ColorScore>
-4.878

> <ROCS_Overlap>
792.503

> <ROCS_Rank>
198                 

$$$$
untitled-dbase-807_6
  -OEChem-06052310023D

 20 20  0     1  0  0  0  0  0999 V2000
   -6.9152   10.7583  -33.3963 C   0  0  0  0  0  0  0  0  0  0  0  0
   -5.1311   11.8361  -31.6171 C   0  0  0  0  0  0  0  0  0  0  0  0
   -4.2590   12.2671  -29.4056 C   0  0  0  0  0  0  0  0  0  0  0  0
   -6.1414   11.0485  -31.0652 C   0  0  0  0  0  0  0  0  0  0  0  0
   -6.2105   10.8703  -29.6835 C   0  0  0  0  0  0  0  0  0  0  0  0
   -4.1898   12.4454  -30.7873 C   0  0  0  0  0  0  0  0  0  0  0  0
   -5.2694   11.4796  -28.8537 C   0  0  0  0  0  0  0  0  0  0  0  0
   -7.1812    8.8735  -31.8193 C   0  0  0  0  0  0  0  0  0  0  0  0
   -7.1389   10.4053  -31.9718 C   0  0  2  0  0  0  0  0  0  0  0  0
   -6.7298   11.0438  -34.5059 N   0  0  0  0  0  0  0  0  0  0  0  0
   -7.2049   10.0966  -29.1588 O   0  0  0  0  0  0  0  0  0  0  0  0
   -2.9432   13.4170  -31.4688 Cl  0  0  0  0  0  0  0  0  0  0  0  0
   -5.3302   11.2608  -26.9713 Br  0  0  0  0  0  0  0  0  0  0  0  0
   -5.0809   11.9730  -32.6952 H   0  0  0  0  0  0  0  0  0  0  0  0
   -3.5228   12.7436  -28.7620 H   0  0  0  0  0  0  0  0  0  0  0  0
   -6.2039    8.4369  -32.0540 H   0  0  0  0  0  0  0  0  0  0  0  0
   -7.9211    8.4169  -32.4870 H   0  0  0  0  0  0  0  0  0  0  0  0
   -7.4440    8.5789  -30.7966 H   0  0  0  0  0  0  0  0  0  0  0  0
   -8.1555   10.7601  -31.7185 H   0  0  0  0  0  0  0  0  0  0  0  0
   -7.1268   10.0643  -28.1932 H   0  0  0  0  0  0  0  0  0  0  0  0
  1  9  1  0  0  0  0
  1 10  3  0  0  0  0
  2  4  2  0  0  0  0
  2  6  1  0  0  0  0
  3  6  2  0  0  0  0
  3  7  1  0  0  0  0
  4  5  1  0  0  0  0
  4  9  1  0  0  0  0
  5  7  2  0  0  0  0
  5 11  1  0  0  0  0
  6 12  1  0  0  0  0
  7 13  1  0  0  0  0
  8  9  1  0  0  0  0
  2 14  1  0  0  0  0
  3 15  1  0  0  0  0
  8 16  1  0  0  0  0
  8 17  1  0  0  0  0
  8 18  1  0  0  0  0
  9 19  1  0  0  0  0
 11 20  1  0  0  0  0
M  END
> <id>
EN300-1712572

> <smiles>
CC(C#N)C=1C=C(Cl)C=C(Br)C1O

> <MDLNUMBER>
MFCD28022460

> <IUPAC Name>
2-(3-bromo-5-chloro-2-hydroxyphenyl)propanenitrile

> <CAS>
1823856-31-0

> <URL>
https://www.enaminestore.com/catalog/EN300-1712572

> <ROCS_ShapeQuery>
_x1604L0AP1_x0771L0AP1

> <ROCS_TanimotoCombo>
0.980 

> <ROCS_ShapeTanimoto>
0.551 

> <ROCS_ColorTanimoto>
0.429 

> <ROCS_RefTversky>
0.482 

> <ROCS_RefColorTversky>
0.495 

> <ROCS_RefTverskyCombo>
0.978 

> <ROCS_FitTversky>
1.352 

> <ROCS_FitColorTversky>
0.762 

> <ROCS_FitTverskyCombo>
2.114 

> <ROCS_ColorScore>
-4.714

> <ROCS_Overlap>
807.664

> <ROCS_Rank>
199                 

$$$$
untitled-dbase-2108_78
  -OEChem-06052310023D

 24 24  0     0  0  0  0  0  0999 V2000
   -4.6391   12.5215  -29.9967 C   0  0  0  0  0  0  0  0  0  0  0  0
   -4.4554   12.1929  -31.3398 C   0  0  0  0  0  0  0  0  0  0  0  0
   -5.5585   11.8115  -29.2244 C   0  0  0  0  0  0  0  0  0  0  0  0
   -5.1912   11.1544  -31.9106 C   0  0  0  0  0  0  0  0  0  0  0  0
   -6.2943   10.7730  -29.7953 C   0  0  0  0  0  0  0  0  0  0  0  0
   -6.1106   10.4445  -31.1384 C   0  0  0  0  0  0  0  0  0  0  0  0
   -6.0199   10.6179  -35.6428 C   0  0  0  0  0  0  0  0  0  0  0  0
   -6.1493    9.1760  -36.0033 C   0  0  0  0  0  0  0  0  0  0  0  0
   -4.9557   10.8395  -33.3652 C   0  0  0  0  0  0  0  0  0  0  0  0
   -6.2431   10.9419  -34.1812 C   0  0  0  0  0  0  0  0  0  0  0  0
   -5.7473   11.4424  -36.5058 O   0  0  0  0  0  0  0  0  0  0  0  0
   -7.1841   10.1021  -29.0097 O   0  0  0  0  0  0  0  0  0  0  0  0
   -7.1198    9.0256  -31.9061 Br  0  0  0  0  0  0  0  0  0  0  0  0
   -4.0666   13.3304  -29.5523 H   0  0  0  0  0  0  0  0  0  0  0  0
   -3.7364   12.7529  -31.9323 H   0  0  0  0  0  0  0  0  0  0  0  0
   -5.6964   12.0738  -28.1788 H   0  0  0  0  0  0  0  0  0  0  0  0
   -7.1777    8.9021  -36.2866 H   0  0  0  0  0  0  0  0  0  0  0  0
   -5.5218    8.8989  -36.8649 H   0  0  0  0  0  0  0  0  0  0  0  0
   -5.8696    8.4785  -35.1986 H   0  0  0  0  0  0  0  0  0  0  0  0
   -4.1949   11.5205  -33.7686 H   0  0  0  0  0  0  0  0  0  0  0  0
   -4.5260    9.8335  -33.4572 H   0  0  0  0  0  0  0  0  0  0  0  0
   -6.6520   11.9573  -34.1170 H   0  0  0  0  0  0  0  0  0  0  0  0
   -6.9956   10.2462  -33.7910 H   0  0  0  0  0  0  0  0  0  0  0  0
   -7.6271    9.4093  -29.5236 H   0  0  0  0  0  0  0  0  0  0  0  0
  1  2  1  0  0  0  0
  1  3  2  0  0  0  0
  2  4  2  0  0  0  0
  3  5  1  0  0  0  0
  4  6  1  0  0  0  0
  4  9  1  0  0  0  0
  5  6  2  0  0  0  0
  5 12  1  0  0  0  0
  6 13  1  0  0  0  0
  7  8  1  0  0  0  0
  7 10  1  0  0  0  0
  7 11  2  0  0  0  0
  9 10  1  0  0  0  0
  1 14  1  0  0  0  0
  2 15  1  0  0  0  0
  3 16  1  0  0  0  0
  8 17  1  0  0  0  0
  8 18  1  0  0  0  0
  8 19  1  0  0  0  0
  9 20  1  0  0  0  0
  9 21  1  0  0  0  0
 10 22  1  0  0  0  0
 10 23  1  0  0  0  0
 12 24  1  0  0  0  0
M  END
> <id>
EN300-1893665

> <smiles>
CC(=O)CCC=1C=CC=C(O)C1Br

> <MDLNUMBER>
MFCD26654040

> <IUPAC Name>
4-(2-bromo-3-hydroxyphenyl)butan-2-one

> <CAS>
1531046-93-1

> <URL>
https://www.enaminestore.com/catalog/EN300-1893665

> <ROCS_ShapeQuery>
_x1604L0AP1_x0771L0AP1

> <ROCS_TanimotoCombo>
0.980 

> <ROCS_ShapeTanimoto>
0.489 

> <ROCS_ColorTanimoto>
0.492 

> <ROCS_RefTversky>
0.446 

> <ROCS_RefColorTversky>
0.512 

> <ROCS_RefTverskyCombo>
0.958 

> <ROCS_FitTversky>
1.246 

> <ROCS_FitColorTversky>
0.926 

> <ROCS_FitTverskyCombo>
2.172 

> <ROCS_ColorScore>
-4.846

> <ROCS_Overlap>
746.464

> <ROCS_Rank>
200                 

$$$$
untitled-dbase-275_64
  -OEChem-06052310023D

 21 21  0     0  0  0  0  0  0999 V2000
   -4.6117   12.4952  -29.8717 C   0  0  0  0  0  0  0  0  0  0  0  0
   -4.3672   12.1751  -31.2071 C   0  0  0  0  0  0  0  0  0  0  0  0
   -5.5765   11.7912  -29.1511 C   0  0  0  0  0  0  0  0  0  0  0  0
   -5.0875   11.1511  -31.8220 C   0  0  0  0  0  0  0  0  0  0  0  0
   -6.2969   10.7672  -29.7660 C   0  0  0  0  0  0  0  0  0  0  0  0
   -6.0524   10.4471  -31.1014 C   0  0  0  0  0  0  0  0  0  0  0  0
   -5.7507   10.6566  -35.5916 C   0  0  0  0  0  0  0  0  0  0  0  0
   -4.7881   10.8473  -33.2548 C   0  0  0  0  0  0  0  0  0  0  0  0
   -6.0294   10.9699  -34.1412 C   0  0  0  0  0  0  0  0  0  0  0  0
   -6.2631    9.7363  -36.2194 O   0  0  0  0  0  0  0  0  0  0  0  0
   -7.2323   10.1017  -29.0304 O   0  0  0  0  0  0  0  0  0  0  0  0
   -7.0412    9.0479  -31.9295 Br  0  0  0  0  0  0  0  0  0  0  0  0
   -4.0511   13.2929  -29.3930 H   0  0  0  0  0  0  0  0  0  0  0  0
   -3.6131   12.7303  -31.7591 H   0  0  0  0  0  0  0  0  0  0  0  0
   -5.7617   12.0469  -28.1112 H   0  0  0  0  0  0  0  0  0  0  0  0
   -5.0273   11.3311  -36.0814 H   0  0  0  0  0  0  0  0  0  0  0  0
   -3.9977   11.5188  -33.6266 H   0  0  0  0  0  0  0  0  0  0  0  0
   -4.3646    9.8343  -33.3457 H   0  0  0  0  0  0  0  0  0  0  0  0
   -6.4347   11.9871  -34.0966 H   0  0  0  0  0  0  0  0  0  0  0  0
   -6.8132   10.2832  -33.8018 H   0  0  0  0  0  0  0  0  0  0  0  0
   -7.6587    9.4190  -29.5712 H   0  0  0  0  0  0  0  0  0  0  0  0
  1  2  2  0  0  0  0
  1  3  1  0  0  0  0
  2  4  1  0  0  0  0
  3  5  2  0  0  0  0
  4  6  2  0  0  0  0
  4  8  1  0  0  0  0
  5  6  1  0  0  0  0
  5 11  1  0  0  0  0
  6 12  1  0  0  0  0
  7  9  1  0  0  0  0
  7 10  2  0  0  0  0
  8  9  1  0  0  0  0
  1 13  1  0  0  0  0
  2 14  1  0  0  0  0
  3 15  1  0  0  0  0
  7 16  1  0  0  0  0
  8 17  1  0  0  0  0
  8 18  1  0  0  0  0
  9 19  1  0  0  0  0
  9 20  1  0  0  0  0
 11 21  1  0  0  0  0
M  END
> <id>
EN300-1894743

> <smiles>
OC=1C=CC=C(CCC=O)C1Br

> <MDLNUMBER>
MFCD18391528

> <IUPAC Name>
3-(2-bromo-3-hydroxyphenyl)propanal

> <CAS>
1261479-02-0

> <URL>
https://www.enaminestore.com/catalog/EN300-1894743

> <ROCS_ShapeQuery>
_x1604L0AP1_x0771L0AP1

> <ROCS_TanimotoCombo>
0.980 

> <ROCS_ShapeTanimoto>
0.483 

> <ROCS_ColorTanimoto>
0.497 

> <ROCS_RefTversky>
0.434 

> <ROCS_RefColorTversky>
0.516 

> <ROCS_RefTverskyCombo>
0.950 

> <ROCS_FitTversky>
1.301 

> <ROCS_FitColorTversky>
0.932 

> <ROCS_FitTverskyCombo>
2.233 

> <ROCS_ColorScore>
-4.881

> <ROCS_Overlap>
726.705

> <ROCS_Rank>
201                 

$$$$
untitled-dbase-147_52
  -OEChem-06052310023D

 24 24  0     0  0  0  0  0  0999 V2000
   -5.0554   11.1355  -31.7914 C   0  0  0  0  0  0  0  0  0  0  0  0
   -5.5693   11.7752  -29.1251 C   0  0  0  0  0  0  0  0  0  0  0  0
   -4.3307   12.1496  -31.1654 C   0  0  0  0  0  0  0  0  0  0  0  0
   -4.5876   12.4695  -29.8322 C   0  0  0  0  0  0  0  0  0  0  0  0
   -6.2940   10.7611  -29.7512 C   0  0  0  0  0  0  0  0  0  0  0  0
   -6.0371   10.4413  -31.0843 C   0  0  0  0  0  0  0  0  0  0  0  0
   -3.3117   12.8595  -31.9265 C   0  0  0  0  0  0  0  0  0  0  0  0
   -3.8273   13.5521  -29.1383 C   0  0  0  0  0  0  0  0  0  0  0  0
   -2.0199   11.3811  -33.5568 C   0  0  0  0  0  0  0  0  0  0  0  0
   -3.0788   12.4597  -33.3893 C   0  0  0  0  0  0  0  0  0  0  0  0
   -2.6238   13.7728  -31.4427 O   0  0  0  0  0  0  0  0  0  0  0  0
   -7.2468   10.1016  -29.0330 O   0  0  0  0  0  0  0  0  0  0  0  0
   -7.0027    9.0696  -31.9667 Br  0  0  0  0  0  0  0  0  0  0  0  0
   -4.8502   10.8903  -32.8315 H   0  0  0  0  0  0  0  0  0  0  0  0
   -5.7720   12.0222  -28.0856 H   0  0  0  0  0  0  0  0  0  0  0  0
   -2.9311   13.1401  -28.6605 H   0  0  0  0  0  0  0  0  0  0  0  0
   -3.5199   14.3343  -29.8430 H   0  0  0  0  0  0  0  0  0  0  0  0
   -4.4418   14.0375  -28.3701 H   0  0  0  0  0  0  0  0  0  0  0  0
   -1.0559   11.7105  -33.1551 H   0  0  0  0  0  0  0  0  0  0  0  0
   -2.3173   10.4707  -33.0273 H   0  0  0  0  0  0  0  0  0  0  0  0
   -1.8766   11.1307  -34.6131 H   0  0  0  0  0  0  0  0  0  0  0  0
   -4.0235   12.0902  -33.8027 H   0  0  0  0  0  0  0  0  0  0  0  0
   -2.7642   13.3490  -33.9461 H   0  0  0  0  0  0  0  0  0  0  0  0
   -7.2883   10.4536  -28.1304 H   0  0  0  0  0  0  0  0  0  0  0  0
  1  3  2  0  0  0  0
  1  6  1  0  0  0  0
  2  4  2  0  0  0  0
  2  5  1  0  0  0  0
  3  4  1  0  0  0  0
  3  7  1  0  0  0  0
  4  8  1  0  0  0  0
  5  6  2  0  0  0  0
  5 12  1  0  0  0  0
  6 13  1  0  0  0  0
  7 10  1  0  0  0  0
  7 11  2  0  0  0  0
  9 10  1  0  0  0  0
  1 14  1  0  0  0  0
  2 15  1  0  0  0  0
  8 16  1  0  0  0  0
  8 17  1  0  0  0  0
  8 18  1  0  0  0  0
  9 19  1  0  0  0  0
  9 20  1  0  0  0  0
  9 21  1  0  0  0  0
 10 22  1  0  0  0  0
 10 23  1  0  0  0  0
 12 24  1  0  0  0  0
M  END
> <id>
EN300-1276697

> <smiles>
CCC(=O)C=1C=C(Br)C(O)=CC1C

> <IUPAC Name>
1-(5-bromo-4-hydroxy-2-methylphenyl)propan-1-one

> <CAS>
2110498-59-2

> <URL>
https://www.enaminestore.com/catalog/EN300-1276697

> <ROCS_ShapeQuery>
_x1604L0AP1_x0771L0AP1

> <ROCS_TanimotoCombo>
0.980 

> <ROCS_ShapeTanimoto>
0.529 

> <ROCS_ColorTanimoto>
0.451 

> <ROCS_RefTversky>
0.471 

> <ROCS_RefColorTversky>
0.513 

> <ROCS_RefTverskyCombo>
0.984 

> <ROCS_FitTversky>
1.303 

> <ROCS_FitColorTversky>
0.789 

> <ROCS_FitTverskyCombo>
2.092 

> <ROCS_ColorScore>
-4.878

> <ROCS_Overlap>
788.917

> <ROCS_Rank>
202                 

$$$$
untitled-dbase-1639_98
  -OEChem-06052310023D

 24 25  0     0  0  0  0  0  0999 V2000
   -4.6098   12.4921  -29.8752 C   0  0  0  0  0  0  0  0  0  0  0  0
   -4.3627   12.1674  -31.2090 C   0  0  0  0  0  0  0  0  0  0  0  0
   -5.5765   11.7910  -29.1542 C   0  0  0  0  0  0  0  0  0  0  0  0
   -5.0822   11.1416  -31.8219 C   0  0  0  0  0  0  0  0  0  0  0  0
   -6.2961   10.7653  -29.7672 C   0  0  0  0  0  0  0  0  0  0  0  0
   -6.0490   10.4406  -31.1010 C   0  0  0  0  0  0  0  0  0  0  0  0
   -5.8557   10.6342  -35.6264 C   0  0  0  0  0  0  0  0  0  0  0  0
   -6.5815    9.6651  -34.7348 C   0  0  0  0  0  0  0  0  0  0  0  0
   -5.9772   10.9144  -34.1530 C   0  0  0  0  0  0  0  0  0  0  0  0
   -4.7754   10.8282  -33.2748 C   0  0  0  0  0  0  0  0  0  0  0  0
   -7.2334   10.1027  -29.0313 O   0  0  0  0  0  0  0  0  0  0  0  0
   -6.8993   11.9533  -33.7839 O   0  0  0  0  0  0  0  0  0  0  0  0
   -7.0367    9.0391  -31.9265 Br  0  0  0  0  0  0  0  0  0  0  0  0
   -4.0499   13.2911  -29.3980 H   0  0  0  0  0  0  0  0  0  0  0  0
   -3.6072   12.7203  -31.7613 H   0  0  0  0  0  0  0  0  0  0  0  0
   -5.7638   12.0503  -28.1156 H   0  0  0  0  0  0  0  0  0  0  0  0
   -4.8924   10.3308  -36.0184 H   0  0  0  0  0  0  0  0  0  0  0  0
   -6.4482   11.2281  -36.3118 H   0  0  0  0  0  0  0  0  0  0  0  0
   -7.6599    9.6101  -34.8235 H   0  0  0  0  0  0  0  0  0  0  0  0
   -6.1025    8.7150  -34.5311 H   0  0  0  0  0  0  0  0  0  0  0  0
   -3.9786   11.5162  -33.6180 H   0  0  0  0  0  0  0  0  0  0  0  0
   -4.3152    9.8222  -33.3235 H   0  0  0  0  0  0  0  0  0  0  0  0
   -7.6590    9.4185  -29.5707 H   0  0  0  0  0  0  0  0  0  0  0  0
   -6.8618   12.0095  -32.8199 H   0  0  0  0  0  0  0  0  0  0  0  0
  1  2  2  0  0  0  0
  1  3  1  0  0  0  0
  2  4  1  0  0  0  0
  3  5  2  0  0  0  0
  4  6  2  0  0  0  0
  4 10  1  0  0  0  0
  5  6  1  0  0  0  0
  5 11  1  0  0  0  0
  6 13  1  0  0  0  0
  7  8  1  0  0  0  0
  7  9  1  0  0  0  0
  8  9  1  0  0  0  0
  9 10  1  0  0  0  0
  9 12  1  0  0  0  0
  1 14  1  0  0  0  0
  2 15  1  0  0  0  0
  3 16  1  0  0  0  0
  7 17  1  0  0  0  0
  7 18  1  0  0  0  0
  8 19  1  0  0  0  0
  8 20  1  0  0  0  0
 10 21  1  0  0  0  0
 10 22  1  0  0  0  0
 11 23  1  0  0  0  0
 12 24  1  0  0  0  0
M  END
> <id>
EN300-1904808

> <smiles>
OC=1C=CC=C(CC2(O)CC2)C1Br

> <IUPAC Name>
2-bromo-3-[(1-hydroxycyclopropyl)methyl]phenol

> <CAS>
2228226-54-6

> <URL>
https://www.enaminestore.com/catalog/EN300-1904808

> <ROCS_ShapeQuery>
_x1604L0AP1_x0771L0AP1

> <ROCS_TanimotoCombo>
0.980 

> <ROCS_ShapeTanimoto>
0.528 

> <ROCS_ColorTanimoto>
0.451 

> <ROCS_RefTversky>
0.472 

> <ROCS_RefColorTversky>
0.513 

> <ROCS_RefTverskyCombo>
0.985 

> <ROCS_FitTversky>
1.293 

> <ROCS_FitColorTversky>
0.789 

> <ROCS_FitTverskyCombo>
2.082 

> <ROCS_ColorScore>
-4.881

> <ROCS_Overlap>
790.831

> <ROCS_Rank>
203                 

$$$$
untitled-dbase-1031_68
  -OEChem-06052310023D

 28 28  0     0  0  0  0  0  0999 V2000
   -4.6051   12.4872  -29.8268 C   0  0  0  0  0  0  0  0  0  0  0  0
   -5.5831   11.7860  -29.1215 C   0  0  0  0  0  0  0  0  0  0  0  0
   -5.0611   11.1510  -31.7874 C   0  0  0  0  0  0  0  0  0  0  0  0
   -4.3441   12.1697  -31.1598 C   0  0  0  0  0  0  0  0  0  0  0  0
   -6.3001   10.7673  -29.7491 C   0  0  0  0  0  0  0  0  0  0  0  0
   -6.0391   10.4498  -31.0821 C   0  0  0  0  0  0  0  0  0  0  0  0
   -3.8031   14.1990  -32.6661 C   0  0  0  0  0  0  0  0  0  0  0  0
   -2.1798   13.4305  -30.9482 C   0  0  0  0  0  0  0  0  0  0  0  0
   -2.5961   12.0239  -32.9915 C   0  0  0  0  0  0  0  0  0  0  0  0
   -3.2638   12.9445  -31.9375 C   0  0  0  0  0  0  0  0  0  0  0  0
   -2.7141   11.0538  -35.0942 N   0  0  0  0  0  0  0  0  0  0  0  0
   -7.2480   10.1002  -29.0317 O   0  0  0  0  0  0  0  0  0  0  0  0
   -3.4038   11.9284  -34.1599 O   0  0  0  0  0  0  0  0  0  0  0  0
   -6.9927    9.0708  -31.9661 Br  0  0  0  0  0  0  0  0  0  0  0  0
   -4.0519   13.2791  -29.3288 H   0  0  0  0  0  0  0  0  0  0  0  0
   -5.7810   12.0390  -28.0833 H   0  0  0  0  0  0  0  0  0  0  0  0
   -4.8511   10.9106  -32.8275 H   0  0  0  0  0  0  0  0  0  0  0  0
   -3.0061   14.7226  -33.2072 H   0  0  0  0  0  0  0  0  0  0  0  0
   -4.5672   13.9257  -33.4038 H   0  0  0  0  0  0  0  0  0  0  0  0
   -4.2647   14.9117  -31.9734 H   0  0  0  0  0  0  0  0  0  0  0  0
   -1.3914   13.9880  -31.4677 H   0  0  0  0  0  0  0  0  0  0  0  0
   -1.7065   12.5854  -30.4344 H   0  0  0  0  0  0  0  0  0  0  0  0
   -2.5905   14.0867  -30.1730 H   0  0  0  0  0  0  0  0  0  0  0  0
   -1.6226   12.4289  -33.2918 H   0  0  0  0  0  0  0  0  0  0  0  0
   -2.4273   11.0115  -32.6098 H   0  0  0  0  0  0  0  0  0  0  0  0
   -2.6716   11.6569  -35.9144 H   0  0  0  0  0  0  0  0  0  0  0  0
   -3.4435   10.3662  -35.2764 H   0  0  0  0  0  0  0  0  0  0  0  0
   -7.6686    9.4221  -29.5829 H   0  0  0  0  0  0  0  0  0  0  0  0
  1  2  1  0  0  0  0
  1  4  2  0  0  0  0
  2  5  2  0  0  0  0
  3  4  1  0  0  0  0
  3  6  2  0  0  0  0
  4 10  1  0  0  0  0
  5  6  1  0  0  0  0
  5 12  1  0  0  0  0
  6 14  1  0  0  0  0
  7 10  1  0  0  0  0
  8 10  1  0  0  0  0
  9 10  1  0  0  0  0
  9 13  1  0  0  0  0
 11 13  1  0  0  0  0
  1 15  1  0  0  0  0
  2 16  1  0  0  0  0
  3 17  1  0  0  0  0
  7 18  1  0  0  0  0
  7 19  1  0  0  0  0
  7 20  1  0  0  0  0
  8 21  1  0  0  0  0
  8 22  1  0  0  0  0
  8 23  1  0  0  0  0
  9 24  1  0  0  0  0
  9 25  1  0  0  0  0
 11 26  1  0  0  0  0
 11 27  1  0  0  0  0
 12 28  1  0  0  0  0
M  END
> <id>
EN300-1906342

> <smiles>
CC(C)(CON)C=1C=CC(O)=C(Br)C1

> <IUPAC Name>
4-[1-(aminooxy)-2-methylpropan-2-yl]-2-bromophenol

> <CAS>
2228846-56-6

> <URL>
https://www.enaminestore.com/catalog/EN300-1906342

> <ROCS_ShapeQuery>
_x1604L0AP1_x0771L0AP1

> <ROCS_TanimotoCombo>
0.979 

> <ROCS_ShapeTanimoto>
0.483 

> <ROCS_ColorTanimoto>
0.497 

> <ROCS_RefTversky>
0.450 

> <ROCS_RefColorTversky>
0.515 

> <ROCS_RefTverskyCombo>
0.965 

> <ROCS_FitTversky>
1.181 

> <ROCS_FitColorTversky>
0.932 

> <ROCS_FitTverskyCombo>
2.113 

> <ROCS_ColorScore>
-4.877

> <ROCS_Overlap>
754.124

> <ROCS_Rank>
204                 

$$$$
untitled-dbase-251_0
  -OEChem-06052310023D

 13 13  0     0  0  0  0  0  0999 V2000
   -4.5984   12.4921  -29.8304 C   0  0  0  0  0  0  0  0  0  0  0  0
   -5.5749   11.7833  -29.1306 C   0  0  0  0  0  0  0  0  0  0  0  0
   -4.3367   12.1856  -31.1658 C   0  0  0  0  0  0  0  0  0  0  0  0
   -6.2896   10.7680  -29.7661 C   0  0  0  0  0  0  0  0  0  0  0  0
   -5.0514   11.1702  -31.8013 C   0  0  0  0  0  0  0  0  0  0  0  0
   -6.0279   10.4614  -31.1015 C   0  0  0  0  0  0  0  0  0  0  0  0
   -7.2357   10.0996  -29.0465 O   0  0  0  0  0  0  0  0  0  0  0  0
   -4.6678   10.8500  -33.4576 Cl  0  0  0  0  0  0  0  0  0  0  0  0
   -7.0284    9.0652  -31.9312 Br  0  0  0  0  0  0  0  0  0  0  0  0
   -4.0419   13.2822  -29.3355 H   0  0  0  0  0  0  0  0  0  0  0  0
   -5.7731   12.0278  -28.0906 H   0  0  0  0  0  0  0  0  0  0  0  0
   -3.5716   12.7486  -31.6948 H   0  0  0  0  0  0  0  0  0  0  0  0
   -7.6583    9.4232  -29.5979 H   0  0  0  0  0  0  0  0  0  0  0  0
  1  2  1  0  0  0  0
  1  3  2  0  0  0  0
  2  4  2  0  0  0  0
  3  5  1  0  0  0  0
  4  6  1  0  0  0  0
  4  7  1  0  0  0  0
  5  6  2  0  0  0  0
  5  8  1  0  0  0  0
  6  9  1  0  0  0  0
  1 10  1  0  0  0  0
  2 11  1  0  0  0  0
  3 12  1  0  0  0  0
  7 13  1  0  0  0  0
M  END
> <id>
EN300-624354

> <smiles>
OC=1C=CC=C(Cl)C1Br

> <MDLNUMBER>
MFCD04037216

> <IUPAC Name>
2-bromo-3-chlorophenol

> <CAS>
855836-62-3

> <URL>
https://www.enaminestore.com/catalog/EN300-624354

> <ROCS_ShapeQuery>
_x1604L0AP1_x0771L0AP1

> <ROCS_TanimotoCombo>
0.979 

> <ROCS_ShapeTanimoto>
0.425 

> <ROCS_ColorTanimoto>
0.554 

> <ROCS_RefTversky>
0.376 

> <ROCS_RefColorTversky>
0.519 

> <ROCS_RefTverskyCombo>
0.895 

> <ROCS_FitTversky>
1.440 

> <ROCS_FitColorTversky>
1.140 

> <ROCS_FitTverskyCombo>
2.580 

> <ROCS_ColorScore>
-4.885

> <ROCS_Overlap>
626.516

> <ROCS_Rank>
205                 

$$$$
untitled-dbase-778_8
  -OEChem-06052310023D

 25 26  0     0  0  0  0  0  0999 V2000
   -4.6146   12.4987  -29.8589 C   0  0  0  0  0  0  0  0  0  0  0  0
   -4.3642   12.1812  -31.1938 C   0  0  0  0  0  0  0  0  0  0  0  0
   -5.5809   11.7916  -29.1432 C   0  0  0  0  0  0  0  0  0  0  0  0
   -5.0800   11.1567  -31.8132 C   0  0  0  0  0  0  0  0  0  0  0  0
   -6.2967   10.7671  -29.7626 C   0  0  0  0  0  0  0  0  0  0  0  0
   -6.0463   10.4497  -31.0976 C   0  0  0  0  0  0  0  0  0  0  0  0
   -5.9062   11.0030  -34.1821 C   0  0  0  0  0  0  0  0  0  0  0  0
   -3.7621    9.7653  -33.5365 C   0  0  0  0  0  0  0  0  0  0  0  0
   -3.3900   11.1954  -33.7586 C   0  0  0  0  0  0  0  0  0  0  0  0
   -4.7781   10.8556  -33.2457 C   0  0  0  0  0  0  0  0  0  0  0  0
   -6.5337   12.3674  -34.2762 C   0  0  0  0  0  0  0  0  0  0  0  0
   -6.3136   10.0576  -34.8554 O   0  0  0  0  0  0  0  0  0  0  0  0
   -7.2349   10.1004  -29.0317 O   0  0  0  0  0  0  0  0  0  0  0  0
   -7.0353    9.0530  -31.9314 Br  0  0  0  0  0  0  0  0  0  0  0  0
   -4.0566   13.2963  -29.3772 H   0  0  0  0  0  0  0  0  0  0  0  0
   -3.6079   12.7382  -31.7410 H   0  0  0  0  0  0  0  0  0  0  0  0
   -5.7701   12.0454  -28.1038 H   0  0  0  0  0  0  0  0  0  0  0  0
   -3.9118    9.1429  -34.4114 H   0  0  0  0  0  0  0  0  0  0  0  0
   -3.2956    9.2472  -32.7064 H   0  0  0  0  0  0  0  0  0  0  0  0
   -2.6725   11.6396  -33.0782 H   0  0  0  0  0  0  0  0  0  0  0  0
   -3.2893   11.5357  -34.7830 H   0  0  0  0  0  0  0  0  0  0  0  0
   -6.0305   12.9521  -35.0514 H   0  0  0  0  0  0  0  0  0  0  0  0
   -6.4296   12.8852  -33.3196 H   0  0  0  0  0  0  0  0  0  0  0  0
   -7.5898   12.2677  -34.5384 H   0  0  0  0  0  0  0  0  0  0  0  0
   -7.6579    9.4174  -29.5747 H   0  0  0  0  0  0  0  0  0  0  0  0
  1  2  1  0  0  0  0
  1  3  2  0  0  0  0
  2  4  2  0  0  0  0
  3  5  1  0  0  0  0
  4  6  1  0  0  0  0
  4 10  1  0  0  0  0
  5  6  2  0  0  0  0
  5 13  1  0  0  0  0
  6 14  1  0  0  0  0
  7 10  1  0  0  0  0
  7 11  1  0  0  0  0
  7 12  2  0  0  0  0
  8  9  1  0  0  0  0
  8 10  1  0  0  0  0
  9 10  1  0  0  0  0
  1 15  1  0  0  0  0
  2 16  1  0  0  0  0
  3 17  1  0  0  0  0
  8 18  1  0  0  0  0
  8 19  1  0  0  0  0
  9 20  1  0  0  0  0
  9 21  1  0  0  0  0
 11 22  1  0  0  0  0
 11 23  1  0  0  0  0
 11 24  1  0  0  0  0
 13 25  1  0  0  0  0
M  END
> <id>
EN300-1904614

> <smiles>
CC(=O)C1(CC1)C=2C=CC=C(O)C2Br

> <IUPAC Name>
1-[1-(2-bromo-3-hydroxyphenyl)cyclopropyl]ethan-1-one

> <CAS>
2228344-40-7

> <URL>
https://www.enaminestore.com/catalog/EN300-1904614

> <ROCS_ShapeQuery>
_x1604L0AP1_x0771L0AP1

> <ROCS_TanimotoCombo>
0.979 

> <ROCS_ShapeTanimoto>
0.482 

> <ROCS_ColorTanimoto>
0.497 

> <ROCS_RefTversky>
0.453 

> <ROCS_RefColorTversky>
0.516 

> <ROCS_RefTverskyCombo>
0.969 

> <ROCS_FitTversky>
1.152 

> <ROCS_FitColorTversky>
0.933 

> <ROCS_FitTverskyCombo>
2.084 

> <ROCS_ColorScore>
-4.882

> <ROCS_Overlap>
760.100

> <ROCS_Rank>
206                 

$$$$
untitled-dbase-1685_1
  -OEChem-06052310023D

 17 17  0     0  0  0  0  0  0999 V2000
   -4.6022   12.4840  -29.8490 C   0  0  0  0  0  0  0  0  0  0  0  0
   -5.5764   11.7850  -29.1364 C   0  0  0  0  0  0  0  0  0  0  0  0
   -5.0724   11.1458  -31.8047 C   0  0  0  0  0  0  0  0  0  0  0  0
   -4.3503   12.1645  -31.1832 C   0  0  0  0  0  0  0  0  0  0  0  0
   -6.2986   10.7662  -29.7579 C   0  0  0  0  0  0  0  0  0  0  0  0
   -6.0466   10.4466  -31.0921 C   0  0  0  0  0  0  0  0  0  0  0  0
   -2.2380   13.3962  -31.3736 C   0  0  0  0  0  0  0  0  0  0  0  0
   -3.3340   12.8936  -31.9253 C   0  0  0  0  0  0  0  0  0  0  0  0
   -7.2421   10.1008  -29.0331 O   0  0  0  0  0  0  0  0  0  0  0  0
   -7.0074    9.0669  -31.9674 Br  0  0  0  0  0  0  0  0  0  0  0  0
   -4.0479   13.2761  -29.3509 H   0  0  0  0  0  0  0  0  0  0  0  0
   -5.7674   12.0403  -28.0974 H   0  0  0  0  0  0  0  0  0  0  0  0
   -4.8736   10.8992  -32.8462 H   0  0  0  0  0  0  0  0  0  0  0  0
   -1.5254   13.9165  -32.0066 H   0  0  0  0  0  0  0  0  0  0  0  0
   -1.9866   13.3158  -30.3227 H   0  0  0  0  0  0  0  0  0  0  0  0
   -3.4842   12.9980  -32.9874 H   0  0  0  0  0  0  0  0  0  0  0  0
   -7.6672    9.4225  -29.5806 H   0  0  0  0  0  0  0  0  0  0  0  0
  1  2  1  0  0  0  0
  1  4  2  0  0  0  0
  2  5  2  0  0  0  0
  3  4  1  0  0  0  0
  3  6  2  0  0  0  0
  4  8  1  0  0  0  0
  5  6  1  0  0  0  0
  5  9  1  0  0  0  0
  6 10  1  0  0  0  0
  7  8  2  0  0  0  0
  1 11  1  0  0  0  0
  2 12  1  0  0  0  0
  3 13  1  0  0  0  0
  7 14  1  0  0  0  0
  7 15  1  0  0  0  0
  8 16  1  0  0  0  0
  9 17  1  0  0  0  0
M  END
> <id>
EN300-1906348

> <smiles>
OC=1C=CC(C=C)=CC1Br

> <MDLNUMBER>
MFCD32202529

> <IUPAC Name>
2-bromo-4-ethenylphenol

> <CAS>
80122-46-9

> <URL>
https://www.enaminestore.com/catalog/EN300-1906348

> <ROCS_ShapeQuery>
_x1604L0AP1_x0771L0AP1

> <ROCS_TanimotoCombo>
0.979 

> <ROCS_ShapeTanimoto>
0.482 

> <ROCS_ColorTanimoto>
0.497 

> <ROCS_RefTversky>
0.419 

> <ROCS_RefColorTversky>
0.515 

> <ROCS_RefTverskyCombo>
0.935 

> <ROCS_FitTversky>
1.448 

> <ROCS_FitColorTversky>
0.932 

> <ROCS_FitTverskyCombo>
2.380 

> <ROCS_ColorScore>
-4.878

> <ROCS_Overlap>
700.169

> <ROCS_Rank>
207                 

$$$$
untitled-dbase-619_4
  -OEChem-06052310023D

 21 22  0     0  0  0  0  0  0999 V2000
   -4.7837   11.3090  -31.6833 C   0  0  0  0  0  0  0  0  0  0  0  0
   -4.7538   12.6462  -29.6714 C   0  0  0  0  0  0  0  0  0  0  0  0
   -5.5774    8.6419  -32.8638 C   0  0  0  0  0  0  0  0  0  0  0  0
   -5.7654   10.4906  -31.1249 C   0  0  0  0  0  0  0  0  0  0  0  0
   -6.2414   10.7500  -29.8397 C   0  0  0  0  0  0  0  0  0  0  0  0
   -4.2778   12.3868  -30.9566 C   0  0  0  0  0  0  0  0  0  0  0  0
   -5.7357   11.8278  -29.1129 C   0  0  0  0  0  0  0  0  0  0  0  0
   -6.2717    9.3851  -31.8936 C   0  0  0  0  0  0  0  0  0  0  0  0
   -6.4972    7.7195  -33.2872 C   0  0  0  0  0  0  0  0  0  0  0  0
   -7.5262    8.9564  -31.7279 N   0  0  0  0  0  0  0  0  0  0  0  0
   -6.4392    6.7294  -34.1997 N   0  0  0  0  0  0  0  0  0  0  0  0
   -7.6642    7.8969  -32.6167 O   0  0  0  0  0  0  0  0  0  0  0  0
   -7.2029    9.9460  -29.2962 O   0  0  0  0  0  0  0  0  0  0  0  0
   -3.0663   13.3968  -31.6456 Cl  0  0  0  0  0  0  0  0  0  0  0  0
   -6.3561   12.2145  -27.3633 Br  0  0  0  0  0  0  0  0  0  0  0  0
   -4.4103   11.1094  -32.6863 H   0  0  0  0  0  0  0  0  0  0  0  0
   -4.3563   13.4877  -29.1077 H   0  0  0  0  0  0  0  0  0  0  0  0
   -4.5593    8.7566  -33.2073 H   0  0  0  0  0  0  0  0  0  0  0  0
   -5.6027    6.5647  -34.7811 H   0  0  0  0  0  0  0  0  0  0  0  0
   -7.2582    6.1456  -34.4311 H   0  0  0  0  0  0  0  0  0  0  0  0
   -7.4453    9.2488  -29.9236 H   0  0  0  0  0  0  0  0  0  0  0  0
  1  4  2  0  0  0  0
  1  6  1  0  0  0  0
  2  6  2  0  0  0  0
  2  7  1  0  0  0  0
  3  8  1  0  0  0  0
  3  9  2  0  0  0  0
  4  5  1  0  0  0  0
  4  8  1  0  0  0  0
  5  7  2  0  0  0  0
  5 13  1  0  0  0  0
  6 14  1  0  0  0  0
  7 15  1  0  0  0  0
  8 10  2  0  0  0  0
  9 11  1  0  0  0  0
  9 12  1  0  0  0  0
 10 12  1  0  0  0  0
  1 16  1  0  0  0  0
  2 17  1  0  0  0  0
  3 18  1  0  0  0  0
 11 19  1  0  0  0  0
 11 20  1  0  0  0  0
 13 21  1  0  0  0  0
M  END
> <id>
EN300-1922946

> <smiles>
NC1=CC(=NO1)C=2C=C(Cl)C=C(Br)C2O

> <IUPAC Name>
2-(5-amino-1,2-oxazol-3-yl)-6-bromo-4-chlorophenol

> <CAS>
2228342-54-7

> <URL>
https://www.enaminestore.com/catalog/EN300-1922946

> <ROCS_ShapeQuery>
_x1604L0AP1_x0771L0AP1

> <ROCS_TanimotoCombo>
0.979 

> <ROCS_ShapeTanimoto>
0.543 

> <ROCS_ColorTanimoto>
0.436 

> <ROCS_RefTversky>
0.502 

> <ROCS_RefColorTversky>
0.559 

> <ROCS_RefTverskyCombo>
1.061 

> <ROCS_FitTversky>
1.175 

> <ROCS_FitColorTversky>
0.665 

> <ROCS_FitTverskyCombo>
1.839 

> <ROCS_ColorScore>
-5.374

> <ROCS_Overlap>
844.260

> <ROCS_Rank>
208                 

$$$$
untitled-dbase-773_272
  -OEChem-06052310023D

 22 22  0     1  0  0  0  0  0999 V2000
   -6.6632   10.0956  -34.8457 C   0  0  0  0  0  0  0  0  0  0  0  0
   -6.4883   10.4711  -33.5138 C   0  0  0  0  0  0  0  0  0  0  0  0
   -6.6183    8.7477  -35.2020 C   0  0  0  0  0  0  0  0  0  0  0  0
   -6.2685    9.4988  -32.5381 C   0  0  0  0  0  0  0  0  0  0  0  0
   -6.3984    7.7754  -34.2263 C   0  0  0  0  0  0  0  0  0  0  0  0
   -6.2235    8.1509  -32.8944 C   0  0  0  0  0  0  0  0  0  0  0  0
   -7.1561    9.3770  -30.1846 C   0  0  0  0  0  0  0  0  0  0  0  0
   -6.0867    9.9531  -31.1255 C   0  0  2  0  0  0  0  0  0  0  0  0
   -4.8563   12.3619  -29.2346 N   0  5  0  0  0  0  0  0  0  0  0  0
   -6.1322   11.4274  -31.0106 N   0  0  0  0  0  0  0  0  0  0  0  0
   -5.4652   11.9038  -30.0834 N   0  3  0  0  0  0  0  0  0  0  0  0
   -6.3603    6.4682  -34.6121 O   0  0  0  0  0  0  0  0  0  0  0  0
   -7.2290   10.1637  -29.0004 O   0  0  0  0  0  0  0  0  0  0  0  0
   -5.9246    6.8155  -31.5721 Br  0  0  0  0  0  0  0  0  0  0  0  0
   -6.8339   10.8527  -35.6054 H   0  0  0  0  0  0  0  0  0  0  0  0
   -6.5251   11.5244  -33.2474 H   0  0  0  0  0  0  0  0  0  0  0  0
   -6.7548    8.4631  -36.2419 H   0  0  0  0  0  0  0  0  0  0  0  0
   -8.1462    9.3663  -30.6537 H   0  0  0  0  0  0  0  0  0  0  0  0
   -6.8976    8.3542  -29.8890 H   0  0  0  0  0  0  0  0  0  0  0  0
   -5.0981    9.6442  -30.7448 H   0  0  0  0  0  0  0  0  0  0  0  0
   -6.2016    5.8979  -33.8441 H   0  0  0  0  0  0  0  0  0  0  0  0
   -6.3518   10.1263  -28.5875 H   0  0  0  0  0  0  0  0  0  0  0  0
  1  2  1  0  0  0  0
  1  3  2  0  0  0  0
  2  4  2  0  0  0  0
  3  5  1  0  0  0  0
  4  6  1  0  0  0  0
  4  8  1  0  0  0  0
  5  6  2  0  0  0  0
  5 12  1  0  0  0  0
  6 14  1  0  0  0  0
  7  8  1  0  0  0  0
  7 13  1  0  0  0  0
  8 10  1  0  0  0  0
  9 11  2  0  0  0  0
 10 11  2  0  0  0  0
  1 15  1  0  0  0  0
  2 16  1  0  0  0  0
  3 17  1  0  0  0  0
  7 18  1  0  0  0  0
  7 19  1  0  0  0  0
  8 20  1  0  0  0  0
 12 21  1  0  0  0  0
 13 22  1  0  0  0  0
M  CHG  2   9  -1  11   1
M  END
> <id>
EN300-1904550

> <smiles>
OCC(N=[N+]=[N-])C=1C=CC=C(O)C1Br

> <IUPAC Name>
3-(1-azido-2-hydroxyethyl)-2-bromophenol

> <CAS>
2228192-58-1

> <URL>
https://www.enaminestore.com/catalog/EN300-1904550

> <ROCS_ShapeQuery>
_x1604L0AP1_x0771L0AP1

> <ROCS_TanimotoCombo>
0.978 

> <ROCS_ShapeTanimoto>
0.526 

> <ROCS_ColorTanimoto>
0.452 

> <ROCS_RefTversky>
0.479 

> <ROCS_RefColorTversky>
0.514 

> <ROCS_RefTverskyCombo>
0.992 

> <ROCS_FitTversky>
1.235 

> <ROCS_FitColorTversky>
0.790 

> <ROCS_FitTverskyCombo>
2.025 

> <ROCS_ColorScore>
-4.886

> <ROCS_Overlap>
802.938

> <ROCS_Rank>
209                 

$$$$
untitled-dbase-103_0
  -OEChem-06052310023D

 21 22  0     0  0  0  0  0  0999 V2000
   -7.4205    9.8218  -33.2777 C   0  0  0  0  0  0  0  0  0  0  0  0
   -6.4906   10.5127  -34.0488 C   0  0  0  0  0  0  0  0  0  0  0  0
   -7.3713    9.9021  -31.8857 C   0  0  0  0  0  0  0  0  0  0  0  0
   -5.5078   11.2866  -33.4310 C   0  0  0  0  0  0  0  0  0  0  0  0
   -5.3418   11.5423  -29.2291 C   0  0  0  0  0  0  0  0  0  0  0  0
   -6.3890   10.6762  -31.2469 C   0  0  0  0  0  0  0  0  0  0  0  0
   -5.4433   11.3788  -32.0311 C   0  0  0  0  0  0  0  0  0  0  0  0
   -6.3246   10.7685  -29.8470 C   0  0  0  0  0  0  0  0  0  0  0  0
   -4.4610   12.1529  -31.3923 C   0  0  0  0  0  0  0  0  0  0  0  0
   -4.4118   12.2332  -30.0003 C   0  0  0  0  0  0  0  0  0  0  0  0
   -7.2470   10.0865  -29.0159 N   0  0  0  0  0  0  0  0  0  0  0  0
   -3.5396   12.8373  -32.1370 O   0  0  0  0  0  0  0  0  0  0  0  0
   -3.0934   13.2724  -29.1170 Br  0  0  0  0  0  0  0  0  0  0  0  0
   -8.1846    9.2191  -33.7601 H   0  0  0  0  0  0  0  0  0  0  0  0
   -6.5297   10.4495  -35.1323 H   0  0  0  0  0  0  0  0  0  0  0  0
   -8.1161    9.3474  -31.3194 H   0  0  0  0  0  0  0  0  0  0  0  0
   -4.7973   11.8129  -34.0649 H   0  0  0  0  0  0  0  0  0  0  0  0
   -5.3078   11.6021  -28.1430 H   0  0  0  0  0  0  0  0  0  0  0  0
   -7.1366   10.1422  -28.0266 H   0  0  0  0  0  0  0  0  0  0  0  0
   -7.9266    9.4915  -29.4378 H   0  0  0  0  0  0  0  0  0  0  0  0
   -2.9362   13.3188  -31.5528 H   0  0  0  0  0  0  0  0  0  0  0  0
  1  2  2  0  0  0  0
  1  3  1  0  0  0  0
  2  4  1  0  0  0  0
  3  6  2  0  0  0  0
  4  7  2  0  0  0  0
  5  8  2  0  0  0  0
  5 10  1  0  0  0  0
  6  7  1  0  0  0  0
  6  8  1  0  0  0  0
  7  9  1  0  0  0  0
  8 11  1  0  0  0  0
  9 10  2  0  0  0  0
  9 12  1  0  0  0  0
 10 13  1  0  0  0  0
  1 14  1  0  0  0  0
  2 15  1  0  0  0  0
  3 16  1  0  0  0  0
  4 17  1  0  0  0  0
  5 18  1  0  0  0  0
 11 19  1  0  0  0  0
 11 20  1  0  0  0  0
 12 21  1  0  0  0  0
M  END
> <id>
EN300-310653

> <smiles>
NC=1C=C(Br)C(O)=C2C=CC=CC12

> <MDLNUMBER>
MFCD30497530

> <IUPAC Name>
4-amino-2-bromonaphthalen-1-ol

> <CAS>
2060063-47-8

> <URL>
https://www.enaminestore.com/catalog/EN300-310653

> <ROCS_ShapeQuery>
_x1604L0AP1_x0771L0AP1

> <ROCS_TanimotoCombo>
0.978 

> <ROCS_ShapeTanimoto>
0.573 

> <ROCS_ColorTanimoto>
0.405 

> <ROCS_RefTversky>
0.503 

> <ROCS_RefColorTversky>
0.503 

> <ROCS_RefTverskyCombo>
1.006 

> <ROCS_FitTversky>
1.324 

> <ROCS_FitColorTversky>
0.674 

> <ROCS_FitTverskyCombo>
1.999 

> <ROCS_ColorScore>
-4.815

> <ROCS_Overlap>
843.075

> <ROCS_Rank>
210                 

$$$$
untitled-dbase-1273_4
  -OEChem-06052310023D

 20 20  0     0  0  0  0  0  0999 V2000
   -4.5922   12.4765  -29.8285 C   0  0  0  0  0  0  0  0  0  0  0  0
   -5.5720   11.7787  -29.1224 C   0  0  0  0  0  0  0  0  0  0  0  0
   -5.0579   11.1452  -31.7902 C   0  0  0  0  0  0  0  0  0  0  0  0
   -4.3352   12.1598  -31.1625 C   0  0  0  0  0  0  0  0  0  0  0  0
   -6.2947   10.7641  -29.7500 C   0  0  0  0  0  0  0  0  0  0  0  0
   -6.0376   10.4473  -31.0840 C   0  0  0  0  0  0  0  0  0  0  0  0
   -3.3976   14.2322  -32.0733 C   0  0  0  0  0  0  0  0  0  0  0  0
   -3.3131   12.8876  -31.8979 C   0  0  0  0  0  0  0  0  0  0  0  0
   -2.0974   12.1525  -32.4345 C   0  0  0  0  0  0  0  0  0  0  0  0
   -7.2437   10.0997  -29.0314 O   0  0  0  0  0  0  0  0  0  0  0  0
   -2.4026   11.5732  -34.0902 Cl  0  0  0  0  0  0  0  0  0  0  0  0
   -6.9989    9.0732  -31.9675 Br  0  0  0  0  0  0  0  0  0  0  0  0
   -4.0376   13.2654  -29.3258 H   0  0  0  0  0  0  0  0  0  0  0  0
   -5.7669   12.0318  -28.0836 H   0  0  0  0  0  0  0  0  0  0  0  0
   -4.8550   10.9008  -32.8313 H   0  0  0  0  0  0  0  0  0  0  0  0
   -2.6376   14.7799  -32.6213 H   0  0  0  0  0  0  0  0  0  0  0  0
   -4.2282   14.8134  -31.6849 H   0  0  0  0  0  0  0  0  0  0  0  0
   -1.2080   12.7896  -32.4839 H   0  0  0  0  0  0  0  0  0  0  0  0
   -1.8375   11.2915  -31.8123 H   0  0  0  0  0  0  0  0  0  0  0  0
   -7.6685    9.4244  -29.5828 H   0  0  0  0  0  0  0  0  0  0  0  0
  1  2  1  0  0  0  0
  1  4  2  0  0  0  0
  2  5  2  0  0  0  0
  3  4  1  0  0  0  0
  3  6  2  0  0  0  0
  4  8  1  0  0  0  0
  5  6  1  0  0  0  0
  5 10  1  0  0  0  0
  6 12  1  0  0  0  0
  7  8  2  0  0  0  0
  8  9  1  0  0  0  0
  9 11  1  0  0  0  0
  1 13  1  0  0  0  0
  2 14  1  0  0  0  0
  3 15  1  0  0  0  0
  7 16  1  0  0  0  0
  7 17  1  0  0  0  0
  9 18  1  0  0  0  0
  9 19  1  0  0  0  0
 10 20  1  0  0  0  0
M  END
> <id>
EN300-1906707

> <smiles>
OC=1C=CC(=CC1Br)C(=C)CCl

> <IUPAC Name>
2-bromo-4-(3-chloroprop-1-en-2-yl)phenol

> <CAS>
2228630-14-4

> <URL>
https://www.enaminestore.com/catalog/EN300-1906707

> <ROCS_ShapeQuery>
_x1604L0AP1_x0771L0AP1

> <ROCS_TanimotoCombo>
0.978 

> <ROCS_ShapeTanimoto>
0.481 

> <ROCS_ColorTanimoto>
0.497 

> <ROCS_RefTversky>
0.432 

> <ROCS_RefColorTversky>
0.515 

> <ROCS_RefTverskyCombo>
0.948 

> <ROCS_FitTversky>
1.305 

> <ROCS_FitColorTversky>
0.932 

> <ROCS_FitTverskyCombo>
2.237 

> <ROCS_ColorScore>
-4.878

> <ROCS_Overlap>
723.428

> <ROCS_Rank>
211                 

$$$$
untitled-dbase-26_0
  -OEChem-06052310023D

 25 25  0     0  0  0  0  0  0999 V2000
   -5.0440   11.1568  -31.7783 C   0  0  0  0  0  0  0  0  0  0  0  0
   -4.5659   12.4962  -29.8252 C   0  0  0  0  0  0  0  0  0  0  0  0
   -6.0237   10.4662  -31.0650 C   0  0  0  0  0  0  0  0  0  0  0  0
   -6.2746   10.7906  -29.7318 C   0  0  0  0  0  0  0  0  0  0  0  0
   -4.3150   12.1717  -31.1584 C   0  0  0  0  0  0  0  0  0  0  0  0
   -5.5457   11.8056  -29.1119 C   0  0  0  0  0  0  0  0  0  0  0  0
   -6.3304    9.2107  -33.2272 C   0  0  0  0  0  0  0  0  0  0  0  0
   -8.3194    9.6995  -31.7639 C   0  0  0  0  0  0  0  0  0  0  0  0
   -6.6665    7.9640  -31.1025 C   0  0  0  0  0  0  0  0  0  0  0  0
   -6.8151    9.3510  -31.7680 C   0  0  0  0  0  0  0  0  0  0  0  0
   -7.2362   10.1055  -29.0473 O   0  0  0  0  0  0  0  0  0  0  0  0
   -2.9873   13.1071  -32.1252 Br  0  0  0  0  0  0  0  0  0  0  0  0
   -5.8577   12.2754  -27.3016 Br  0  0  0  0  0  0  0  0  0  0  0  0
   -4.8530   10.8991  -32.8176 H   0  0  0  0  0  0  0  0  0  0  0  0
   -3.9962   13.2882  -29.3434 H   0  0  0  0  0  0  0  0  0  0  0  0
   -6.8799    8.4205  -33.7521 H   0  0  0  0  0  0  0  0  0  0  0  0
   -6.4707   10.1332  -33.8013 H   0  0  0  0  0  0  0  0  0  0  0  0
   -5.2642    8.9580  -33.2661 H   0  0  0  0  0  0  0  0  0  0  0  0
   -8.9245    8.9303  -32.2561 H   0  0  0  0  0  0  0  0  0  0  0  0
   -8.6993    9.7993  -30.7404 H   0  0  0  0  0  0  0  0  0  0  0  0
   -8.5061   10.6470  -32.2830 H   0  0  0  0  0  0  0  0  0  0  0  0
   -7.2479    7.2042  -31.6387 H   0  0  0  0  0  0  0  0  0  0  0  0
   -5.6231    7.6275  -31.0993 H   0  0  0  0  0  0  0  0  0  0  0  0
   -7.0260    7.9727  -30.0669 H   0  0  0  0  0  0  0  0  0  0  0  0
   -7.2984   10.4378  -28.1389 H   0  0  0  0  0  0  0  0  0  0  0  0
  1  3  2  0  0  0  0
  1  5  1  0  0  0  0
  2  5  2  0  0  0  0
  2  6  1  0  0  0  0
  3  4  1  0  0  0  0
  3 10  1  0  0  0  0
  4  6  2  0  0  0  0
  4 11  1  0  0  0  0
  5 12  1  0  0  0  0
  6 13  1  0  0  0  0
  7 10  1  0  0  0  0
  8 10  1  0  0  0  0
  9 10  1  0  0  0  0
  1 14  1  0  0  0  0
  2 15  1  0  0  0  0
  7 16  1  0  0  0  0
  7 17  1  0  0  0  0
  7 18  1  0  0  0  0
  8 19  1  0  0  0  0
  8 20  1  0  0  0  0
  8 21  1  0  0  0  0
  9 22  1  0  0  0  0
  9 23  1  0  0  0  0
  9 24  1  0  0  0  0
 11 25  1  0  0  0  0
M  END
> <id>
EN300-152594

> <smiles>
CC(C)(C)C=1C=C(Br)C=C(Br)C1O

> <MDLNUMBER>
MFCD00463268

> <IUPAC Name>
2,4-dibromo-6-tert-butylphenol

> <CAS>
15460-12-5

> <Purity>
95

> <URL>
https://www.enaminestore.com/catalog/EN300-152594

> <ROCS_ShapeQuery>
_x1604L0AP1_x0771L0AP1

> <ROCS_TanimotoCombo>
0.978 

> <ROCS_ShapeTanimoto>
0.526 

> <ROCS_ColorTanimoto>
0.451 

> <ROCS_RefTversky>
0.467 

> <ROCS_RefColorTversky>
0.513 

> <ROCS_RefTverskyCombo>
0.980 

> <ROCS_FitTversky>
1.319 

> <ROCS_FitColorTversky>
0.789 

> <ROCS_FitTverskyCombo>
2.109 

> <ROCS_ColorScore>
-4.882

> <ROCS_Overlap>
781.903

> <ROCS_Rank>
212                 

$$$$
untitled-dbase-1363_0
  -OEChem-06052310023D

 16 16  0     0  0  0  0  0  0999 V2000
   -4.3424   12.1516  -31.2052 C   0  0  0  0  0  0  0  0  0  0  0  0
   -4.5871   12.4832  -29.8726 C   0  0  0  0  0  0  0  0  0  0  0  0
   -5.0712   11.1304  -31.8150 C   0  0  0  0  0  0  0  0  0  0  0  0
   -5.5605   11.7936  -29.1498 C   0  0  0  0  0  0  0  0  0  0  0  0
   -6.2893   10.7724  -29.7595 C   0  0  0  0  0  0  0  0  0  0  0  0
   -6.0446   10.4408  -31.0921 C   0  0  0  0  0  0  0  0  0  0  0  0
   -5.8055   12.1640  -27.7239 C   0  0  0  0  0  0  0  0  0  0  0  0
   -7.2372   10.1058  -29.0386 O   0  0  0  0  0  0  0  0  0  0  0  0
   -7.0143    9.0603  -31.9569 Br  0  0  0  0  0  0  0  0  0  0  0  0
   -3.5848   12.6888  -31.7683 H   0  0  0  0  0  0  0  0  0  0  0  0
   -4.0164   13.2817  -29.4061 H   0  0  0  0  0  0  0  0  0  0  0  0
   -4.8668   10.8865  -32.8545 H   0  0  0  0  0  0  0  0  0  0  0  0
   -6.5747   12.9424  -27.6604 H   0  0  0  0  0  0  0  0  0  0  0  0
   -6.1371   11.2963  -27.1403 H   0  0  0  0  0  0  0  0  0  0  0  0
   -4.8900   12.5375  -27.2485 H   0  0  0  0  0  0  0  0  0  0  0  0
   -7.6587    9.4286  -29.5892 H   0  0  0  0  0  0  0  0  0  0  0  0
  1  2  1  0  0  0  0
  1  3  2  0  0  0  0
  2  4  2  0  0  0  0
  3  6  1  0  0  0  0
  4  5  1  0  0  0  0
  4  7  1  0  0  0  0
  5  6  2  0  0  0  0
  5  8  1  0  0  0  0
  6  9  1  0  0  0  0
  1 10  1  0  0  0  0
  2 11  1  0  0  0  0
  3 12  1  0  0  0  0
  7 13  1  0  0  0  0
  7 14  1  0  0  0  0
  7 15  1  0  0  0  0
  8 16  1  0  0  0  0
M  END
> <id>
EN300-82648

> <smiles>
CC=1C=CC=C(Br)C1O

> <MDLNUMBER>
MFCD09907876

> <IUPAC Name>
2-bromo-6-methylphenol

> <CAS>
13319-71-6

> <Purity>
95

> <URL>
https://www.enaminestore.com/catalog/EN300-82648

> <MP>
16.5-17

> <ROCS_ShapeQuery>
_x1604L0AP1_x0771L0AP1

> <ROCS_TanimotoCombo>
0.978 

> <ROCS_ShapeTanimoto>
0.424 

> <ROCS_ColorTanimoto>
0.553 

> <ROCS_RefTversky>
0.377 

> <ROCS_RefColorTversky>
0.518 

> <ROCS_RefTverskyCombo>
0.895 

> <ROCS_FitTversky>
1.420 

> <ROCS_FitColorTversky>
1.139 

> <ROCS_FitTverskyCombo>
2.559 

> <ROCS_ColorScore>
-4.880

> <ROCS_Overlap>
628.260

> <ROCS_Rank>
213                 

$$$$
untitled-dbase-1045_61
  -OEChem-06052310023D

 19 19  0     0  0  0  0  0  0999 V2000
   -4.6071   12.4922  -29.8684 C   0  0  0  0  0  0  0  0  0  0  0  0
   -4.3649   12.1762  -31.2052 C   0  0  0  0  0  0  0  0  0  0  0  0
   -5.5724   11.7876  -29.1491 C   0  0  0  0  0  0  0  0  0  0  0  0
   -5.0880   11.1557  -31.8227 C   0  0  0  0  0  0  0  0  0  0  0  0
   -6.2956   10.7671  -29.7665 C   0  0  0  0  0  0  0  0  0  0  0  0
   -6.0534   10.4511  -31.1034 C   0  0  0  0  0  0  0  0  0  0  0  0
   -4.7910   10.8562  -33.2569 C   0  0  0  0  0  0  0  0  0  0  0  0
   -5.9475   11.0208  -34.0981 N   0  0  0  0  0  0  0  0  0  0  0  0
   -7.2314   10.1009  -29.0321 O   0  0  0  0  0  0  0  0  0  0  0  0
   -5.7866   10.0756  -35.1930 O   0  0  0  0  0  0  0  0  0  0  0  0
   -7.0459    9.0567  -31.9350 Br  0  0  0  0  0  0  0  0  0  0  0  0
   -4.0444   13.2872  -29.3878 H   0  0  0  0  0  0  0  0  0  0  0  0
   -3.6105   12.7318  -31.7564 H   0  0  0  0  0  0  0  0  0  0  0  0
   -5.7559   12.0401  -28.1081 H   0  0  0  0  0  0  0  0  0  0  0  0
   -4.0035   11.5176  -33.6411 H   0  0  0  0  0  0  0  0  0  0  0  0
   -4.4341    9.8263  -33.3843 H   0  0  0  0  0  0  0  0  0  0  0  0
   -6.7962   10.6691  -33.6444 H   0  0  0  0  0  0  0  0  0  0  0  0
   -7.6597    9.4210  -29.5747 H   0  0  0  0  0  0  0  0  0  0  0  0
   -4.9511   10.3833  -35.5853 H   0  0  0  0  0  0  0  0  0  0  0  0
  1  2  1  0  0  0  0
  1  3  2  0  0  0  0
  2  4  2  0  0  0  0
  3  5  1  0  0  0  0
  4  6  1  0  0  0  0
  4  7  1  0  0  0  0
  5  6  2  0  0  0  0
  5  9  1  0  0  0  0
  6 11  1  0  0  0  0
  7  8  1  0  0  0  0
  8 10  1  0  0  0  0
  1 12  1  0  0  0  0
  2 13  1  0  0  0  0
  3 14  1  0  0  0  0
  7 15  1  0  0  0  0
  7 16  1  0  0  0  0
  8 17  1  0  0  0  0
  9 18  1  0  0  0  0
 10 19  1  0  0  0  0
M  END
> <id>
EN300-1905038

> <smiles>
ONCC=1C=CC=C(O)C1Br

> <MDLNUMBER>
MFCD33535316

> <IUPAC Name>
2-bromo-3-[(hydroxyamino)methyl]phenol

> <CAS>
1935625-24-3

> <URL>
https://www.enaminestore.com/catalog/EN300-1905038

> <ROCS_ShapeQuery>
_x1604L0AP1_x0771L0AP1

> <ROCS_TanimotoCombo>
0.977 

> <ROCS_ShapeTanimoto>
0.480 

> <ROCS_ColorTanimoto>
0.497 

> <ROCS_RefTversky>
0.425 

> <ROCS_RefColorTversky>
0.516 

> <ROCS_RefTverskyCombo>
0.941 

> <ROCS_FitTversky>
1.367 

> <ROCS_FitColorTversky>
0.932 

> <ROCS_FitTverskyCombo>
2.299 

> <ROCS_ColorScore>
-4.881

> <ROCS_Overlap>
710.551

> <ROCS_Rank>
214                 

$$$$
untitled-dbase-435_713
  -OEChem-06052310023D

 24 24  0     0  0  0  0  0  0999 V2000
   -4.6018   12.4900  -29.8745 C   0  0  0  0  0  0  0  0  0  0  0  0
   -5.0779   11.1353  -31.8175 C   0  0  0  0  0  0  0  0  0  0  0  0
   -4.3550   12.1603  -31.2072 C   0  0  0  0  0  0  0  0  0  0  0  0
   -5.5715   11.7946  -29.1521 C   0  0  0  0  0  0  0  0  0  0  0  0
   -6.2944   10.7696  -29.7623 C   0  0  0  0  0  0  0  0  0  0  0  0
   -6.0477   10.4399  -31.0950 C   0  0  0  0  0  0  0  0  0  0  0  0
   -3.5987   11.6092  -27.0705 C   0  0  0  0  0  0  0  0  0  0  0  0
   -3.3189   12.9046  -31.9794 C   0  0  0  0  0  0  0  0  0  0  0  0
   -4.6989   12.6482  -27.1111 C   0  0  0  0  0  0  0  0  0  0  0  0
   -7.2395   10.1018  -29.0394 O   0  0  0  0  0  0  0  0  0  0  0  0
   -5.8015   12.1286  -27.8514 O   0  0  0  0  0  0  0  0  0  0  0  0
   -2.2418   13.9091  -30.9122 S   0  0  0  0  0  0  0  0  0  0  0  0
   -7.0098    9.0533  -31.9585 Br  0  0  0  0  0  0  0  0  0  0  0  0
   -4.0398   13.2889  -29.3966 H   0  0  0  0  0  0  0  0  0  0  0  0
   -4.8785   10.8858  -32.8573 H   0  0  0  0  0  0  0  0  0  0  0  0
   -3.9449   10.6930  -26.5840 H   0  0  0  0  0  0  0  0  0  0  0  0
   -3.2602   11.3656  -28.0830 H   0  0  0  0  0  0  0  0  0  0  0  0
   -2.7278   11.9903  -26.5269 H   0  0  0  0  0  0  0  0  0  0  0  0
   -2.6866   12.2125  -32.5551 H   0  0  0  0  0  0  0  0  0  0  0  0
   -3.7882   13.5708  -32.7184 H   0  0  0  0  0  0  0  0  0  0  0  0
   -4.3461   13.5618  -27.5988 H   0  0  0  0  0  0  0  0  0  0  0  0
   -5.0364   12.8897  -26.0988 H   0  0  0  0  0  0  0  0  0  0  0  0
   -7.2814   10.4563  -28.1382 H   0  0  0  0  0  0  0  0  0  0  0  0
   -1.7741   12.8858  -30.1852 H   0  0  0  0  0  0  0  0  0  0  0  0
  1  3  1  0  0  0  0
  1  4  2  0  0  0  0
  2  3  2  0  0  0  0
  2  6  1  0  0  0  0
  3  8  1  0  0  0  0
  4  5  1  0  0  0  0
  4 11  1  0  0  0  0
  5  6  2  0  0  0  0
  5 10  1  0  0  0  0
  6 13  1  0  0  0  0
  7  9  1  0  0  0  0
  8 12  1  0  0  0  0
  9 11  1  0  0  0  0
  1 14  1  0  0  0  0
  2 15  1  0  0  0  0
  7 16  1  0  0  0  0
  7 17  1  0  0  0  0
  7 18  1  0  0  0  0
  8 19  1  0  0  0  0
  8 20  1  0  0  0  0
  9 21  1  0  0  0  0
  9 22  1  0  0  0  0
 10 23  1  0  0  0  0
 12 24  1  0  0  0  0
M  END
> <id>
EN300-1920290

> <smiles>
CCOC=1C=C(CS)C=C(Br)C1O

> <IUPAC Name>
2-bromo-6-ethoxy-4-(sulfanylmethyl)phenol

> <CAS>
2228782-38-3

> <URL>
https://www.enaminestore.com/catalog/EN300-1920290

> <ROCS_ShapeQuery>
_x1604L0AP1_x0771L0AP1

> <ROCS_TanimotoCombo>
0.977 

> <ROCS_ShapeTanimoto>
0.480 

> <ROCS_ColorTanimoto>
0.497 

> <ROCS_RefTversky>
0.439 

> <ROCS_RefColorTversky>
0.516 

> <ROCS_RefTverskyCombo>
0.955 

> <ROCS_FitTversky>
1.237 

> <ROCS_FitColorTversky>
0.932 

> <ROCS_FitTverskyCombo>
2.170 

> <ROCS_ColorScore>
-4.881

> <ROCS_Overlap>
736.046

> <ROCS_Rank>
215                 

$$$$
untitled-dbase-595_259
  -OEChem-06052310023D

 23 23  0     0  0  0  0  0  0999 V2000
   -4.5714   12.4617  -29.8520 C   0  0  0  0  0  0  0  0  0  0  0  0
   -5.0540   11.1188  -31.8014 C   0  0  0  0  0  0  0  0  0  0  0  0
   -4.3215   12.1328  -31.1842 C   0  0  0  0  0  0  0  0  0  0  0  0
   -5.5537   11.7766  -29.1368 C   0  0  0  0  0  0  0  0  0  0  0  0
   -6.2862   10.7626  -29.7540 C   0  0  0  0  0  0  0  0  0  0  0  0
   -6.0364   10.4337  -31.0863 C   0  0  0  0  0  0  0  0  0  0  0  0
   -5.0039   14.0143  -26.6149 C   0  0  0  0  0  0  0  0  0  0  0  0
   -3.2719   12.8661  -31.9487 C   0  0  0  0  0  0  0  0  0  0  0  0
   -4.6814   12.6131  -27.0886 C   0  0  0  0  0  0  0  0  0  0  0  0
   -7.2435   10.1047  -29.0382 O   0  0  0  0  0  0  0  0  0  0  0  0
   -5.7865   12.1097  -27.8364 O   0  0  0  0  0  0  0  0  0  0  0  0
   -2.7987   14.3539  -31.0978 Cl  0  0  0  0  0  0  0  0  0  0  0  0
   -7.0113    9.0618  -31.9590 Br  0  0  0  0  0  0  0  0  0  0  0  0
   -4.0019   13.2520  -29.3687 H   0  0  0  0  0  0  0  0  0  0  0  0
   -4.8522   10.8698  -32.8410 H   0  0  0  0  0  0  0  0  0  0  0  0
   -5.1842   14.6810  -27.4627 H   0  0  0  0  0  0  0  0  0  0  0  0
   -5.8912   14.0102  -25.9734 H   0  0  0  0  0  0  0  0  0  0  0  0
   -4.1805   14.4184  -26.0166 H   0  0  0  0  0  0  0  0  0  0  0  0
   -3.6252   13.1465  -32.9499 H   0  0  0  0  0  0  0  0  0  0  0  0
   -2.3711   12.2531  -32.0854 H   0  0  0  0  0  0  0  0  0  0  0  0
   -4.5021   11.9515  -26.2359 H   0  0  0  0  0  0  0  0  0  0  0  0
   -3.7951   12.6191  -27.7301 H   0  0  0  0  0  0  0  0  0  0  0  0
   -7.6684    9.4312  -29.5908 H   0  0  0  0  0  0  0  0  0  0  0  0
  1  3  1  0  0  0  0
  1  4  2  0  0  0  0
  2  3  2  0  0  0  0
  2  6  1  0  0  0  0
  3  8  1  0  0  0  0
  4  5  1  0  0  0  0
  4 11  1  0  0  0  0
  5  6  2  0  0  0  0
  5 10  1  0  0  0  0
  6 13  1  0  0  0  0
  7  9  1  0  0  0  0
  8 12  1  0  0  0  0
  9 11  1  0  0  0  0
  1 14  1  0  0  0  0
  2 15  1  0  0  0  0
  7 16  1  0  0  0  0
  7 17  1  0  0  0  0
  7 18  1  0  0  0  0
  8 19  1  0  0  0  0
  8 20  1  0  0  0  0
  9 21  1  0  0  0  0
  9 22  1  0  0  0  0
 10 23  1  0  0  0  0
M  END
> <id>
EN300-1920245

> <smiles>
CCOC=1C=C(CCl)C=C(Br)C1O

> <IUPAC Name>
2-bromo-4-(chloromethyl)-6-ethoxyphenol

> <CAS>
2228336-12-5

> <URL>
https://www.enaminestore.com/catalog/EN300-1920245

> <ROCS_ShapeQuery>
_x1604L0AP1_x0771L0AP1

> <ROCS_TanimotoCombo>
0.976 

> <ROCS_ShapeTanimoto>
0.479 

> <ROCS_ColorTanimoto>
0.497 

> <ROCS_RefTversky>
0.439 

> <ROCS_RefColorTversky>
0.516 

> <ROCS_RefTverskyCombo>
0.955 

> <ROCS_FitTversky>
1.235 

> <ROCS_FitColorTversky>
0.932 

> <ROCS_FitTverskyCombo>
2.167 

> <ROCS_ColorScore>
-4.882

> <ROCS_Overlap>
735.790

> <ROCS_Rank>
216                 

$$$$
untitled-dbase-512_70
  -OEChem-06052310023D

 29 29  0     1  0  0  0  0  0999 V2000
   -4.2518   12.2051  -31.1495 C   0  0  0  0  0  0  0  0  0  0  0  0
   -4.9079   11.1649  -31.8076 C   0  0  0  0  0  0  0  0  0  0  0  0
   -4.5929   12.5239  -29.8350 C   0  0  0  0  0  0  0  0  0  0  0  0
   -5.9051   10.4434  -31.1513 C   0  0  0  0  0  0  0  0  0  0  0  0
   -6.2462   10.7621  -29.8369 C   0  0  0  0  0  0  0  0  0  0  0  0
   -5.5901   11.8024  -29.1787 C   0  0  0  0  0  0  0  0  0  0  0  0
   -6.7325    8.0318  -34.1600 C   0  0  0  0  0  0  0  0  0  0  0  0
   -8.1489    9.5254  -32.0245 C   0  0  0  0  0  0  0  0  0  0  0  0
   -6.4766    7.9778  -31.0894 C   0  0  0  0  0  0  0  0  0  0  0  0
   -6.0211    9.0884  -33.3300 C   0  0  2  0  0  0  0  0  0  0  0  0
   -6.6195    9.2959  -31.9001 C   0  0  0  0  0  0  0  0  0  0  0  0
   -6.3886    6.8587  -34.2348 O   0  0  0  0  0  0  0  0  0  0  0  0
   -7.2250   10.0481  -29.2087 O   0  0  0  0  0  0  0  0  0  0  0  0
   -7.8189    8.5211  -34.8088 O   0  0  0  0  0  0  0  0  0  0  0  0
   -6.0983   10.2957  -34.0863 O   0  0  0  0  0  0  0  0  0  0  0  0
   -6.0239   12.2656  -27.3923 Br  0  0  0  0  0  0  0  0  0  0  0  0
   -3.4751   12.7667  -31.6603 H   0  0  0  0  0  0  0  0  0  0  0  0
   -4.6342   10.9218  -32.8309 H   0  0  0  0  0  0  0  0  0  0  0  0
   -4.0703   13.3375  -29.3383 H   0  0  0  0  0  0  0  0  0  0  0  0
   -8.6581    8.7150  -32.5541 H   0  0  0  0  0  0  0  0  0  0  0  0
   -8.3683   10.4562  -32.5617 H   0  0  0  0  0  0  0  0  0  0  0  0
   -8.6165    9.6013  -31.0356 H   0  0  0  0  0  0  0  0  0  0  0  0
   -6.9768    7.1475  -31.6021 H   0  0  0  0  0  0  0  0  0  0  0  0
   -5.4358    7.6732  -30.9418 H   0  0  0  0  0  0  0  0  0  0  0  0
   -6.9301    8.0762  -30.0956 H   0  0  0  0  0  0  0  0  0  0  0  0
   -4.9547    8.8394  -33.2669 H   0  0  0  0  0  0  0  0  0  0  0  0
   -7.3524   10.3800  -28.3070 H   0  0  0  0  0  0  0  0  0  0  0  0
   -7.9951    9.4761  -34.6729 H   0  0  0  0  0  0  0  0  0  0  0  0
   -5.6515   10.1211  -34.9286 H   0  0  0  0  0  0  0  0  0  0  0  0
  1  2  1  0  0  0  0
  1  3  2  0  0  0  0
  2  4  2  0  0  0  0
  3  6  1  0  0  0  0
  4  5  1  0  0  0  0
  4 11  1  0  0  0  0
  5  6  2  0  0  0  0
  5 13  1  0  0  0  0
  6 16  1  0  0  0  0
  7 10  1  0  0  0  0
  7 12  2  0  0  0  0
  7 14  1  0  0  0  0
  8 11  1  0  0  0  0
  9 11  1  0  0  0  0
 10 11  1  0  0  0  0
 10 15  1  0  0  0  0
  1 17  1  0  0  0  0
  2 18  1  0  0  0  0
  3 19  1  0  0  0  0
  8 20  1  0  0  0  0
  8 21  1  0  0  0  0
  8 22  1  0  0  0  0
  9 23  1  0  0  0  0
  9 24  1  0  0  0  0
  9 25  1  0  0  0  0
 10 26  1  0  0  0  0
 13 27  1  0  0  0  0
 14 28  1  0  0  0  0
 15 29  1  0  0  0  0
M  END
> <id>
EN300-1923119

> <smiles>
CC(C)(C(O)C(=O)O)C=1C=CC=C(Br)C1O

> <IUPAC Name>
3-(3-bromo-2-hydroxyphenyl)-2-hydroxy-3-methylbutanoic acid

> <CAS>
2228871-69-8

> <URL>
https://www.enaminestore.com/catalog/EN300-1923119

> <ROCS_ShapeQuery>
_x1604L0AP1_x0771L0AP1

> <ROCS_TanimotoCombo>
0.976 

> <ROCS_ShapeTanimoto>
0.583 

> <ROCS_ColorTanimoto>
0.393 

> <ROCS_RefTversky>
0.530 

> <ROCS_RefColorTversky>
0.572 

> <ROCS_RefTverskyCombo>
1.102 

> <ROCS_FitTversky>
1.210 

> <ROCS_FitColorTversky>
0.556 

> <ROCS_FitTverskyCombo>
1.766 

> <ROCS_ColorScore>
-5.560

> <ROCS_Overlap>
891.075

> <ROCS_Rank>
217                 

$$$$
untitled-dbase-382_47
  -OEChem-06052310023D

 26 26  0     1  0  0  0  0  0999 V2000
   -5.7567   10.0929  -34.7368 C   0  0  0  0  0  0  0  0  0  0  0  0
   -6.3298   10.5195  -33.5388 C   0  0  0  0  0  0  0  0  0  0  0  0
   -5.7748    8.7399  -35.0758 C   0  0  0  0  0  0  0  0  0  0  0  0
   -6.9209    9.5931  -32.6797 C   0  0  0  0  0  0  0  0  0  0  0  0
   -6.3660    7.8136  -34.2167 C   0  0  0  0  0  0  0  0  0  0  0  0
   -6.9391    8.2401  -33.0187 C   0  0  0  0  0  0  0  0  0  0  0  0
   -5.6473   11.3624  -30.3072 C   0  0  0  0  0  0  0  0  0  0  0  0
   -3.9875   12.4369  -31.6069 C   0  0  0  0  0  0  0  0  0  0  0  0
   -7.5268   10.1062  -31.3952 C   0  0  0  0  0  0  0  0  0  0  0  0
   -6.5147   10.1199  -30.2474 C   0  0  2  0  0  0  0  0  0  0  0  0
   -5.6318   12.2416  -29.4555 O   0  0  0  0  0  0  0  0  0  0  0  0
   -6.3642    6.4997  -34.5811 O   0  0  0  0  0  0  0  0  0  0  0  0
   -7.2211   10.1462  -29.0136 O   0  0  0  0  0  0  0  0  0  0  0  0
   -4.8787   11.3304  -31.4355 O   0  0  0  0  0  0  0  0  0  0  0  0
   -7.7429    6.9672  -31.8549 Br  0  0  0  0  0  0  0  0  0  0  0  0
   -5.2960   10.8142  -35.4055 H   0  0  0  0  0  0  0  0  0  0  0  0
   -6.3098   11.5762  -33.2845 H   0  0  0  0  0  0  0  0  0  0  0  0
   -5.3257    8.4153  -36.0106 H   0  0  0  0  0  0  0  0  0  0  0  0
   -3.4242   12.3118  -32.5349 H   0  0  0  0  0  0  0  0  0  0  0  0
   -3.3027   12.4895  -30.7568 H   0  0  0  0  0  0  0  0  0  0  0  0
   -4.5715   13.3588  -31.6594 H   0  0  0  0  0  0  0  0  0  0  0  0
   -8.3909    9.4828  -31.1294 H   0  0  0  0  0  0  0  0  0  0  0  0
   -7.9276   11.1108  -31.5806 H   0  0  0  0  0  0  0  0  0  0  0  0
   -5.8676    9.2357  -30.2489 H   0  0  0  0  0  0  0  0  0  0  0  0
   -6.8028    5.9642  -33.9020 H   0  0  0  0  0  0  0  0  0  0  0  0
   -6.5532   10.1510  -28.3092 H   0  0  0  0  0  0  0  0  0  0  0  0
  1  2  1  0  0  0  0
  1  3  2  0  0  0  0
  2  4  2  0  0  0  0
  3  5  1  0  0  0  0
  4  6  1  0  0  0  0
  4  9  1  0  0  0  0
  5  6  2  0  0  0  0
  5 12  1  0  0  0  0
  6 15  1  0  0  0  0
  7 10  1  0  0  0  0
  7 11  2  0  0  0  0
  7 14  1  0  0  0  0
  8 14  1  0  0  0  0
  9 10  1  0  0  0  0
 10 13  1  0  0  0  0
  1 16  1  0  0  0  0
  2 17  1  0  0  0  0
  3 18  1  0  0  0  0
  8 19  1  0  0  0  0
  8 20  1  0  0  0  0
  8 21  1  0  0  0  0
  9 22  1  0  0  0  0
  9 23  1  0  0  0  0
 10 24  1  0  0  0  0
 12 25  1  0  0  0  0
 13 26  1  0  0  0  0
M  END
> <id>
EN300-1904583

> <smiles>
COC(=O)C(O)CC=1C=CC=C(O)C1Br

> <IUPAC Name>
methyl 3-(2-bromo-3-hydroxyphenyl)-2-hydroxypropanoate

> <CAS>
2228321-26-2

> <URL>
https://www.enaminestore.com/catalog/EN300-1904583

> <ROCS_ShapeQuery>
_x1604L0AP1_x0771L0AP1

> <ROCS_TanimotoCombo>
0.976 

> <ROCS_ShapeTanimoto>
0.558 

> <ROCS_ColorTanimoto>
0.417 

> <ROCS_RefTversky>
0.505 

> <ROCS_RefColorTversky>
0.514 

> <ROCS_RefTverskyCombo>
1.020 

> <ROCS_FitTversky>
1.231 

> <ROCS_FitColorTversky>
0.689 

> <ROCS_FitTverskyCombo>
1.920 

> <ROCS_ColorScore>
-4.918

> <ROCS_Overlap>
849.087

> <ROCS_Rank>
218                 

$$$$
untitled-dbase-626_14
  -OEChem-06052310023D

 18 18  0     0  0  0  0  0  0999 V2000
   -4.5884   12.4710  -29.8228 C   0  0  0  0  0  0  0  0  0  0  0  0
   -5.5703   11.7746  -29.1182 C   0  0  0  0  0  0  0  0  0  0  0  0
   -5.0522   11.1401  -31.7850 C   0  0  0  0  0  0  0  0  0  0  0  0
   -4.3294   12.1538  -31.1562 C   0  0  0  0  0  0  0  0  0  0  0  0
   -6.2931   10.7608  -29.7470 C   0  0  0  0  0  0  0  0  0  0  0  0
   -6.0341   10.4436  -31.0805 C   0  0  0  0  0  0  0  0  0  0  0  0
   -3.3049   12.8799  -31.8900 C   0  0  0  0  0  0  0  0  0  0  0  0
   -3.4303   13.0774  -33.3949 C   0  0  0  0  0  0  0  0  0  0  0  0
   -2.2991   13.3360  -31.3126 O   0  0  0  0  0  0  0  0  0  0  0  0
   -7.2464   10.1000  -29.0308 O   0  0  0  0  0  0  0  0  0  0  0  0
   -4.7286   13.1357  -33.7986 F   0  0  0  0  0  0  0  0  0  0  0  0
   -2.8709   12.0452  -34.0785 F   0  0  0  0  0  0  0  0  0  0  0  0
   -6.9973    9.0728  -31.9671 Br  0  0  0  0  0  0  0  0  0  0  0  0
   -4.0311   13.2592  -29.3231 H   0  0  0  0  0  0  0  0  0  0  0  0
   -5.7671   12.0277  -28.0799 H   0  0  0  0  0  0  0  0  0  0  0  0
   -4.8442   10.8976  -32.8250 H   0  0  0  0  0  0  0  0  0  0  0  0
   -2.9465   14.0123  -33.6911 H   0  0  0  0  0  0  0  0  0  0  0  0
   -7.6709    9.4248  -29.5826 H   0  0  0  0  0  0  0  0  0  0  0  0
  1  2  1  0  0  0  0
  1  4  2  0  0  0  0
  2  5  2  0  0  0  0
  3  4  1  0  0  0  0
  3  6  2  0  0  0  0
  4  7  1  0  0  0  0
  5  6  1  0  0  0  0
  5 10  1  0  0  0  0
  6 13  1  0  0  0  0
  7  8  1  0  0  0  0
  7  9  2  0  0  0  0
  8 11  1  0  0  0  0
  8 12  1  0  0  0  0
  1 14  1  0  0  0  0
  2 15  1  0  0  0  0
  3 16  1  0  0  0  0
  8 17  1  0  0  0  0
 10 18  1  0  0  0  0
M  END
> <id>
EN300-1949514

> <smiles>
OC=1C=CC(=CC1Br)C(=O)C(F)F

> <IUPAC Name>
1-(3-bromo-4-hydroxyphenyl)-2,2-difluoroethan-1-one

> <CAS>
2229601-59-4

> <URL>
https://www.enaminestore.com/catalog/EN300-1949514

> <ROCS_ShapeQuery>
_x1604L0AP1_x0771L0AP1

> <ROCS_TanimotoCombo>
0.976 

> <ROCS_ShapeTanimoto>
0.479 

> <ROCS_ColorTanimoto>
0.497 

> <ROCS_RefTversky>
0.443 

> <ROCS_RefColorTversky>
0.515 

> <ROCS_RefTverskyCombo>
0.958 

> <ROCS_FitTversky>
1.203 

> <ROCS_FitColorTversky>
0.932 

> <ROCS_FitTverskyCombo>
2.135 

> <ROCS_ColorScore>
-4.878

> <ROCS_Overlap>
742.735

> <ROCS_Rank>
219                 

$$$$
untitled-dbase-1402_0
  -OEChem-06052310023D

 25 25  0     0  0  0  0  0  0999 V2000
   -5.0421   11.1569  -31.7763 C   0  0  0  0  0  0  0  0  0  0  0  0
   -4.5640   12.4953  -29.8226 C   0  0  0  0  0  0  0  0  0  0  0  0
   -6.0223   10.4664  -31.0635 C   0  0  0  0  0  0  0  0  0  0  0  0
   -6.2734   10.7904  -29.7302 C   0  0  0  0  0  0  0  0  0  0  0  0
   -5.5442   11.8049  -29.1097 C   0  0  0  0  0  0  0  0  0  0  0  0
   -4.3129   12.1713  -31.1559 C   0  0  0  0  0  0  0  0  0  0  0  0
   -6.3268    9.2096  -33.2253 C   0  0  0  0  0  0  0  0  0  0  0  0
   -8.3172    9.6987  -31.7641 C   0  0  0  0  0  0  0  0  0  0  0  0
   -6.6644    7.9640  -31.1002 C   0  0  0  0  0  0  0  0  0  0  0  0
   -6.8128    9.3506  -31.7666 C   0  0  0  0  0  0  0  0  0  0  0  0
   -7.2350   10.1056  -29.0457 O   0  0  0  0  0  0  0  0  0  0  0  0
   -5.8535   12.2701  -27.2980 Br  0  0  0  0  0  0  0  0  0  0  0  0
   -2.8530   13.2002  -32.2187 I   0  0  0  0  0  0  0  0  0  0  0  0
   -4.8543   10.8953  -32.8154 H   0  0  0  0  0  0  0  0  0  0  0  0
   -3.9963   13.2855  -29.3358 H   0  0  0  0  0  0  0  0  0  0  0  0
   -6.8756    8.4190  -33.7502 H   0  0  0  0  0  0  0  0  0  0  0  0
   -6.4668   10.1318  -33.8000 H   0  0  0  0  0  0  0  0  0  0  0  0
   -5.2604    8.9572  -33.2631 H   0  0  0  0  0  0  0  0  0  0  0  0
   -8.9216    8.9290  -32.2563 H   0  0  0  0  0  0  0  0  0  0  0  0
   -8.6980    9.7990  -30.7409 H   0  0  0  0  0  0  0  0  0  0  0  0
   -8.5037   10.6459  -32.2838 H   0  0  0  0  0  0  0  0  0  0  0  0
   -7.2451    7.2038  -31.6365 H   0  0  0  0  0  0  0  0  0  0  0  0
   -5.6209    7.6278  -31.0958 H   0  0  0  0  0  0  0  0  0  0  0  0
   -7.0248    7.9732  -30.0649 H   0  0  0  0  0  0  0  0  0  0  0  0
   -7.2971   10.4378  -28.1372 H   0  0  0  0  0  0  0  0  0  0  0  0
  1  3  2  0  0  0  0
  1  6  1  0  0  0  0
  2  5  1  0  0  0  0
  2  6  2  0  0  0  0
  3  4  1  0  0  0  0
  3 10  1  0  0  0  0
  4  5  2  0  0  0  0
  4 11  1  0  0  0  0
  5 12  1  0  0  0  0
  6 13  1  0  0  0  0
  7 10  1  0  0  0  0
  8 10  1  0  0  0  0
  9 10  1  0  0  0  0
  1 14  1  0  0  0  0
  2 15  1  0  0  0  0
  7 16  1  0  0  0  0
  7 17  1  0  0  0  0
  7 18  1  0  0  0  0
  8 19  1  0  0  0  0
  8 20  1  0  0  0  0
  8 21  1  0  0  0  0
  9 22  1  0  0  0  0
  9 23  1  0  0  0  0
  9 24  1  0  0  0  0
 11 25  1  0  0  0  0
M  END
> <id>
EN300-266388

> <smiles>
CC(C)(C)C=1C=C(I)C=C(Br)C1O

> <MDLNUMBER>
MFCD22042856

> <IUPAC Name>
2-bromo-6-tert-butyl-4-iodophenol

> <CAS>
60803-27-2

> <Purity>
95

> <URL>
https://www.enaminestore.com/catalog/EN300-266388

> <ROCS_ShapeQuery>
_x1604L0AP1_x0771L0AP1

> <ROCS_TanimotoCombo>
0.976 

> <ROCS_ShapeTanimoto>
0.524 

> <ROCS_ColorTanimoto>
0.451 

> <ROCS_RefTversky>
0.465 

> <ROCS_RefColorTversky>
0.513 

> <ROCS_RefTverskyCombo>
0.978 

> <ROCS_FitTversky>
1.321 

> <ROCS_FitColorTversky>
0.789 

> <ROCS_FitTverskyCombo>
2.111 

> <ROCS_ColorScore>
-4.882

> <ROCS_Overlap>
778.768

> <ROCS_Rank>
220                 

$$$$
untitled-dbase-1679_347
  -OEChem-06052310023D

 25 25  0     1  0  0  0  0  0999 V2000
   -4.3478   11.9916  -31.3784 C   0  0  0  0  0  0  0  0  0  0  0  0
   -5.1030   10.9539  -31.9246 C   0  0  0  0  0  0  0  0  0  0  0  0
   -4.5610   12.3896  -30.0586 C   0  0  0  0  0  0  0  0  0  0  0  0
   -6.0715   10.3142  -31.1510 C   0  0  0  0  0  0  0  0  0  0  0  0
   -6.2848   10.7121  -29.8312 C   0  0  0  0  0  0  0  0  0  0  0  0
   -5.5295   11.7498  -29.2850 C   0  0  0  0  0  0  0  0  0  0  0  0
   -6.8787    9.1937  -31.7629 C   0  0  0  0  0  0  0  0  0  0  0  0
   -7.0750    7.6371  -33.7358 C   0  0  0  0  0  0  0  0  0  0  0  0
   -6.1086    8.4153  -32.8412 C   0  0  2  0  0  0  0  0  0  0  0  0
   -5.1555    7.5083  -32.2358 N   0  0  0  0  0  0  0  0  0  0  0  0
   -7.2371   10.0776  -29.0876 O   0  0  0  0  0  0  0  0  0  0  0  0
   -6.3633    6.6150  -34.4245 O   0  0  0  0  0  0  0  0  0  0  0  0
   -5.7883   12.3193  -27.4954 Br  0  0  0  0  0  0  0  0  0  0  0  0
   -3.5933   12.4895  -31.9805 H   0  0  0  0  0  0  0  0  0  0  0  0
   -4.9287   10.6486  -32.9529 H   0  0  0  0  0  0  0  0  0  0  0  0
   -3.9623   13.1999  -29.6501 H   0  0  0  0  0  0  0  0  0  0  0  0
   -7.2180    8.5109  -30.9725 H   0  0  0  0  0  0  0  0  0  0  0  0
   -7.7898    9.6300  -32.1933 H   0  0  0  0  0  0  0  0  0  0  0  0
   -7.5226    8.2955  -34.4876 H   0  0  0  0  0  0  0  0  0  0  0  0
   -7.8755    7.1702  -33.1517 H   0  0  0  0  0  0  0  0  0  0  0  0
   -5.5157    9.0967  -33.4631 H   0  0  0  0  0  0  0  0  0  0  0  0
   -5.2143    7.5926  -31.2448 H   0  0  0  0  0  0  0  0  0  0  0  0
   -5.3759    6.5771  -32.5132 H   0  0  0  0  0  0  0  0  0  0  0  0
   -7.2722   10.4584  -28.1970 H   0  0  0  0  0  0  0  0  0  0  0  0
   -5.6825    7.0589  -34.9547 H   0  0  0  0  0  0  0  0  0  0  0  0
  1  2  1  0  0  0  0
  1  3  2  0  0  0  0
  2  4  2  0  0  0  0
  3  6  1  0  0  0  0
  4  5  1  0  0  0  0
  4  7  1  0  0  0  0
  5  6  2  0  0  0  0
  5 11  1  0  0  0  0
  6 13  1  0  0  0  0
  7  9  1  0  0  0  0
  8  9  1  0  0  0  0
  8 12  1  0  0  0  0
  9 10  1  0  0  0  0
  1 14  1  0  0  0  0
  2 15  1  0  0  0  0
  3 16  1  0  0  0  0
  7 17  1  0  0  0  0
  7 18  1  0  0  0  0
  8 19  1  0  0  0  0
  8 20  1  0  0  0  0
  9 21  1  0  0  0  0
 10 22  1  0  0  0  0
 10 23  1  0  0  0  0
 11 24  1  0  0  0  0
 12 25  1  0  0  0  0
M  END
> <id>
EN300-1923097

> <smiles>
NC(CO)CC=1C=CC=C(Br)C1O

> <IUPAC Name>
2-(2-amino-3-hydroxypropyl)-6-bromophenol

> <CAS>
2228277-04-9

> <URL>
https://www.enaminestore.com/catalog/EN300-1923097

> <ROCS_ShapeQuery>
_x1604L0AP1_x0771L0AP1

> <ROCS_TanimotoCombo>
0.975 

> <ROCS_ShapeTanimoto>
0.488 

> <ROCS_ColorTanimoto>
0.488 

> <ROCS_RefTversky>
0.445 

> <ROCS_RefColorTversky>
0.604 

> <ROCS_RefTverskyCombo>
1.048 

> <ROCS_FitTversky>
1.246 

> <ROCS_FitColorTversky>
0.718 

> <ROCS_FitTverskyCombo>
1.964 

> <ROCS_ColorScore>
-5.804

> <ROCS_Overlap>
745.032

> <ROCS_Rank>
221                 

$$$$
untitled-dbase-886_16
  -OEChem-06052310023D

 31 32  0     0  0  0  0  0  0999 V2000
   -4.2841   12.3128  -31.0480 C   0  0  0  0  0  0  0  0  0  0  0  0
   -4.9625   11.3119  -31.7433 C   0  0  0  0  0  0  0  0  0  0  0  0
   -4.5888   12.5617  -29.7098 C   0  0  0  0  0  0  0  0  0  0  0  0
   -5.9456   10.5597  -31.1004 C   0  0  0  0  0  0  0  0  0  0  0  0
   -6.2504   10.8086  -29.7621 C   0  0  0  0  0  0  0  0  0  0  0  0
   -5.5719   11.8095  -29.0668 C   0  0  0  0  0  0  0  0  0  0  0  0
   -6.2809   10.6593  -34.1759 C   0  0  0  0  0  0  0  0  0  0  0  0
   -7.1535    9.4714  -34.4588 C   0  0  0  0  0  0  0  0  0  0  0  0
   -6.1449    9.4106  -33.3332 C   0  0  0  0  0  0  0  0  0  0  0  0
   -8.1944    9.7703  -31.9168 C   0  0  0  0  0  0  0  0  0  0  0  0
   -6.5165    8.0468  -31.2878 C   0  0  0  0  0  0  0  0  0  0  0  0
   -6.6817    9.4622  -31.8864 C   0  0  0  0  0  0  0  0  0  0  0  0
   -4.9421    8.5689  -33.5078 N   0  0  0  0  0  0  0  0  0  0  0  0
   -7.2159   10.0654  -29.1474 O   0  0  0  0  0  0  0  0  0  0  0  0
   -5.9562   12.1776  -27.2472 Br  0  0  0  0  0  0  0  0  0  0  0  0
   -3.5183   12.8982  -31.5484 H   0  0  0  0  0  0  0  0  0  0  0  0
   -4.7171   11.1231  -32.7851 H   0  0  0  0  0  0  0  0  0  0  0  0
   -4.0492   13.3455  -29.1842 H   0  0  0  0  0  0  0  0  0  0  0  0
   -5.5010   10.8915  -34.8920 H   0  0  0  0  0  0  0  0  0  0  0  0
   -6.7479   11.5336  -33.7377 H   0  0  0  0  0  0  0  0  0  0  0  0
   -8.2054    9.5490  -34.2103 H   0  0  0  0  0  0  0  0  0  0  0  0
   -6.9571    8.9083  -35.3639 H   0  0  0  0  0  0  0  0  0  0  0  0
   -8.7610    9.0120  -32.4683 H   0  0  0  0  0  0  0  0  0  0  0  0
   -8.6108    9.8068  -30.9033 H   0  0  0  0  0  0  0  0  0  0  0  0
   -8.3903   10.7383  -32.3930 H   0  0  0  0  0  0  0  0  0  0  0  0
   -7.0581    7.3009  -31.8819 H   0  0  0  0  0  0  0  0  0  0  0  0
   -5.4647    7.7382  -31.2655 H   0  0  0  0  0  0  0  0  0  0  0  0
   -6.9103    7.9922  -30.2662 H   0  0  0  0  0  0  0  0  0  0  0  0
   -4.9289    8.2688  -34.4480 H   0  0  0  0  0  0  0  0  0  0  0  0
   -4.1591    9.1306  -33.2942 H   0  0  0  0  0  0  0  0  0  0  0  0
   -7.3178   10.3488  -28.2261 H   0  0  0  0  0  0  0  0  0  0  0  0
  1  2  1  0  0  0  0
  1  3  2  0  0  0  0
  2  4  2  0  0  0  0
  3  6  1  0  0  0  0
  4  5  1  0  0  0  0
  4 12  1  0  0  0  0
  5  6  2  0  0  0  0
  5 14  1  0  0  0  0
  6 15  1  0  0  0  0
  7  8  1  0  0  0  0
  7  9  1  0  0  0  0
  8  9  1  0  0  0  0
  9 12  1  0  0  0  0
  9 13  1  0  0  0  0
 10 12  1  0  0  0  0
 11 12  1  0  0  0  0
  1 16  1  0  0  0  0
  2 17  1  0  0  0  0
  3 18  1  0  0  0  0
  7 19  1  0  0  0  0
  7 20  1  0  0  0  0
  8 21  1  0  0  0  0
  8 22  1  0  0  0  0
 10 23  1  0  0  0  0
 10 24  1  0  0  0  0
 10 25  1  0  0  0  0
 11 26  1  0  0  0  0
 11 27  1  0  0  0  0
 11 28  1  0  0  0  0
 13 29  1  0  0  0  0
 13 30  1  0  0  0  0
 14 31  1  0  0  0  0
M  END
> <id>
EN300-1923491

> <smiles>
CC(C)(C=1C=CC=C(Br)C1O)C2(N)CC2

> <IUPAC Name>
2-[2-(1-aminocyclopropyl)propan-2-yl]-6-bromophenol

> <CAS>
2228733-63-7

> <URL>
https://www.enaminestore.com/catalog/EN300-1923491

> <ROCS_ShapeQuery>
_x1604L0AP1_x0771L0AP1

> <ROCS_TanimotoCombo>
0.975 

> <ROCS_ShapeTanimoto>
0.571 

> <ROCS_ColorTanimoto>
0.404 

> <ROCS_RefTversky>
0.515 

> <ROCS_RefColorTversky>
0.502 

> <ROCS_RefTverskyCombo>
1.017 

> <ROCS_FitTversky>
1.237 

> <ROCS_FitColorTversky>
0.673 

> <ROCS_FitTverskyCombo>
1.910 

> <ROCS_ColorScore>
-4.803

> <ROCS_Overlap>
865.242

> <ROCS_Rank>
222                 

$$$$
untitled-dbase-1755_17
  -OEChem-06052310023D

 20 20  0     0  0  0  0  0  0999 V2000
   -6.0286    7.6308  -33.6453 C   0  0  0  0  0  0  0  0  0  0  0  0
   -4.8058   11.2152  -31.6591 C   0  0  0  0  0  0  0  0  0  0  0  0
   -4.7773   12.6919  -29.7471 C   0  0  0  0  0  0  0  0  0  0  0  0
   -5.7849   10.4361  -31.0428 C   0  0  0  0  0  0  0  0  0  0  0  0
   -6.2603   10.7849  -29.7786 C   0  0  0  0  0  0  0  0  0  0  0  0
   -4.3019   12.3431  -31.0112 C   0  0  0  0  0  0  0  0  0  0  0  0
   -5.7565   11.9128  -29.1308 C   0  0  0  0  0  0  0  0  0  0  0  0
   -5.4591    8.7977  -32.9553 C   0  0  0  0  0  0  0  0  0  0  0  0
   -6.3107    9.2326  -31.7540 C   0  0  0  0  0  0  0  0  0  0  0  0
   -6.4781    6.7112  -34.1916 N   0  0  0  0  0  0  0  0  0  0  0  0
   -7.2184   10.0124  -29.1887 O   0  0  0  0  0  0  0  0  0  0  0  0
   -3.0935   13.3040  -31.7721 Cl  0  0  0  0  0  0  0  0  0  0  0  0
   -6.3772   12.4189  -27.4122 Br  0  0  0  0  0  0  0  0  0  0  0  0
   -4.4380   10.9400  -32.6453 H   0  0  0  0  0  0  0  0  0  0  0  0
   -4.3814   13.5719  -29.2450 H   0  0  0  0  0  0  0  0  0  0  0  0
   -4.4521    8.5416  -32.6045 H   0  0  0  0  0  0  0  0  0  0  0  0
   -5.3465    9.6268  -33.6636 H   0  0  0  0  0  0  0  0  0  0  0  0
   -6.3601    8.3902  -31.0464 H   0  0  0  0  0  0  0  0  0  0  0  0
   -7.3491    9.3994  -32.0814 H   0  0  0  0  0  0  0  0  0  0  0  0
   -7.4548    9.2739  -29.7702 H   0  0  0  0  0  0  0  0  0  0  0  0
  1  8  1  0  0  0  0
  1 10  3  0  0  0  0
  2  4  2  0  0  0  0
  2  6  1  0  0  0  0
  3  6  2  0  0  0  0
  3  7  1  0  0  0  0
  4  5  1  0  0  0  0
  4  9  1  0  0  0  0
  5  7  2  0  0  0  0
  5 11  1  0  0  0  0
  6 12  1  0  0  0  0
  7 13  1  0  0  0  0
  8  9  1  0  0  0  0
  2 14  1  0  0  0  0
  3 15  1  0  0  0  0
  8 16  1  0  0  0  0
  8 17  1  0  0  0  0
  9 18  1  0  0  0  0
  9 19  1  0  0  0  0
 11 20  1  0  0  0  0
M  END
> <id>
EN300-1922574

> <smiles>
OC=1C(Br)=CC(Cl)=CC1CCC#N

> <IUPAC Name>
3-(3-bromo-5-chloro-2-hydroxyphenyl)propanenitrile

> <CAS>
2228213-47-4

> <URL>
https://www.enaminestore.com/catalog/EN300-1922574

> <ROCS_ShapeQuery>
_x1604L0AP1_x0771L0AP1

> <ROCS_TanimotoCombo>
0.975 

> <ROCS_ShapeTanimoto>
0.511 

> <ROCS_ColorTanimoto>
0.464 

> <ROCS_RefTversky>
0.458 

> <ROCS_RefColorTversky>
0.492 

> <ROCS_RefTverskyCombo>
0.950 

> <ROCS_FitTversky>
1.293 

> <ROCS_FitColorTversky>
0.889 

> <ROCS_FitTverskyCombo>
2.183 

> <ROCS_ColorScore>
-4.656

> <ROCS_Overlap>
767.401

> <ROCS_Rank>
223                 

$$$$
untitled-dbase-2179_5
  -OEChem-06052310023D

 20 20  0     0  0  0  0  0  0999 V2000
   -4.6040   12.4894  -29.8553 C   0  0  0  0  0  0  0  0  0  0  0  0
   -4.3515   12.1706  -31.1895 C   0  0  0  0  0  0  0  0  0  0  0  0
   -5.5754   11.7870  -29.1421 C   0  0  0  0  0  0  0  0  0  0  0  0
   -5.0706   11.1494  -31.8106 C   0  0  0  0  0  0  0  0  0  0  0  0
   -6.2945   10.7658  -29.7632 C   0  0  0  0  0  0  0  0  0  0  0  0
   -6.0421   10.4470  -31.0975 C   0  0  0  0  0  0  0  0  0  0  0  0
   -5.7905   11.4224  -34.2007 C   0  0  0  0  0  0  0  0  0  0  0  0
   -4.7625   10.8469  -33.2419 C   0  0  0  0  0  0  0  0  0  0  0  0
   -6.8040   10.5707  -34.5530 N   0  0  0  0  0  0  0  0  0  0  0  0
   -7.2366   10.1018  -29.0348 O   0  0  0  0  0  0  0  0  0  0  0  0
   -5.6919   12.9786  -34.8053 S   0  0  0  0  0  0  0  0  0  0  0  0
   -7.0292    9.0517  -31.9341 Br  0  0  0  0  0  0  0  0  0  0  0  0
   -4.0444   13.2848  -29.3718 H   0  0  0  0  0  0  0  0  0  0  0  0
   -3.5923   12.7245  -31.7358 H   0  0  0  0  0  0  0  0  0  0  0  0
   -5.7668   12.0416  -28.1031 H   0  0  0  0  0  0  0  0  0  0  0  0
   -4.6831    9.7589  -33.4027 H   0  0  0  0  0  0  0  0  0  0  0  0
   -3.7684   11.2496  -33.4978 H   0  0  0  0  0  0  0  0  0  0  0  0
   -6.8633    9.6212  -34.1997 H   0  0  0  0  0  0  0  0  0  0  0  0
   -7.5366   10.8652  -35.1900 H   0  0  0  0  0  0  0  0  0  0  0  0
   -7.6612    9.4211  -29.5794 H   0  0  0  0  0  0  0  0  0  0  0  0
  1  2  1  0  0  0  0
  1  3  2  0  0  0  0
  2  4  2  0  0  0  0
  3  5  1  0  0  0  0
  4  6  1  0  0  0  0
  4  8  1  0  0  0  0
  5  6  2  0  0  0  0
  5 10  1  0  0  0  0
  6 12  1  0  0  0  0
  7  8  1  0  0  0  0
  7  9  1  0  0  0  0
  7 11  2  0  0  0  0
  1 13  1  0  0  0  0
  2 14  1  0  0  0  0
  3 15  1  0  0  0  0
  8 16  1  0  0  0  0
  8 17  1  0  0  0  0
  9 18  1  0  0  0  0
  9 19  1  0  0  0  0
 10 20  1  0  0  0  0
M  END
> <id>
EN300-1904632

> <smiles>
NC(=S)CC=1C=CC=C(O)C1Br

> <IUPAC Name>
2-(2-bromo-3-hydroxyphenyl)ethanethioamide

> <CAS>
2228922-33-4

> <URL>
https://www.enaminestore.com/catalog/EN300-1904632

> <ROCS_ShapeQuery>
_x1604L0AP1_x0771L0AP1

> <ROCS_TanimotoCombo>
0.975 

> <ROCS_ShapeTanimoto>
0.477 

> <ROCS_ColorTanimoto>
0.497 

> <ROCS_RefTversky>
0.430 

> <ROCS_RefColorTversky>
0.516 

> <ROCS_RefTverskyCombo>
0.946 

> <ROCS_FitTversky>
1.299 

> <ROCS_FitColorTversky>
0.933 

> <ROCS_FitTverskyCombo>
2.232 

> <ROCS_ColorScore>
-4.883

> <ROCS_Overlap>
719.380

> <ROCS_Rank>
224                 

$$$$
untitled-dbase-64_0
  -OEChem-06052310023D

 14 14  0     0  0  0  0  0  0999 V2000
   -3.8439   13.5263  -29.2735 C   0  0  0  0  0  0  0  0  0  0  0  0
   -4.3509   12.1451  -31.2267 C   0  0  0  0  0  0  0  0  0  0  0  0
   -5.0804   11.1221  -31.8324 C   0  0  0  0  0  0  0  0  0  0  0  0
   -5.5625   11.7895  -29.1669 C   0  0  0  0  0  0  0  0  0  0  0  0
   -4.5919   12.4787  -29.8939 C   0  0  0  0  0  0  0  0  0  0  0  0
   -6.2921   10.7666  -29.7727 C   0  0  0  0  0  0  0  0  0  0  0  0
   -6.0510   10.4329  -31.1055 C   0  0  0  0  0  0  0  0  0  0  0  0
   -3.2364   14.3771  -28.7696 N   0  0  0  0  0  0  0  0  0  0  0  0
   -7.2323   10.1108  -29.0348 O   0  0  0  0  0  0  0  0  0  0  0  0
   -7.0213    9.0476  -31.9608 Br  0  0  0  0  0  0  0  0  0  0  0  0
   -3.5958   12.6720  -31.8056 H   0  0  0  0  0  0  0  0  0  0  0  0
   -4.8778   10.8754  -32.8715 H   0  0  0  0  0  0  0  0  0  0  0  0
   -5.7562   12.0431  -28.1269 H   0  0  0  0  0  0  0  0  0  0  0  0
   -7.6629    9.4283  -29.5726 H   0  0  0  0  0  0  0  0  0  0  0  0
  1  5  1  0  0  0  0
  1  8  3  0  0  0  0
  2  3  1  0  0  0  0
  2  5  2  0  0  0  0
  3  7  2  0  0  0  0
  4  5  1  0  0  0  0
  4  6  2  0  0  0  0
  6  7  1  0  0  0  0
  6  9  1  0  0  0  0
  7 10  1  0  0  0  0
  2 11  1  0  0  0  0
  3 12  1  0  0  0  0
  4 13  1  0  0  0  0
  9 14  1  0  0  0  0
M  END
> <id>
EN300-223878

> <smiles>
OC=1C=C(C#N)C=CC1Br

> <MDLNUMBER>
MFCD16999194

> <IUPAC Name>
4-bromo-3-hydroxybenzonitrile

> <CAS>
916213-60-0

> <Purity>
95

> <URL>
https://www.enaminestore.com/catalog/EN300-223878

> <MP>
158-160

> <ROCS_ShapeQuery>
_x1604L0AP1_x0771L0AP1

> <ROCS_TanimotoCombo>
0.975 

> <ROCS_ShapeTanimoto>
0.478 

> <ROCS_ColorTanimoto>
0.497 

> <ROCS_RefTversky>
0.418 

> <ROCS_RefColorTversky>
0.515 

> <ROCS_RefTverskyCombo>
0.933 

> <ROCS_FitTversky>
1.434 

> <ROCS_FitColorTversky>
0.932 

> <ROCS_FitTverskyCombo>
2.366 

> <ROCS_ColorScore>
-4.878

> <ROCS_Overlap>
697.128

> <ROCS_Rank>
225                 

$$$$
untitled-dbase-1247_14
  -OEChem-06052310023D

 25 25  0     0  0  0  0  0  0999 V2000
   -4.6044   12.4901  -29.8480 C   0  0  0  0  0  0  0  0  0  0  0  0
   -4.3519   12.1751  -31.1831 C   0  0  0  0  0  0  0  0  0  0  0  0
   -5.5758   11.7857  -29.1369 C   0  0  0  0  0  0  0  0  0  0  0  0
   -5.0709   11.1556  -31.8072 C   0  0  0  0  0  0  0  0  0  0  0  0
   -6.2949   10.7662  -29.7609 C   0  0  0  0  0  0  0  0  0  0  0  0
   -6.0424   10.4512  -31.0960 C   0  0  0  0  0  0  0  0  0  0  0  0
   -3.6570    9.7950  -33.4575 C   0  0  0  0  0  0  0  0  0  0  0  0
   -4.3737   12.1473  -33.9930 C   0  0  0  0  0  0  0  0  0  0  0  0
   -4.7628   10.8571  -33.2393 C   0  0  0  0  0  0  0  0  0  0  0  0
   -6.7718   11.4503  -34.2334 N   0  0  0  0  0  0  0  0  0  0  0  0
   -7.2369   10.1002  -29.0343 O   0  0  0  0  0  0  0  0  0  0  0  0
   -5.9291   10.3208  -33.9027 O   0  0  0  0  0  0  0  0  0  0  0  0
   -7.0294    9.0582  -31.9366 Br  0  0  0  0  0  0  0  0  0  0  0  0
   -4.0449   13.2842  -29.3623 H   0  0  0  0  0  0  0  0  0  0  0  0
   -3.5927   12.7306  -31.7279 H   0  0  0  0  0  0  0  0  0  0  0  0
   -5.7672   12.0374  -28.0971 H   0  0  0  0  0  0  0  0  0  0  0  0
   -3.4696    9.6130  -34.5226 H   0  0  0  0  0  0  0  0  0  0  0  0
   -2.7063   10.0881  -33.0012 H   0  0  0  0  0  0  0  0  0  0  0  0
   -3.9647    8.8336  -33.0293 H   0  0  0  0  0  0  0  0  0  0  0  0
   -4.1427   11.9544  -35.0471 H   0  0  0  0  0  0  0  0  0  0  0  0
   -3.5045   12.6299  -33.5330 H   0  0  0  0  0  0  0  0  0  0  0  0
   -5.2047   12.8629  -33.9855 H   0  0  0  0  0  0  0  0  0  0  0  0
   -7.6417   11.1565  -33.7917 H   0  0  0  0  0  0  0  0  0  0  0  0
   -6.8877   11.2973  -35.2340 H   0  0  0  0  0  0  0  0  0  0  0  0
   -7.6615    9.4210  -29.5809 H   0  0  0  0  0  0  0  0  0  0  0  0
  1  2  1  0  0  0  0
  1  3  2  0  0  0  0
  2  4  2  0  0  0  0
  3  5  1  0  0  0  0
  4  6  1  0  0  0  0
  4  9  1  0  0  0  0
  5  6  2  0  0  0  0
  5 11  1  0  0  0  0
  6 13  1  0  0  0  0
  7  9  1  0  0  0  0
  8  9  1  0  0  0  0
  9 12  1  0  0  0  0
 10 12  1  0  0  0  0
  1 14  1  0  0  0  0
  2 15  1  0  0  0  0
  3 16  1  0  0  0  0
  7 17  1  0  0  0  0
  7 18  1  0  0  0  0
  7 19  1  0  0  0  0
  8 20  1  0  0  0  0
  8 21  1  0  0  0  0
  8 22  1  0  0  0  0
 10 23  1  0  0  0  0
 10 24  1  0  0  0  0
 11 25  1  0  0  0  0
M  END
> <id>
EN300-1904535

> <smiles>
CC(C)(ON)C=1C=CC=C(O)C1Br

> <IUPAC Name>
3-[2-(aminooxy)propan-2-yl]-2-bromophenol

> <CAS>
2228745-91-1

> <URL>
https://www.enaminestore.com/catalog/EN300-1904535

> <ROCS_ShapeQuery>
_x1604L0AP1_x0771L0AP1

> <ROCS_TanimotoCombo>
0.974 

> <ROCS_ShapeTanimoto>
0.477 

> <ROCS_ColorTanimoto>
0.497 

> <ROCS_RefTversky>
0.441 

> <ROCS_RefColorTversky>
0.516 

> <ROCS_RefTverskyCombo>
0.957 

> <ROCS_FitTversky>
1.209 

> <ROCS_FitColorTversky>
0.933 

> <ROCS_FitTverskyCombo>
2.142 

> <ROCS_ColorScore>
-4.883

> <ROCS_Overlap>
738.495

> <ROCS_Rank>
226                 

$$$$
untitled-dbase-2076_253
  -OEChem-06052310023D

 25 25  0     1  0  0  0  0  0999 V2000
   -4.5669   12.4482  -29.8203 C   0  0  0  0  0  0  0  0  0  0  0  0
   -5.5589   11.7637  -29.1182 C   0  0  0  0  0  0  0  0  0  0  0  0
   -5.0371   11.1181  -31.7817 C   0  0  0  0  0  0  0  0  0  0  0  0
   -4.3060   12.1255  -31.1521 C   0  0  0  0  0  0  0  0  0  0  0  0
   -6.2899   10.7563  -29.7478 C   0  0  0  0  0  0  0  0  0  0  0  0
   -6.0290   10.4335  -31.0796 C   0  0  0  0  0  0  0  0  0  0  0  0
   -3.0322   14.2855  -31.3588 C   0  0  0  0  0  0  0  0  0  0  0  0
   -3.5126   12.9185  -33.4231 C   0  0  0  0  0  0  0  0  0  0  0  0
   -3.2451   12.8579  -31.9016 C   0  0  2  0  0  0  0  0  0  0  0  0
   -5.1900   12.6934  -35.0081 N   0  0  0  0  0  0  0  0  0  0  0  0
   -7.2513   10.1052  -29.0336 O   0  0  0  0  0  0  0  0  0  0  0  0
   -4.9050   13.1119  -33.6453 O   0  0  0  0  0  0  0  0  0  0  0  0
   -7.0016    9.0694  -31.9662 Br  0  0  0  0  0  0  0  0  0  0  0  0
   -4.0027   13.2315  -29.3207 H   0  0  0  0  0  0  0  0  0  0  0  0
   -5.7565   12.0207  -28.0809 H   0  0  0  0  0  0  0  0  0  0  0  0
   -4.8271   10.8735  -32.8207 H   0  0  0  0  0  0  0  0  0  0  0  0
   -3.9440   14.8871  -31.4399 H   0  0  0  0  0  0  0  0  0  0  0  0
   -2.7344   14.2751  -30.3047 H   0  0  0  0  0  0  0  0  0  0  0  0
   -2.2441   14.7954  -31.9241 H   0  0  0  0  0  0  0  0  0  0  0  0
   -3.2251   11.9831  -33.9153 H   0  0  0  0  0  0  0  0  0  0  0  0
   -2.9657   13.7392  -33.8987 H   0  0  0  0  0  0  0  0  0  0  0  0
   -2.2772   12.3331  -31.7775 H   0  0  0  0  0  0  0  0  0  0  0  0
   -5.6375   13.5343  -35.3697 H   0  0  0  0  0  0  0  0  0  0  0  0
   -5.9334   12.0168  -34.8421 H   0  0  0  0  0  0  0  0  0  0  0  0
   -7.6808    9.4337  -29.5859 H   0  0  0  0  0  0  0  0  0  0  0  0
  1  2  1  0  0  0  0
  1  4  2  0  0  0  0
  2  5  2  0  0  0  0
  3  4  1  0  0  0  0
  3  6  2  0  0  0  0
  4  9  1  0  0  0  0
  5  6  1  0  0  0  0
  5 11  1  0  0  0  0
  6 13  1  0  0  0  0
  7  9  1  0  0  0  0
  8  9  1  0  0  0  0
  8 12  1  0  0  0  0
 10 12  1  0  0  0  0
  1 14  1  0  0  0  0
  2 15  1  0  0  0  0
  3 16  1  0  0  0  0
  7 17  1  0  0  0  0
  7 18  1  0  0  0  0
  7 19  1  0  0  0  0
  8 20  1  0  0  0  0
  8 21  1  0  0  0  0
  9 22  1  0  0  0  0
 10 23  1  0  0  0  0
 10 24  1  0  0  0  0
 11 25  1  0  0  0  0
M  END
> <id>
EN300-1906346

> <smiles>
CC(CON)C=1C=CC(O)=C(Br)C1

> <IUPAC Name>
4-[1-(aminooxy)propan-2-yl]-2-bromophenol

> <CAS>
2229144-00-5

> <URL>
https://www.enaminestore.com/catalog/EN300-1906346

> <ROCS_ShapeQuery>
_x1604L0AP1_x0771L0AP1

> <ROCS_TanimotoCombo>
0.974 

> <ROCS_ShapeTanimoto>
0.477 

> <ROCS_ColorTanimoto>
0.497 

> <ROCS_RefTversky>
0.438 

> <ROCS_RefColorTversky>
0.515 

> <ROCS_RefTverskyCombo>
0.953 

> <ROCS_FitTversky>
1.231 

> <ROCS_FitColorTversky>
0.932 

> <ROCS_FitTverskyCombo>
2.163 

> <ROCS_ColorScore>
-4.878

> <ROCS_Overlap>
733.828

> <ROCS_Rank>
227                 

$$$$
untitled-dbase-2125_20
  -OEChem-06052310023D

 17 17  0     0  0  0  0  0  0999 V2000
   -4.3382   12.1444  -31.2107 C   0  0  0  0  0  0  0  0  0  0  0  0
   -4.5809   12.4777  -29.8783 C   0  0  0  0  0  0  0  0  0  0  0  0
   -5.0697   11.1242  -31.8189 C   0  0  0  0  0  0  0  0  0  0  0  0
   -5.5551   11.7908  -29.1538 C   0  0  0  0  0  0  0  0  0  0  0  0
   -6.2866   10.7706  -29.7619 C   0  0  0  0  0  0  0  0  0  0  0  0
   -6.0439   10.4373  -31.0945 C   0  0  0  0  0  0  0  0  0  0  0  0
   -5.7979   12.1630  -27.7281 C   0  0  0  0  0  0  0  0  0  0  0  0
   -7.2352   10.1066  -29.0396 O   0  0  0  0  0  0  0  0  0  0  0  0
   -5.0227   13.7456  -27.2813 S   0  0  0  0  0  0  0  0  0  0  0  0
   -7.0172    9.0580  -31.9571 Br  0  0  0  0  0  0  0  0  0  0  0  0
   -3.5800   12.6795  -31.7750 H   0  0  0  0  0  0  0  0  0  0  0  0
   -4.0080   13.2755  -29.4130 H   0  0  0  0  0  0  0  0  0  0  0  0
   -4.8668   10.8789  -32.8584 H   0  0  0  0  0  0  0  0  0  0  0  0
   -6.8754   12.2340  -27.5218 H   0  0  0  0  0  0  0  0  0  0  0  0
   -5.4100   11.3862  -27.0539 H   0  0  0  0  0  0  0  0  0  0  0  0
   -7.6587    9.4299  -29.5892 H   0  0  0  0  0  0  0  0  0  0  0  0
   -5.6898   14.4852  -28.1770 H   0  0  0  0  0  0  0  0  0  0  0  0
  1  2  1  0  0  0  0
  1  3  2  0  0  0  0
  2  4  2  0  0  0  0
  3  6  1  0  0  0  0
  4  5  1  0  0  0  0
  4  7  1  0  0  0  0
  5  6  2  0  0  0  0
  5  8  1  0  0  0  0
  6 10  1  0  0  0  0
  7  9  1  0  0  0  0
  1 11  1  0  0  0  0
  2 12  1  0  0  0  0
  3 13  1  0  0  0  0
  7 14  1  0  0  0  0
  7 15  1  0  0  0  0
  8 16  1  0  0  0  0
  9 17  1  0  0  0  0
M  END
> <id>
EN300-1288163

> <smiles>
OC=1C(Br)=CC=CC1CS

> <MDLNUMBER>
MFCD33497121

> <IUPAC Name>
2-bromo-6-(sulfanylmethyl)phenol

> <CAS>
2172105-14-3

> <URL>
https://www.enaminestore.com/catalog/EN300-1288163

> <ROCS_ShapeQuery>
_x1604L0AP1_x0771L0AP1

> <ROCS_TanimotoCombo>
0.974 

> <ROCS_ShapeTanimoto>
0.421 

> <ROCS_ColorTanimoto>
0.553 

> <ROCS_RefTversky>
0.380 

> <ROCS_RefColorTversky>
0.518 

> <ROCS_RefTverskyCombo>
0.898 

> <ROCS_FitTversky>
1.340 

> <ROCS_FitColorTversky>
1.139 

> <ROCS_FitTverskyCombo>
2.479 

> <ROCS_ColorScore>
-4.880

> <ROCS_Overlap>
634.086

> <ROCS_Rank>
228                 

$$$$
untitled-dbase-958_134
  -OEChem-06052310023D

 24 24  0     0  0  0  0  0  0999 V2000
   -4.3877   11.8780  -31.4698 C   0  0  0  0  0  0  0  0  0  0  0  0
   -5.1746   10.8282  -31.9434 C   0  0  0  0  0  0  0  0  0  0  0  0
   -4.5585   12.3448  -30.1665 C   0  0  0  0  0  0  0  0  0  0  0  0
   -6.1323   10.2452  -31.1137 C   0  0  0  0  0  0  0  0  0  0  0  0
   -6.3032   10.7119  -29.8104 C   0  0  0  0  0  0  0  0  0  0  0  0
   -5.5162   11.7617  -29.3368 C   0  0  0  0  0  0  0  0  0  0  0  0
   -6.9741    9.1108  -31.6472 C   0  0  0  0  0  0  0  0  0  0  0  0
   -6.9097    7.1441  -33.2902 C   0  0  0  0  0  0  0  0  0  0  0  0
   -6.4210    8.5492  -32.9564 C   0  0  0  0  0  0  0  0  0  0  0  0
   -6.3141    6.6296  -34.5161 N   0  0  0  0  0  0  0  0  0  0  0  0
   -7.2455   10.1323  -29.0113 O   0  0  0  0  0  0  0  0  0  0  0  0
   -5.0617    8.5120  -32.8929 F   0  0  0  0  0  0  0  0  0  0  0  0
   -6.7329    9.3802  -33.9855 F   0  0  0  0  0  0  0  0  0  0  0  0
   -5.7171   12.4238  -27.5718 Br  0  0  0  0  0  0  0  0  0  0  0  0
   -3.6416   12.3318  -32.1156 H   0  0  0  0  0  0  0  0  0  0  0  0
   -5.0332   10.4692  -32.9594 H   0  0  0  0  0  0  0  0  0  0  0  0
   -3.9356   13.1635  -29.8149 H   0  0  0  0  0  0  0  0  0  0  0  0
   -7.0208    8.3181  -30.8901 H   0  0  0  0  0  0  0  0  0  0  0  0
   -7.9993    9.4752  -31.7844 H   0  0  0  0  0  0  0  0  0  0  0  0
   -8.0013    7.1397  -33.3803 H   0  0  0  0  0  0  0  0  0  0  0  0
   -6.6551    6.4722  -32.4629 H   0  0  0  0  0  0  0  0  0  0  0  0
   -5.7331    7.3363  -34.9038 H   0  0  0  0  0  0  0  0  0  0  0  0
   -5.7786    5.8236  -34.2904 H   0  0  0  0  0  0  0  0  0  0  0  0
   -7.2502   10.5574  -28.1403 H   0  0  0  0  0  0  0  0  0  0  0  0
  1  2  1  0  0  0  0
  1  3  2  0  0  0  0
  2  4  2  0  0  0  0
  3  6  1  0  0  0  0
  4  5  1  0  0  0  0
  4  7  1  0  0  0  0
  5  6  2  0  0  0  0
  5 11  1  0  0  0  0
  6 14  1  0  0  0  0
  7  9  1  0  0  0  0
  8  9  1  0  0  0  0
  8 10  1  0  0  0  0
  9 12  1  0  0  0  0
  9 13  1  0  0  0  0
  1 15  1  0  0  0  0
  2 16  1  0  0  0  0
  3 17  1  0  0  0  0
  7 18  1  0  0  0  0
  7 19  1  0  0  0  0
  8 20  1  0  0  0  0
  8 21  1  0  0  0  0
 10 22  1  0  0  0  0
 10 23  1  0  0  0  0
 11 24  1  0  0  0  0
M  END
> <id>
EN300-1963209

> <smiles>
NCC(F)(F)CC=1C=CC=C(Br)C1O

> <IUPAC Name>
2-(3-amino-2,2-difluoropropyl)-6-bromophenol

> <CAS>
2228634-10-2

> <URL>
https://www.enaminestore.com/catalog/EN300-1963209

> <ROCS_ShapeQuery>
_x1604L0AP1_x0771L0AP1

> <ROCS_TanimotoCombo>
0.974 

> <ROCS_ShapeTanimoto>
0.534 

> <ROCS_ColorTanimoto>
0.440 

> <ROCS_RefTversky>
0.484 

> <ROCS_RefColorTversky>
0.504 

> <ROCS_RefTverskyCombo>
0.988 

> <ROCS_FitTversky>
1.243 

> <ROCS_FitColorTversky>
0.775 

> <ROCS_FitTverskyCombo>
2.018 

> <ROCS_ColorScore>
-4.795

> <ROCS_Overlap>
811.709

> <ROCS_Rank>
229                 

$$$$
untitled-dbase-1702_107
  -OEChem-06052310023D

 20 20  0     0  0  0  0  0  0999 V2000
   -4.6186   12.4983  -29.8554 C   0  0  0  0  0  0  0  0  0  0  0  0
   -5.5869   11.7939  -29.1400 C   0  0  0  0  0  0  0  0  0  0  0  0
   -5.0833   11.1539  -31.8083 C   0  0  0  0  0  0  0  0  0  0  0  0
   -4.3668   12.1783  -31.1895 C   0  0  0  0  0  0  0  0  0  0  0  0
   -6.3035   10.7695  -29.7588 C   0  0  0  0  0  0  0  0  0  0  0  0
   -6.0517   10.4495  -31.0929 C   0  0  0  0  0  0  0  0  0  0  0  0
   -3.3311   12.9319  -31.9532 C   0  0  0  0  0  0  0  0  0  0  0  0
   -2.1915   13.4497  -31.0732 C   0  0  0  0  0  0  0  0  0  0  0  0
   -7.2419   10.0993  -29.0317 O   0  0  0  0  0  0  0  0  0  0  0  0
   -2.7175   14.2977  -30.0603 O   0  0  0  0  0  0  0  0  0  0  0  0
   -7.0050    9.0627  -31.9651 Br  0  0  0  0  0  0  0  0  0  0  0  0
   -4.0656   13.2946  -29.3642 H   0  0  0  0  0  0  0  0  0  0  0  0
   -5.7776   12.0489  -28.1009 H   0  0  0  0  0  0  0  0  0  0  0  0
   -4.8806   10.9116  -32.8493 H   0  0  0  0  0  0  0  0  0  0  0  0
   -2.9117   12.2970  -32.7494 H   0  0  0  0  0  0  0  0  0  0  0  0
   -3.7981   13.7899  -32.4608 H   0  0  0  0  0  0  0  0  0  0  0  0
   -1.6859   12.6130  -30.5805 H   0  0  0  0  0  0  0  0  0  0  0  0
   -1.4548   14.0117  -31.6568 H   0  0  0  0  0  0  0  0  0  0  0  0
   -7.6633    9.4174  -29.5775 H   0  0  0  0  0  0  0  0  0  0  0  0
   -1.9632   14.6007  -29.5298 H   0  0  0  0  0  0  0  0  0  0  0  0
  1  2  1  0  0  0  0
  1  4  2  0  0  0  0
  2  5  2  0  0  0  0
  3  4  1  0  0  0  0
  3  6  2  0  0  0  0
  4  7  1  0  0  0  0
  5  6  1  0  0  0  0
  5  9  1  0  0  0  0
  6 11  1  0  0  0  0
  7  8  1  0  0  0  0
  8 10  1  0  0  0  0
  1 12  1  0  0  0  0
  2 13  1  0  0  0  0
  3 14  1  0  0  0  0
  7 15  1  0  0  0  0
  7 16  1  0  0  0  0
  8 17  1  0  0  0  0
  8 18  1  0  0  0  0
  9 19  1  0  0  0  0
 10 20  1  0  0  0  0
M  END
> <id>
EN300-1898192

> <smiles>
OCCC=1C=CC(O)=C(Br)C1

> <MDLNUMBER>
MFCD00033225

> <IUPAC Name>
2-bromo-4-(2-hydroxyethyl)phenol

> <CAS>
196081-78-4

> <URL>
https://www.enaminestore.com/catalog/EN300-1898192

> <ROCS_ShapeQuery>
_x1604L0AP1_x0771L0AP1

> <ROCS_TanimotoCombo>
0.974 

> <ROCS_ShapeTanimoto>
0.523 

> <ROCS_ColorTanimoto>
0.451 

> <ROCS_RefTversky>
0.450 

> <ROCS_RefColorTversky>
0.513 

> <ROCS_RefTverskyCombo>
0.962 

> <ROCS_FitTversky>
1.451 

> <ROCS_FitColorTversky>
0.789 

> <ROCS_FitTverskyCombo>
2.239 

> <ROCS_ColorScore>
-4.877

> <ROCS_Overlap>
751.774

> <ROCS_Rank>
230                 

$$$$
untitled-dbase-1821_232
  -OEChem-06052310023D

 24 24  0     1  0  0  0  0  0999 V2000
   -4.3670   11.9688  -31.4120 C   0  0  0  0  0  0  0  0  0  0  0  0
   -5.1597   10.9581  -31.9558 C   0  0  0  0  0  0  0  0  0  0  0  0
   -4.5367   12.3481  -30.0805 C   0  0  0  0  0  0  0  0  0  0  0  0
   -6.1222   10.3267  -31.1680 C   0  0  0  0  0  0  0  0  0  0  0  0
   -6.2920   10.7060  -29.8365 C   0  0  0  0  0  0  0  0  0  0  0  0
   -5.4993   11.7168  -29.2927 C   0  0  0  0  0  0  0  0  0  0  0  0
   -6.9705    9.2355  -31.7775 C   0  0  0  0  0  0  0  0  0  0  0  0
   -7.0842    7.3302  -33.4242 C   0  0  0  0  0  0  0  0  0  0  0  0
   -6.2303    8.4745  -32.8824 C   0  0  2  0  0  0  0  0  0  0  0  0
   -7.2390   10.0800  -29.0790 O   0  0  0  0  0  0  0  0  0  0  0  0
   -6.3619    6.6192  -34.4244 O   0  0  0  0  0  0  0  0  0  0  0  0
   -5.0342    7.9207  -32.3305 O   0  0  0  0  0  0  0  0  0  0  0  0
   -5.6985   12.2602  -27.4875 Br  0  0  0  0  0  0  0  0  0  0  0  0
   -3.6172   12.4601  -32.0252 H   0  0  0  0  0  0  0  0  0  0  0  0
   -5.0191   10.6672  -32.9934 H   0  0  0  0  0  0  0  0  0  0  0  0
   -3.9093   13.1375  -29.6741 H   0  0  0  0  0  0  0  0  0  0  0  0
   -7.2877    8.5435  -30.9865 H   0  0  0  0  0  0  0  0  0  0  0  0
   -7.8853    9.6931  -32.1755 H   0  0  0  0  0  0  0  0  0  0  0  0
   -7.3331    6.6157  -32.6331 H   0  0  0  0  0  0  0  0  0  0  0  0
   -8.0121    7.6973  -33.8738 H   0  0  0  0  0  0  0  0  0  0  0  0
   -5.9337    9.1451  -33.6974 H   0  0  0  0  0  0  0  0  0  0  0  0
   -7.2423   10.4458  -28.1814 H   0  0  0  0  0  0  0  0  0  0  0  0
   -6.9441    5.9077  -34.7341 H   0  0  0  0  0  0  0  0  0  0  0  0
   -4.5938    7.4491  -33.0530 H   0  0  0  0  0  0  0  0  0  0  0  0
  1  2  1  0  0  0  0
  1  3  2  0  0  0  0
  2  4  2  0  0  0  0
  3  6  1  0  0  0  0
  4  5  1  0  0  0  0
  4  7  1  0  0  0  0
  5  6  2  0  0  0  0
  5 10  1  0  0  0  0
  6 13  1  0  0  0  0
  7  9  1  0  0  0  0
  8  9  1  0  0  0  0
  8 11  1  0  0  0  0
  9 12  1  0  0  0  0
  1 14  1  0  0  0  0
  2 15  1  0  0  0  0
  3 16  1  0  0  0  0
  7 17  1  0  0  0  0
  7 18  1  0  0  0  0
  8 19  1  0  0  0  0
  8 20  1  0  0  0  0
  9 21  1  0  0  0  0
 10 22  1  0  0  0  0
 11 23  1  0  0  0  0
 12 24  1  0  0  0  0
M  END
> <id>
EN300-37476120

> <smiles>
OCC(O)CC=1C=CC=C(Br)C1O

> <IUPAC Name>
3-(3-bromo-2-hydroxyphenyl)propane-1,2-diol

> <URL>
https://www.enaminestore.com/catalog/EN300-37476120

> <ROCS_ShapeQuery>
_x1604L0AP1_x0771L0AP1

> <ROCS_TanimotoCombo>
0.974 

> <ROCS_ShapeTanimoto>
0.487 

> <ROCS_ColorTanimoto>
0.487 

> <ROCS_RefTversky>
0.445 

> <ROCS_RefColorTversky>
0.603 

> <ROCS_RefTverskyCombo>
1.047 

> <ROCS_FitTversky>
1.244 

> <ROCS_FitColorTversky>
0.716 

> <ROCS_FitTverskyCombo>
1.961 

> <ROCS_ColorScore>
-5.794

> <ROCS_Overlap>
744.746

> <ROCS_Rank>
231                 

$$$$
untitled-dbase-709_23
  -OEChem-06052310023D

 24 24  0     0  0  0  0  0  0999 V2000
   -5.1370   11.0090  -31.9016 C   0  0  0  0  0  0  0  0  0  0  0  0
   -4.5229   12.3728  -30.0043 C   0  0  0  0  0  0  0  0  0  0  0  0
   -6.1088   10.3725  -31.1296 C   0  0  0  0  0  0  0  0  0  0  0  0
   -6.2877   10.7361  -29.7949 C   0  0  0  0  0  0  0  0  0  0  0  0
   -4.3440   12.0091  -31.3390 C   0  0  0  0  0  0  0  0  0  0  0  0
   -5.4947   11.7363  -29.2322 C   0  0  0  0  0  0  0  0  0  0  0  0
   -6.9550    9.2940  -31.7577 C   0  0  0  0  0  0  0  0  0  0  0  0
   -6.2112    8.4497  -32.8011 C   0  0  0  0  0  0  0  0  0  0  0  0
   -7.0662    7.3769  -33.4729 C   0  0  0  0  0  0  0  0  0  0  0  0
   -6.3383    6.6265  -34.4587 N   0  0  0  0  0  0  0  0  0  0  0  0
   -7.2425   10.1040  -29.0525 O   0  0  0  0  0  0  0  0  0  0  0  0
   -3.1448   12.7941  -32.2921 Cl  0  0  0  0  0  0  0  0  0  0  0  0
   -5.7078   12.2582  -27.4220 Br  0  0  0  0  0  0  0  0  0  0  0  0
   -5.0009   10.7227  -32.9424 H   0  0  0  0  0  0  0  0  0  0  0  0
   -3.9021   13.1530  -29.5692 H   0  0  0  0  0  0  0  0  0  0  0  0
   -7.8578    9.7320  -32.2007 H   0  0  0  0  0  0  0  0  0  0  0  0
   -7.3141    8.6335  -30.9576 H   0  0  0  0  0  0  0  0  0  0  0  0
   -5.3599    7.9666  -32.3046 H   0  0  0  0  0  0  0  0  0  0  0  0
   -5.7928    9.1016  -33.5776 H   0  0  0  0  0  0  0  0  0  0  0  0
   -7.9100    7.8450  -33.9897 H   0  0  0  0  0  0  0  0  0  0  0  0
   -7.4719    6.6691  -32.7441 H   0  0  0  0  0  0  0  0  0  0  0  0
   -6.9370    5.9333  -34.8602 H   0  0  0  0  0  0  0  0  0  0  0  0
   -6.0155    7.2437  -35.1764 H   0  0  0  0  0  0  0  0  0  0  0  0
   -7.2517   10.4587  -28.1506 H   0  0  0  0  0  0  0  0  0  0  0  0
  1  3  2  0  0  0  0
  1  5  1  0  0  0  0
  2  5  2  0  0  0  0
  2  6  1  0  0  0  0
  3  4  1  0  0  0  0
  3  7  1  0  0  0  0
  4  6  2  0  0  0  0
  4 11  1  0  0  0  0
  5 12  1  0  0  0  0
  6 13  1  0  0  0  0
  7  8  1  0  0  0  0
  8  9  1  0  0  0  0
  9 10  1  0  0  0  0
  1 14  1  0  0  0  0
  2 15  1  0  0  0  0
  7 16  1  0  0  0  0
  7 17  1  0  0  0  0
  8 18  1  0  0  0  0
  8 19  1  0  0  0  0
  9 20  1  0  0  0  0
  9 21  1  0  0  0  0
 10 22  1  0  0  0  0
 10 23  1  0  0  0  0
 11 24  1  0  0  0  0
M  END
> <id>
EN300-1913892

> <smiles>
NCCCC=1C=C(Cl)C=C(Br)C1O

> <MDLNUMBER>
MFCD09913011

> <IUPAC Name>
2-(3-aminopropyl)-6-bromo-4-chlorophenol

> <CAS>
1000551-70-1

> <URL>
https://www.enaminestore.com/catalog/EN300-1913892

> <ROCS_ShapeQuery>
_x1604L0AP1_x0771L0AP1

> <ROCS_TanimotoCombo>
0.973 

> <ROCS_ShapeTanimoto>
0.527 

> <ROCS_ColorTanimoto>
0.446 

> <ROCS_RefTversky>
0.466 

> <ROCS_RefColorTversky>
0.509 

> <ROCS_RefTverskyCombo>
0.975 

> <ROCS_FitTversky>
1.329 

> <ROCS_FitColorTversky>
0.783 

> <ROCS_FitTverskyCombo>
2.112 

> <ROCS_ColorScore>
-4.845

> <ROCS_Overlap>
780.725

> <ROCS_Rank>
232                 

$$$$
untitled-dbase-90_0
  -OEChem-06052310023D

 13 13  0     0  0  0  0  0  0999 V2000
   -4.3372   12.1527  -31.1954 C   0  0  0  0  0  0  0  0  0  0  0  0
   -4.5804   12.4818  -29.8619 C   0  0  0  0  0  0  0  0  0  0  0  0
   -5.0688   11.1348  -31.8072 C   0  0  0  0  0  0  0  0  0  0  0  0
   -6.2868   10.7750  -29.7519 C   0  0  0  0  0  0  0  0  0  0  0  0
   -5.5552   11.7929  -29.1402 C   0  0  0  0  0  0  0  0  0  0  0  0
   -6.0436   10.4459  -31.0854 C   0  0  0  0  0  0  0  0  0  0  0  0
   -7.2392   10.1022  -29.0418 O   0  0  0  0  0  0  0  0  0  0  0  0
   -5.8322   12.2254  -27.4927 Cl  0  0  0  0  0  0  0  0  0  0  0  0
   -7.0139    9.0677  -31.9537 Br  0  0  0  0  0  0  0  0  0  0  0  0
   -3.5782   12.6883  -31.7582 H   0  0  0  0  0  0  0  0  0  0  0  0
   -4.0026   13.2779  -29.3993 H   0  0  0  0  0  0  0  0  0  0  0  0
   -4.8648   10.8923  -32.8471 H   0  0  0  0  0  0  0  0  0  0  0  0
   -7.2846   10.4471  -28.1374 H   0  0  0  0  0  0  0  0  0  0  0  0
  1  2  2  0  0  0  0
  1  3  1  0  0  0  0
  2  5  1  0  0  0  0
  3  6  2  0  0  0  0
  4  5  2  0  0  0  0
  4  6  1  0  0  0  0
  4  7  1  0  0  0  0
  5  8  1  0  0  0  0
  6  9  1  0  0  0  0
  1 10  1  0  0  0  0
  2 11  1  0  0  0  0
  3 12  1  0  0  0  0
  7 13  1  0  0  0  0
M  END
> <id>
EN300-199809

> <smiles>
OC=1C(Cl)=CC=CC1Br

> <MDLNUMBER>
MFCD09907875

> <IUPAC Name>
2-bromo-6-chlorophenol

> <CAS>
2040-88-2

> <Purity>
95

> <URL>
https://www.enaminestore.com/catalog/EN300-199809

> <MP>
54-56

> <ROCS_ShapeQuery>
_x1604L0AP1_x0771L0AP1

> <ROCS_TanimotoCombo>
0.973 

> <ROCS_ShapeTanimoto>
0.420 

> <ROCS_ColorTanimoto>
0.554 

> <ROCS_RefTversky>
0.373 

> <ROCS_RefColorTversky>
0.518 

> <ROCS_RefTverskyCombo>
0.891 

> <ROCS_FitTversky>
1.426 

> <ROCS_FitColorTversky>
1.139 

> <ROCS_FitTverskyCombo>
2.565 

> <ROCS_ColorScore>
-4.882

> <ROCS_Overlap>
621.529

> <ROCS_Rank>
233                 

$$$$
untitled-dbase-1368_0
  -OEChem-06052310023D

 14 14  0     0  0  0  0  0  0999 V2000
   -3.3199   12.8400  -31.9200 C   0  0  0  0  0  0  0  0  0  0  0  0
   -4.5716   12.4700  -29.8520 C   0  0  0  0  0  0  0  0  0  0  0  0
   -5.0566   11.1224  -31.7976 C   0  0  0  0  0  0  0  0  0  0  0  0
   -4.3239   12.1384  -31.1840 C   0  0  0  0  0  0  0  0  0  0  0  0
   -6.2845   10.7694  -29.7471 C   0  0  0  0  0  0  0  0  0  0  0  0
   -5.5518   11.7854  -29.1335 C   0  0  0  0  0  0  0  0  0  0  0  0
   -6.0369   10.4379  -31.0792 C   0  0  0  0  0  0  0  0  0  0  0  0
   -2.5044   13.4097  -32.5176 N   0  0  0  0  0  0  0  0  0  0  0  0
   -7.2440   10.1023  -29.0411 O   0  0  0  0  0  0  0  0  0  0  0  0
   -5.8332   12.2194  -27.4871 Cl  0  0  0  0  0  0  0  0  0  0  0  0
   -7.0117    9.0635  -31.9493 Br  0  0  0  0  0  0  0  0  0  0  0  0
   -3.9995   13.2635  -29.3744 H   0  0  0  0  0  0  0  0  0  0  0  0
   -4.8606   10.8659  -32.8371 H   0  0  0  0  0  0  0  0  0  0  0  0
   -7.2931   10.4494  -28.1376 H   0  0  0  0  0  0  0  0  0  0  0  0
  1  4  1  0  0  0  0
  1  8  3  0  0  0  0
  2  4  2  0  0  0  0
  2  6  1  0  0  0  0
  3  4  1  0  0  0  0
  3  7  2  0  0  0  0
  5  6  2  0  0  0  0
  5  7  1  0  0  0  0
  5  9  1  0  0  0  0
  6 10  1  0  0  0  0
  7 11  1  0  0  0  0
  2 12  1  0  0  0  0
  3 13  1  0  0  0  0
  9 14  1  0  0  0  0
M  END
> <id>
EN300-3186167

> <smiles>
OC=1C(Cl)=CC(C#N)=CC1Br

> <MDLNUMBER>
MFCD22054958

> <IUPAC Name>
3-bromo-5-chloro-4-hydroxybenzonitrile

> <CAS>
1689-86-7

> <Purity>
95

> <URL>
https://www.enaminestore.com/catalog/EN300-3186167

> <MP>
166-169

> <ROCS_ShapeQuery>
_x1604L0AP1_x0771L0AP1

> <ROCS_TanimotoCombo>
0.973 

> <ROCS_ShapeTanimoto>
0.476 

> <ROCS_ColorTanimoto>
0.497 

> <ROCS_RefTversky>
0.423 

> <ROCS_RefColorTversky>
0.516 

> <ROCS_RefTverskyCombo>
0.939 

> <ROCS_FitTversky>
1.357 

> <ROCS_FitColorTversky>
0.933 

> <ROCS_FitTverskyCombo>
2.289 

> <ROCS_ColorScore>
-4.882

> <ROCS_Overlap>
706.704

> <ROCS_Rank>
234                 

$$$$
untitled-dbase-2091_570
  -OEChem-06052310023D

 25 25  0     0  0  0  0  0  0999 V2000
   -4.3574   12.1195  -30.1460 C   0  0  0  0  0  0  0  0  0  0  0  0
   -5.3266   11.5645  -29.3103 C   0  0  0  0  0  0  0  0  0  0  0  0
   -4.3283   11.7834  -31.4995 C   0  0  0  0  0  0  0  0  0  0  0  0
   -6.2665   10.6734  -29.8280 C   0  0  0  0  0  0  0  0  0  0  0  0
   -5.2682   10.8923  -32.0172 C   0  0  0  0  0  0  0  0  0  0  0  0
   -6.2373   10.3373  -31.1815 C   0  0  0  0  0  0  0  0  0  0  0  0
   -5.6591    8.9437  -35.0369 C   0  0  0  0  0  0  0  0  0  0  0  0
   -5.5142    7.4933  -35.4782 C   0  0  0  0  0  0  0  0  0  0  0  0
   -5.0090    9.2180  -33.6861 C   0  0  0  0  0  0  0  0  0  0  0  0
   -6.1322    6.5745  -34.5616 N   0  0  0  0  0  0  0  0  0  0  0  0
   -7.1991   10.1508  -28.9818 O   0  0  0  0  0  0  0  0  0  0  0  0
   -5.2089   10.5850  -33.3515 O   0  0  0  0  0  0  0  0  0  0  0  0
   -7.5188    9.1224  -31.8874 Br  0  0  0  0  0  0  0  0  0  0  0  0
   -3.6255   12.8133  -29.7429 H   0  0  0  0  0  0  0  0  0  0  0  0
   -5.3431   11.8313  -28.2570 H   0  0  0  0  0  0  0  0  0  0  0  0
   -3.5701   12.2196  -32.1443 H   0  0  0  0  0  0  0  0  0  0  0  0
   -5.2034    9.5986  -35.7900 H   0  0  0  0  0  0  0  0  0  0  0  0
   -6.7183    9.2273  -34.9946 H   0  0  0  0  0  0  0  0  0  0  0  0
   -5.9951    7.3461  -36.4501 H   0  0  0  0  0  0  0  0  0  0  0  0
   -4.4599    7.2139  -35.5722 H   0  0  0  0  0  0  0  0  0  0  0  0
   -5.4544    8.6020  -32.8988 H   0  0  0  0  0  0  0  0  0  0  0  0
   -3.9323    9.0238  -33.7251 H   0  0  0  0  0  0  0  0  0  0  0  0
   -7.1116    6.7679  -34.5049 H   0  0  0  0  0  0  0  0  0  0  0  0
   -5.9954    5.6384  -34.8855 H   0  0  0  0  0  0  0  0  0  0  0  0
   -7.7884    9.5503  -29.4640 H   0  0  0  0  0  0  0  0  0  0  0  0
  1  2  2  0  0  0  0
  1  3  1  0  0  0  0
  2  4  1  0  0  0  0
  3  5  2  0  0  0  0
  4  6  2  0  0  0  0
  4 11  1  0  0  0  0
  5  6  1  0  0  0  0
  5 12  1  0  0  0  0
  6 13  1  0  0  0  0
  7  8  1  0  0  0  0
  7  9  1  0  0  0  0
  8 10  1  0  0  0  0
  9 12  1  0  0  0  0
  1 14  1  0  0  0  0
  2 15  1  0  0  0  0
  3 16  1  0  0  0  0
  7 17  1  0  0  0  0
  7 18  1  0  0  0  0
  8 19  1  0  0  0  0
  8 20  1  0  0  0  0
  9 21  1  0  0  0  0
  9 22  1  0  0  0  0
 10 23  1  0  0  0  0
 10 24  1  0  0  0  0
 11 25  1  0  0  0  0
M  END
> <id>
EN300-1904617

> <smiles>
NCCCOC=1C=CC=C(O)C1Br

> <IUPAC Name>
3-(3-aminopropoxy)-2-bromophenol

> <CAS>
2228863-00-9

> <URL>
https://www.enaminestore.com/catalog/EN300-1904617

> <ROCS_ShapeQuery>
_x1604L0AP1_x0771L0AP1

> <ROCS_TanimotoCombo>
0.973 

> <ROCS_ShapeTanimoto>
0.483 

> <ROCS_ColorTanimoto>
0.490 

> <ROCS_RefTversky>
0.442 

> <ROCS_RefColorTversky>
0.574 

> <ROCS_RefTverskyCombo>
1.016 

> <ROCS_FitTversky>
1.240 

> <ROCS_FitColorTversky>
0.769 

> <ROCS_FitTverskyCombo>
2.009 

> <ROCS_ColorScore>
-5.490

> <ROCS_Overlap>
740.408

> <ROCS_Rank>
235                 

$$$$
untitled-dbase-712_47
  -OEChem-06052310023D

 22 22  0     0  0  0  0  0  0999 V2000
   -5.0863   11.2317  -31.8653 C   0  0  0  0  0  0  0  0  0  0  0  0
   -4.4989   12.3832  -29.8242 C   0  0  0  0  0  0  0  0  0  0  0  0
   -6.0691   10.5178  -31.1797 C   0  0  0  0  0  0  0  0  0  0  0  0
   -6.2668   10.7366  -29.8163 C   0  0  0  0  0  0  0  0  0  0  0  0
   -4.3011   12.1644  -31.1875 C   0  0  0  0  0  0  0  0  0  0  0  0
   -5.4817   11.6693  -29.1386 C   0  0  0  0  0  0  0  0  0  0  0  0
   -6.8739    9.5499  -31.9137 C   0  0  0  0  0  0  0  0  0  0  0  0
   -6.4105    8.8518  -32.9454 C   0  0  0  0  0  0  0  0  0  0  0  0
   -7.2493    7.8448  -33.6665 C   0  0  0  0  0  0  0  0  0  0  0  0
   -6.4009    6.7970  -34.1597 N   0  0  0  0  0  0  0  0  0  0  0  0
   -7.2306   10.0345  -29.1500 O   0  0  0  0  0  0  0  0  0  0  0  0
   -3.0885   13.0452  -32.0336 Cl  0  0  0  0  0  0  0  0  0  0  0  0
   -5.7191   11.9959  -27.2858 Br  0  0  0  0  0  0  0  0  0  0  0  0
   -4.9301   11.0634  -32.9291 H   0  0  0  0  0  0  0  0  0  0  0  0
   -3.8839   13.1115  -29.2992 H   0  0  0  0  0  0  0  0  0  0  0  0
   -7.8779    9.3945  -31.5562 H   0  0  0  0  0  0  0  0  0  0  0  0
   -5.3885    8.9560  -33.3004 H   0  0  0  0  0  0  0  0  0  0  0  0
   -7.9788    7.3977  -32.9851 H   0  0  0  0  0  0  0  0  0  0  0  0
   -7.7840    8.2714  -34.5205 H   0  0  0  0  0  0  0  0  0  0  0  0
   -6.4734    6.7478  -35.1564 H   0  0  0  0  0  0  0  0  0  0  0  0
   -5.4521    6.9865  -33.9048 H   0  0  0  0  0  0  0  0  0  0  0  0
   -7.2460   10.2960  -28.2173 H   0  0  0  0  0  0  0  0  0  0  0  0
  1  3  2  0  0  0  0
  1  5  1  0  0  0  0
  2  5  2  0  0  0  0
  2  6  1  0  0  0  0
  3  4  1  0  0  0  0
  3  7  1  0  0  0  0
  4  6  2  0  0  0  0
  4 11  1  0  0  0  0
  5 12  1  0  0  0  0
  6 13  1  0  0  0  0
  7  8  2  3  0  0  0
  8  9  1  0  0  0  0
  9 10  1  0  0  0  0
  1 14  1  0  0  0  0
  2 15  1  0  0  0  0
  7 16  1  0  0  0  0
  8 17  1  0  0  0  0
  9 18  1  0  0  0  0
  9 19  1  0  0  0  0
 10 20  1  0  0  0  0
 10 21  1  0  0  0  0
 11 22  1  0  0  0  0
M  END
> <id>
EN300-1922899

> <smiles>
NCC=CC=1C=C(Cl)C=C(Br)C1O

> <IUPAC Name>
2-(3-aminoprop-1-en-1-yl)-6-bromo-4-chlorophenol

> <CAS>
2229663-28-7

> <URL>
https://www.enaminestore.com/catalog/EN300-1922899

> <ROCS_ShapeQuery>
_x1604L0AP1_x0771L0AP1

> <ROCS_TanimotoCombo>
0.972 

> <ROCS_ShapeTanimoto>
0.551 

> <ROCS_ColorTanimoto>
0.421 

> <ROCS_RefTversky>
0.482 

> <ROCS_RefColorTversky>
0.489 

> <ROCS_RefTverskyCombo>
0.970 

> <ROCS_FitTversky>
1.357 

> <ROCS_FitColorTversky>
0.752 

> <ROCS_FitTverskyCombo>
2.109 

> <ROCS_ColorScore>
-4.653

> <ROCS_Overlap>
806.512

> <ROCS_Rank>
236                 

$$$$
untitled-dbase-2148_180
  -OEChem-06052310023D

 24 24  0     0  0  0  0  0  0999 V2000
   -4.3510   12.1631  -31.2098 C   0  0  0  0  0  0  0  0  0  0  0  0
   -4.5993   12.4908  -29.8770 C   0  0  0  0  0  0  0  0  0  0  0  0
   -5.0722   11.1380  -31.8220 C   0  0  0  0  0  0  0  0  0  0  0  0
   -5.5686   11.7934  -29.1562 C   0  0  0  0  0  0  0  0  0  0  0  0
   -6.2898   10.7682  -29.7683 C   0  0  0  0  0  0  0  0  0  0  0  0
   -6.0416   10.4405  -31.1012 C   0  0  0  0  0  0  0  0  0  0  0  0
   -5.0178   13.1852  -27.3081 C   0  0  0  0  0  0  0  0  0  0  0  0
   -4.7689   10.8270  -33.2525 C   0  0  0  0  0  0  0  0  0  0  0  0
   -5.9810   10.8734  -34.1952 C   0  0  0  0  0  0  0  0  0  0  0  0
   -7.2331   10.1007  -29.0423 O   0  0  0  0  0  0  0  0  0  0  0  0
   -5.7996   12.1252  -27.8551 O   0  0  0  0  0  0  0  0  0  0  0  0
   -6.7634   12.5154  -34.2448 S   0  0  0  0  0  0  0  0  0  0  0  0
   -7.0367    9.0464  -31.9313 Br  0  0  0  0  0  0  0  0  0  0  0  0
   -3.5938   12.7133  -31.7622 H   0  0  0  0  0  0  0  0  0  0  0  0
   -4.0346   13.2913  -29.4066 H   0  0  0  0  0  0  0  0  0  0  0  0
   -5.3016   13.3477  -26.2655 H   0  0  0  0  0  0  0  0  0  0  0  0
   -5.1819   14.0969  -27.8880 H   0  0  0  0  0  0  0  0  0  0  0  0
   -3.9616   12.9097  -27.3572 H   0  0  0  0  0  0  0  0  0  0  0  0
   -3.9758   11.4870  -33.6423 H   0  0  0  0  0  0  0  0  0  0  0  0
   -4.3377    9.8133  -33.3017 H   0  0  0  0  0  0  0  0  0  0  0  0
   -5.6628   10.6336  -35.2150 H   0  0  0  0  0  0  0  0  0  0  0  0
   -6.7373   10.1376  -33.9040 H   0  0  0  0  0  0  0  0  0  0  0  0
   -7.2729   10.4565  -28.1415 H   0  0  0  0  0  0  0  0  0  0  0  0
   -7.0632   12.5646  -32.9403 H   0  0  0  0  0  0  0  0  0  0  0  0
  1  2  1  0  0  0  0
  1  3  2  0  0  0  0
  2  4  2  0  0  0  0
  3  6  1  0  0  0  0
  3  8  1  0  0  0  0
  4  5  1  0  0  0  0
  4 11  1  0  0  0  0
  5  6  2  0  0  0  0
  5 10  1  0  0  0  0
  6 13  1  0  0  0  0
  7 11  1  0  0  0  0
  8  9  1  0  0  0  0
  9 12  1  0  0  0  0
  1 14  1  0  0  0  0
  2 15  1  0  0  0  0
  7 16  1  0  0  0  0
  7 17  1  0  0  0  0
  7 18  1  0  0  0  0
  8 19  1  0  0  0  0
  8 20  1  0  0  0  0
  9 21  1  0  0  0  0
  9 22  1  0  0  0  0
 10 23  1  0  0  0  0
 12 24  1  0  0  0  0
M  END
> <id>
EN300-1936286

> <smiles>
COC=1C=CC(CCS)=C(Br)C1O

> <IUPAC Name>
2-bromo-6-methoxy-3-(2-sulfanylethyl)phenol

> <CAS>
2228192-30-9

> <URL>
https://www.enaminestore.com/catalog/EN300-1936286

> <ROCS_ShapeQuery>
_x1604L0AP1_x0771L0AP1

> <ROCS_TanimotoCombo>
0.972 

> <ROCS_ShapeTanimoto>
0.475 

> <ROCS_ColorTanimoto>
0.498 

> <ROCS_RefTversky>
0.436 

> <ROCS_RefColorTversky>
0.516 

> <ROCS_RefTverskyCombo>
0.952 

> <ROCS_FitTversky>
1.228 

> <ROCS_FitColorTversky>
0.933 

> <ROCS_FitTverskyCombo>
2.161 

> <ROCS_ColorScore>
-4.884

> <ROCS_Overlap>
730.508

> <ROCS_Rank>
237                 

$$$$
untitled-dbase-1721_115
  -OEChem-06052310023D

 24 24  0     0  0  0  0  0  0999 V2000
   -4.5990   12.4756  -29.8248 C   0  0  0  0  0  0  0  0  0  0  0  0
   -5.5802   11.7785  -29.1200 C   0  0  0  0  0  0  0  0  0  0  0  0
   -5.0590   11.1409  -31.7855 C   0  0  0  0  0  0  0  0  0  0  0  0
   -4.3384   12.1569  -31.1576 C   0  0  0  0  0  0  0  0  0  0  0  0
   -6.3008   10.7625  -29.7479 C   0  0  0  0  0  0  0  0  0  0  0  0
   -6.0402   10.4437  -31.0806 C   0  0  0  0  0  0  0  0  0  0  0  0
   -3.2758   12.9121  -31.9195 C   0  0  0  0  0  0  0  0  0  0  0  0
   -1.5192   14.7743  -31.7851 C   0  0  0  0  0  0  0  0  0  0  0  0
   -2.6018   13.9818  -31.0610 C   0  0  0  0  0  0  0  0  0  0  0  0
   -0.8680   15.7426  -30.9130 N   0  0  0  0  0  0  0  0  0  0  0  0
   -7.2518   10.0992  -29.0309 O   0  0  0  0  0  0  0  0  0  0  0  0
   -2.0299   13.3940  -29.9745 F   0  0  0  0  0  0  0  0  0  0  0  0
   -3.5342   14.8462  -30.5814 F   0  0  0  0  0  0  0  0  0  0  0  0
   -6.9987    9.0682  -31.9649 Br  0  0  0  0  0  0  0  0  0  0  0  0
   -4.0429   13.2655  -29.3266 H   0  0  0  0  0  0  0  0  0  0  0  0
   -5.7777   12.0325  -28.0819 H   0  0  0  0  0  0  0  0  0  0  0  0
   -4.8493   10.8995  -32.8253 H   0  0  0  0  0  0  0  0  0  0  0  0
   -2.5268   12.1982  -32.2843 H   0  0  0  0  0  0  0  0  0  0  0  0
   -3.7391   13.3619  -32.8060 H   0  0  0  0  0  0  0  0  0  0  0  0
   -1.9488   15.2886  -32.6516 H   0  0  0  0  0  0  0  0  0  0  0  0
   -0.7645   14.0786  -32.1688 H   0  0  0  0  0  0  0  0  0  0  0  0
   -0.1493   16.1959  -31.4282 H   0  0  0  0  0  0  0  0  0  0  0  0
   -1.5486   16.4009  -30.6118 H   0  0  0  0  0  0  0  0  0  0  0  0
   -7.6747    9.4228  -29.5823 H   0  0  0  0  0  0  0  0  0  0  0  0
  1  2  1  0  0  0  0
  1  4  2  0  0  0  0
  2  5  2  0  0  0  0
  3  4  1  0  0  0  0
  3  6  2  0  0  0  0
  4  7  1  0  0  0  0
  5  6  1  0  0  0  0
  5 11  1  0  0  0  0
  6 14  1  0  0  0  0
  7  9  1  0  0  0  0
  8  9  1  0  0  0  0
  8 10  1  0  0  0  0
  9 12  1  0  0  0  0
  9 13  1  0  0  0  0
  1 15  1  0  0  0  0
  2 16  1  0  0  0  0
  3 17  1  0  0  0  0
  7 18  1  0  0  0  0
  7 19  1  0  0  0  0
  8 20  1  0  0  0  0
  8 21  1  0  0  0  0
 10 22  1  0  0  0  0
 10 23  1  0  0  0  0
 11 24  1  0  0  0  0
M  END
> <id>
EN300-1950286

> <smiles>
NCC(F)(F)CC=1C=CC(O)=C(Br)C1

> <IUPAC Name>
4-(3-amino-2,2-difluoropropyl)-2-bromophenol

> <CAS>
2229172-35-2

> <URL>
https://www.enaminestore.com/catalog/EN300-1950286

> <ROCS_ShapeQuery>
_x1604L0AP1_x0771L0AP1

> <ROCS_TanimotoCombo>
0.972 

> <ROCS_ShapeTanimoto>
0.521 

> <ROCS_ColorTanimoto>
0.451 

> <ROCS_RefTversky>
0.476 

> <ROCS_RefColorTversky>
0.513 

> <ROCS_RefTverskyCombo>
0.988 

> <ROCS_FitTversky>
1.225 

> <ROCS_FitColorTversky>
0.789 

> <ROCS_FitTverskyCombo>
2.014 

> <ROCS_ColorScore>
-4.878

> <ROCS_Overlap>
798.027

> <ROCS_Rank>
238                 

$$$$
untitled-dbase-406_10
  -OEChem-06052310023D

 24 25  0     0  0  0  0  0  0999 V2000
   -7.1820    8.8443  -31.2715 C   0  0  0  0  0  0  0  0  0  0  0  0
   -4.7865   11.6933  -31.3404 C   0  0  0  0  0  0  0  0  0  0  0  0
   -4.3778   12.4385  -29.0788 C   0  0  0  0  0  0  0  0  0  0  0  0
   -5.8470   10.9073  -30.8898 C   0  0  0  0  0  0  0  0  0  0  0  0
   -6.1731   10.8870  -29.5337 C   0  0  0  0  0  0  0  0  0  0  0  0
   -4.0518   12.4588  -30.4349 C   0  0  0  0  0  0  0  0  0  0  0  0
   -5.4385   11.6526  -28.6282 C   0  0  0  0  0  0  0  0  0  0  0  0
   -6.7137   10.9622  -33.8992 C   0  0  0  0  0  0  0  0  0  0  0  0
   -6.0033    9.7191  -33.3344 C   0  0  0  0  0  0  0  0  0  0  0  0
   -7.7780   10.7689  -32.8043 C   0  0  0  0  0  0  0  0  0  0  0  0
   -6.6812   10.0324  -31.9486 C   0  0  0  0  0  0  0  0  0  0  0  0
   -7.5810    7.8976  -30.7322 N   0  0  0  0  0  0  0  0  0  0  0  0
   -7.2134   10.1123  -29.1108 O   0  0  0  0  0  0  0  0  0  0  0  0
   -2.7432   13.4283  -30.9917 Cl  0  0  0  0  0  0  0  0  0  0  0  0
   -5.8510   11.6507  -26.7776 Br  0  0  0  0  0  0  0  0  0  0  0  0
   -4.5377   11.7055  -32.3988 H   0  0  0  0  0  0  0  0  0  0  0  0
   -3.8019   13.0368  -28.3756 H   0  0  0  0  0  0  0  0  0  0  0  0
   -6.1475   11.8949  -33.8507 H   0  0  0  0  0  0  0  0  0  0  0  0
   -7.0956   10.8308  -34.9173 H   0  0  0  0  0  0  0  0  0  0  0  0
   -6.2722    8.7731  -33.8078 H   0  0  0  0  0  0  0  0  0  0  0  0
   -4.9123    9.8080  -33.3267 H   0  0  0  0  0  0  0  0  0  0  0  0
   -8.1271   11.7097  -32.3667 H   0  0  0  0  0  0  0  0  0  0  0  0
   -8.6476   10.1782  -33.0984 H   0  0  0  0  0  0  0  0  0  0  0  0
   -7.3232   10.1968  -28.1514 H   0  0  0  0  0  0  0  0  0  0  0  0
  1 11  1  0  0  0  0
  1 12  3  0  0  0  0
  2  4  2  0  0  0  0
  2  6  1  0  0  0  0
  3  6  2  0  0  0  0
  3  7  1  0  0  0  0
  4  5  1  0  0  0  0
  4 11  1  0  0  0  0
  5  7  2  0  0  0  0
  5 13  1  0  0  0  0
  6 14  1  0  0  0  0
  7 15  1  0  0  0  0
  8  9  1  0  0  0  0
  8 10  1  0  0  0  0
  9 11  1  0  0  0  0
 10 11  1  0  0  0  0
  2 16  1  0  0  0  0
  3 17  1  0  0  0  0
  8 18  1  0  0  0  0
  8 19  1  0  0  0  0
  9 20  1  0  0  0  0
  9 21  1  0  0  0  0
 10 22  1  0  0  0  0
 10 23  1  0  0  0  0
 13 24  1  0  0  0  0
M  END
> <id>
EN300-1913522

> <smiles>
OC=1C(Br)=CC(Cl)=CC1C2(CCC2)C#N

> <MDLNUMBER>
MFCD19697940

> <IUPAC Name>
1-(3-bromo-5-chloro-2-hydroxyphenyl)cyclobutane-1-carbonitrile

> <CAS>
1314657-01-6

> <URL>
https://www.enaminestore.com/catalog/EN300-1913522

> <ROCS_ShapeQuery>
_x1604L0AP1_x0771L0AP1

> <ROCS_TanimotoCombo>
0.972 

> <ROCS_ShapeTanimoto>
0.572 

> <ROCS_ColorTanimoto>
0.400 

> <ROCS_RefTversky>
0.514 

> <ROCS_RefColorTversky>
0.471 

> <ROCS_RefTverskyCombo>
0.985 

> <ROCS_FitTversky>
1.247 

> <ROCS_FitColorTversky>
0.725 

> <ROCS_FitTverskyCombo>
1.972 

> <ROCS_ColorScore>
-4.482

> <ROCS_Overlap>
863.468

> <ROCS_Rank>
239                 

$$$$
untitled-dbase-1177_27
  -OEChem-06052310023D

 22 23  0     0  0  0  0  0  0999 V2000
   -4.6082   12.4964  -29.8361 C   0  0  0  0  0  0  0  0  0  0  0  0
   -4.3486   12.1827  -31.1702 C   0  0  0  0  0  0  0  0  0  0  0  0
   -5.5808   11.7886  -29.1298 C   0  0  0  0  0  0  0  0  0  0  0  0
   -5.0615   11.1613  -31.7980 C   0  0  0  0  0  0  0  0  0  0  0  0
   -6.2937   10.7672  -29.7576 C   0  0  0  0  0  0  0  0  0  0  0  0
   -6.0341   10.4536  -31.0917 C   0  0  0  0  0  0  0  0  0  0  0  0
   -5.8707   11.0164  -34.1733 C   0  0  0  0  0  0  0  0  0  0  0  0
   -3.7334    9.7732  -33.5161 C   0  0  0  0  0  0  0  0  0  0  0  0
   -3.3573   11.2034  -33.7310 C   0  0  0  0  0  0  0  0  0  0  0  0
   -4.7496   10.8642  -33.2293 C   0  0  0  0  0  0  0  0  0  0  0  0
   -7.0439   10.8361  -33.8644 O   0  0  0  0  0  0  0  0  0  0  0  0
   -7.2383   10.0997  -29.0356 O   0  0  0  0  0  0  0  0  0  0  0  0
   -7.0193    9.0611  -31.9371 Br  0  0  0  0  0  0  0  0  0  0  0  0
   -4.0524   13.2915  -29.3478 H   0  0  0  0  0  0  0  0  0  0  0  0
   -3.5874   12.7402  -31.7101 H   0  0  0  0  0  0  0  0  0  0  0  0
   -5.7771   12.0394  -28.0909 H   0  0  0  0  0  0  0  0  0  0  0  0
   -5.5928   11.3081  -35.2002 H   0  0  0  0  0  0  0  0  0  0  0  0
   -3.8777    9.1538  -34.3940 H   0  0  0  0  0  0  0  0  0  0  0  0
   -3.2737    9.2518  -32.6842 H   0  0  0  0  0  0  0  0  0  0  0  0
   -2.6441   11.6443  -33.0439 H   0  0  0  0  0  0  0  0  0  0  0  0
   -3.2487   11.5468  -34.7535 H   0  0  0  0  0  0  0  0  0  0  0  0
   -7.6584    9.4191  -29.5838 H   0  0  0  0  0  0  0  0  0  0  0  0
  1  2  2  0  0  0  0
  1  3  1  0  0  0  0
  2  4  1  0  0  0  0
  3  5  2  0  0  0  0
  4  6  2  0  0  0  0
  4 10  1  0  0  0  0
  5  6  1  0  0  0  0
  5 12  1  0  0  0  0
  6 13  1  0  0  0  0
  7 10  1  0  0  0  0
  7 11  2  0  0  0  0
  8  9  1  0  0  0  0
  8 10  1  0  0  0  0
  9 10  1  0  0  0  0
  1 14  1  0  0  0  0
  2 15  1  0  0  0  0
  3 16  1  0  0  0  0
  7 17  1  0  0  0  0
  8 18  1  0  0  0  0
  8 19  1  0  0  0  0
  9 20  1  0  0  0  0
  9 21  1  0  0  0  0
 12 22  1  0  0  0  0
M  END
> <id>
EN300-1904495

> <smiles>
OC=1C=CC=C(C1Br)C2(CC2)C=O

> <IUPAC Name>
1-(2-bromo-3-hydroxyphenyl)cyclopropane-1-carbaldehyde

> <CAS>
2228622-13-5

> <URL>
https://www.enaminestore.com/catalog/EN300-1904495

> <ROCS_ShapeQuery>
_x1604L0AP1_x0771L0AP1

> <ROCS_TanimotoCombo>
0.972 

> <ROCS_ShapeTanimoto>
0.474 

> <ROCS_ColorTanimoto>
0.497 

> <ROCS_RefTversky>
0.440 

> <ROCS_RefColorTversky>
0.516 

> <ROCS_RefTverskyCombo>
0.956 

> <ROCS_FitTversky>
1.194 

> <ROCS_FitColorTversky>
0.933 

> <ROCS_FitTverskyCombo>
2.127 

> <ROCS_ColorScore>
-4.883

> <ROCS_Overlap>
738.065

> <ROCS_Rank>
240                 

$$$$
untitled-dbase-982_54
  -OEChem-06052310023D

 28 28  0     0  0  0  0  0  0999 V2000
   -4.6059   12.4904  -29.8607 C   0  0  0  0  0  0  0  0  0  0  0  0
   -4.3569   12.1705  -31.1954 C   0  0  0  0  0  0  0  0  0  0  0  0
   -5.5750   11.7881  -29.1443 C   0  0  0  0  0  0  0  0  0  0  0  0
   -5.0772   11.1484  -31.8137 C   0  0  0  0  0  0  0  0  0  0  0  0
   -6.2953   10.7660  -29.7626 C   0  0  0  0  0  0  0  0  0  0  0  0
   -6.0463   10.4461  -31.0972 C   0  0  0  0  0  0  0  0  0  0  0  0
   -3.6559   11.7328  -33.8916 C   0  0  0  0  0  0  0  0  0  0  0  0
   -4.2703    9.3748  -33.4017 C   0  0  0  0  0  0  0  0  0  0  0  0
   -6.0395   10.9963  -34.1551 C   0  0  0  0  0  0  0  0  0  0  0  0
   -4.7636   10.8356  -33.2888 C   0  0  0  0  0  0  0  0  0  0  0  0
   -6.8760   10.8332  -36.3115 N   0  0  0  0  0  0  0  0  0  0  0  0
   -7.2350   10.1021  -29.0310 O   0  0  0  0  0  0  0  0  0  0  0  0
   -5.9125   10.2758  -35.3764 O   0  0  0  0  0  0  0  0  0  0  0  0
   -7.0349    9.0496  -31.9299 Br  0  0  0  0  0  0  0  0  0  0  0  0
   -4.0454   13.2866  -29.3795 H   0  0  0  0  0  0  0  0  0  0  0  0
   -3.5996   12.7244  -31.7442 H   0  0  0  0  0  0  0  0  0  0  0  0
   -5.7637   12.0435  -28.1050 H   0  0  0  0  0  0  0  0  0  0  0  0
   -3.4616   11.4803  -34.9408 H   0  0  0  0  0  0  0  0  0  0  0  0
   -3.9485   12.7893  -33.8637 H   0  0  0  0  0  0  0  0  0  0  0  0
   -2.7110   11.6458  -33.3435 H   0  0  0  0  0  0  0  0  0  0  0  0
   -4.0366    9.1155  -34.4412 H   0  0  0  0  0  0  0  0  0  0  0  0
   -5.0330    8.6718  -33.0466 H   0  0  0  0  0  0  0  0  0  0  0  0
   -3.3679    9.1951  -32.8070 H   0  0  0  0  0  0  0  0  0  0  0  0
   -6.9144   10.6016  -33.6251 H   0  0  0  0  0  0  0  0  0  0  0  0
   -6.2469   12.0439  -34.3971 H   0  0  0  0  0  0  0  0  0  0  0  0
   -6.6125   11.8170  -36.2835 H   0  0  0  0  0  0  0  0  0  0  0  0
   -7.7330   10.7461  -35.7675 H   0  0  0  0  0  0  0  0  0  0  0  0
   -7.6607    9.4207  -29.5738 H   0  0  0  0  0  0  0  0  0  0  0  0
  1  2  1  0  0  0  0
  1  3  2  0  0  0  0
  2  4  2  0  0  0  0
  3  5  1  0  0  0  0
  4  6  1  0  0  0  0
  4 10  1  0  0  0  0
  5  6  2  0  0  0  0
  5 12  1  0  0  0  0
  6 14  1  0  0  0  0
  7 10  1  0  0  0  0
  8 10  1  0  0  0  0
  9 10  1  0  0  0  0
  9 13  1  0  0  0  0
 11 13  1  0  0  0  0
  1 15  1  0  0  0  0
  2 16  1  0  0  0  0
  3 17  1  0  0  0  0
  7 18  1  0  0  0  0
  7 19  1  0  0  0  0
  7 20  1  0  0  0  0
  8 21  1  0  0  0  0
  8 22  1  0  0  0  0
  8 23  1  0  0  0  0
  9 24  1  0  0  0  0
  9 25  1  0  0  0  0
 11 26  1  0  0  0  0
 11 27  1  0  0  0  0
 12 28  1  0  0  0  0
M  END
> <id>
EN300-1904524

> <smiles>
CC(C)(CON)C=1C=CC=C(O)C1Br

> <IUPAC Name>
3-[1-(aminooxy)-2-methylpropan-2-yl]-2-bromophenol

> <CAS>
2229558-55-6

> <URL>
https://www.enaminestore.com/catalog/EN300-1904524

> <ROCS_ShapeQuery>
_x1604L0AP1_x0771L0AP1

> <ROCS_TanimotoCombo>
0.971 

> <ROCS_ShapeTanimoto>
0.474 

> <ROCS_ColorTanimoto>
0.497 

> <ROCS_RefTversky>
0.444 

> <ROCS_RefColorTversky>
0.516 

> <ROCS_RefTverskyCombo>
0.960 

> <ROCS_FitTversky>
1.164 

> <ROCS_FitColorTversky>
0.933 

> <ROCS_FitTverskyCombo>
2.097 

> <ROCS_ColorScore>
-4.882

> <ROCS_Overlap>
745.553

> <ROCS_Rank>
241                 

$$$$
untitled-dbase-194_281
  -OEChem-06052310023D

 24 24  0     0  0  0  0  0  0999 V2000
   -5.0621   11.1418  -31.7930 C   0  0  0  0  0  0  0  0  0  0  0  0
   -5.5764   11.7803  -29.1264 C   0  0  0  0  0  0  0  0  0  0  0  0
   -4.3407   12.1588  -31.1678 C   0  0  0  0  0  0  0  0  0  0  0  0
   -6.2978   10.7633  -29.7517 C   0  0  0  0  0  0  0  0  0  0  0  0
   -4.5978   12.4780  -29.8345 C   0  0  0  0  0  0  0  0  0  0  0  0
   -6.0407   10.4441  -31.0850 C   0  0  0  0  0  0  0  0  0  0  0  0
   -3.3089   12.8944  -31.9193 C   0  0  0  0  0  0  0  0  0  0  0  0
   -1.3269   10.7733  -32.8125 C   0  0  0  0  0  0  0  0  0  0  0  0
   -3.0699   12.5043  -33.3767 C   0  0  0  0  0  0  0  0  0  0  0  0
   -1.6433   12.0159  -33.6291 C   0  0  0  0  0  0  0  0  0  0  0  0
   -2.6470   13.8009  -31.4102 O   0  0  0  0  0  0  0  0  0  0  0  0
   -7.2472   10.1005  -29.0322 O   0  0  0  0  0  0  0  0  0  0  0  0
   -3.9116   13.4546  -29.2240 F   0  0  0  0  0  0  0  0  0  0  0  0
   -7.0028    9.0698  -31.9670 Br  0  0  0  0  0  0  0  0  0  0  0  0
   -4.8568   10.8986  -32.8333 H   0  0  0  0  0  0  0  0  0  0  0  0
   -5.7707   12.0342  -28.0879 H   0  0  0  0  0  0  0  0  0  0  0  0
   -2.0264    9.9635  -33.0433 H   0  0  0  0  0  0  0  0  0  0  0  0
   -1.4027   10.9931  -31.7431 H   0  0  0  0  0  0  0  0  0  0  0  0
   -0.3113   10.4189  -33.0152 H   0  0  0  0  0  0  0  0  0  0  0  0
   -3.2651   13.3799  -34.0064 H   0  0  0  0  0  0  0  0  0  0  0  0
   -3.7730   11.7063  -33.6419 H   0  0  0  0  0  0  0  0  0  0  0  0
   -0.9270   12.8065  -33.3757 H   0  0  0  0  0  0  0  0  0  0  0  0
   -1.5069   11.7925  -34.6939 H   0  0  0  0  0  0  0  0  0  0  0  0
   -7.6709    9.4233  -29.5819 H   0  0  0  0  0  0  0  0  0  0  0  0
  1  3  2  0  0  0  0
  1  6  1  0  0  0  0
  2  4  1  0  0  0  0
  2  5  2  0  0  0  0
  3  5  1  0  0  0  0
  3  7  1  0  0  0  0
  4  6  2  0  0  0  0
  4 12  1  0  0  0  0
  5 13  1  0  0  0  0
  6 14  1  0  0  0  0
  7  9  1  0  0  0  0
  7 11  2  0  0  0  0
  8 10  1  0  0  0  0
  9 10  1  0  0  0  0
  1 15  1  0  0  0  0
  2 16  1  0  0  0  0
  8 17  1  0  0  0  0
  8 18  1  0  0  0  0
  8 19  1  0  0  0  0
  9 20  1  0  0  0  0
  9 21  1  0  0  0  0
 10 22  1  0  0  0  0
 10 23  1  0  0  0  0
 12 24  1  0  0  0  0
M  END
> <id>
EN300-1276797

> <smiles>
CCCC(=O)C=1C=C(Br)C(O)=CC1F

> <MDLNUMBER>
MFCD24122861

> <IUPAC Name>
1-(5-bromo-2-fluoro-4-hydroxyphenyl)butan-1-one

> <CAS>
1506577-82-7

> <URL>
https://www.enaminestore.com/catalog/EN300-1276797

> <ROCS_ShapeQuery>
_x1604L0AP1_x0771L0AP1

> <ROCS_TanimotoCombo>
0.971 

> <ROCS_ShapeTanimoto>
0.520 

> <ROCS_ColorTanimoto>
0.451 

> <ROCS_RefTversky>
0.475 

> <ROCS_RefColorTversky>
0.513 

> <ROCS_RefTverskyCombo>
0.987 

> <ROCS_FitTversky>
1.228 

> <ROCS_FitColorTversky>
0.789 

> <ROCS_FitTverskyCombo>
2.017 

> <ROCS_ColorScore>
-4.878

> <ROCS_Overlap>
796.256

> <ROCS_Rank>
242                 

$$$$
untitled-dbase-363_1
  -OEChem-06052310023D

 18 18  0     0  0  0  0  0  0999 V2000
   -4.6047   12.4912  -29.8586 C   0  0  0  0  0  0  0  0  0  0  0  0
   -4.3534   12.1719  -31.1929 C   0  0  0  0  0  0  0  0  0  0  0  0
   -5.5750   11.7884  -29.1441 C   0  0  0  0  0  0  0  0  0  0  0  0
   -5.0723   11.1499  -31.8128 C   0  0  0  0  0  0  0  0  0  0  0  0
   -6.2939   10.7664  -29.7640 C   0  0  0  0  0  0  0  0  0  0  0  0
   -6.0426   10.4472  -31.0984 C   0  0  0  0  0  0  0  0  0  0  0  0
   -5.7968   11.3732  -34.2156 C   0  0  0  0  0  0  0  0  0  0  0  0
   -4.7655   10.8469  -33.2443 C   0  0  0  0  0  0  0  0  0  0  0  0
   -6.4144   10.6834  -35.0200 O   0  0  0  0  0  0  0  0  0  0  0  0
   -7.2348   10.1021  -29.0343 O   0  0  0  0  0  0  0  0  0  0  0  0
   -7.0295    9.0508  -31.9334 Br  0  0  0  0  0  0  0  0  0  0  0  0
   -4.0453   13.2873  -29.3760 H   0  0  0  0  0  0  0  0  0  0  0  0
   -3.5952   12.7262  -31.7402 H   0  0  0  0  0  0  0  0  0  0  0  0
   -5.7655   12.0434  -28.1050 H   0  0  0  0  0  0  0  0  0  0  0  0
   -5.9766   12.4611  -34.1641 H   0  0  0  0  0  0  0  0  0  0  0  0
   -4.6862    9.7619  -33.4013 H   0  0  0  0  0  0  0  0  0  0  0  0
   -3.7937   11.2737  -33.5299 H   0  0  0  0  0  0  0  0  0  0  0  0
   -7.6595    9.4208  -29.5782 H   0  0  0  0  0  0  0  0  0  0  0  0
  1  2  2  0  0  0  0
  1  3  1  0  0  0  0
  2  4  1  0  0  0  0
  3  5  2  0  0  0  0
  4  6  2  0  0  0  0
  4  8  1  0  0  0  0
  5  6  1  0  0  0  0
  5 10  1  0  0  0  0
  6 11  1  0  0  0  0
  7  8  1  0  0  0  0
  7  9  2  0  0  0  0
  1 12  1  0  0  0  0
  2 13  1  0  0  0  0
  3 14  1  0  0  0  0
  7 15  1  0  0  0  0
  8 16  1  0  0  0  0
  8 17  1  0  0  0  0
 10 18  1  0  0  0  0
M  END
> <id>
EN300-1904558

> <smiles>
OC=1C=CC=C(CC=O)C1Br

> <MDLNUMBER>
MFCD33499793

> <IUPAC Name>
2-(2-bromo-3-hydroxyphenyl)acetaldehyde

> <CAS>
2229576-67-2

> <URL>
https://www.enaminestore.com/catalog/EN300-1904558

> <ROCS_ShapeQuery>
_x1604L0AP1_x0771L0AP1

> <ROCS_TanimotoCombo>
0.971 

> <ROCS_ShapeTanimoto>
0.473 

> <ROCS_ColorTanimoto>
0.497 

> <ROCS_RefTversky>
0.422 

> <ROCS_RefColorTversky>
0.516 

> <ROCS_RefTverskyCombo>
0.938 

> <ROCS_FitTversky>
1.347 

> <ROCS_FitColorTversky>
0.933 

> <ROCS_FitTverskyCombo>
2.280 

> <ROCS_ColorScore>
-4.883

> <ROCS_Overlap>
705.260

> <ROCS_Rank>
243                 

$$$$
untitled-dbase-1517_435
  -OEChem-06052310023D

 25 25  0     0  0  0  0  0  0999 V2000
   -4.3051   12.3519  -30.9945 C   0  0  0  0  0  0  0  0  0  0  0  0
   -5.0414   11.4139  -31.7180 C   0  0  0  0  0  0  0  0  0  0  0  0
   -4.5471   12.5281  -29.6321 C   0  0  0  0  0  0  0  0  0  0  0  0
   -6.0198   10.6521  -31.0792 C   0  0  0  0  0  0  0  0  0  0  0  0
   -6.2619   10.8284  -29.7168 C   0  0  0  0  0  0  0  0  0  0  0  0
   -5.5255   11.7664  -28.9933 C   0  0  0  0  0  0  0  0  0  0  0  0
   -6.3431    8.8932  -34.0122 C   0  0  0  0  0  0  0  0  0  0  0  0
   -6.9884    7.5441  -33.7242 C   0  0  0  0  0  0  0  0  0  0  0  0
   -6.9388   10.0226  -33.1804 C   0  0  0  0  0  0  0  0  0  0  0  0
   -6.4093    6.4803  -34.4983 N   0  0  0  0  0  0  0  0  0  0  0  0
   -7.2231   10.0737  -29.1100 O   0  0  0  0  0  0  0  0  0  0  0  0
   -6.7341    9.7338  -31.8037 O   0  0  0  0  0  0  0  0  0  0  0  0
   -5.8228   12.0322  -27.1400 Br  0  0  0  0  0  0  0  0  0  0  0  0
   -3.5435   12.9457  -31.4916 H   0  0  0  0  0  0  0  0  0  0  0  0
   -4.8463   11.2799  -32.7785 H   0  0  0  0  0  0  0  0  0  0  0  0
   -3.9631   13.2632  -29.0841 H   0  0  0  0  0  0  0  0  0  0  0  0
   -5.2669    8.8309  -33.8077 H   0  0  0  0  0  0  0  0  0  0  0  0
   -6.4319    9.1408  -35.0776 H   0  0  0  0  0  0  0  0  0  0  0  0
   -6.8551    7.2807  -32.6704 H   0  0  0  0  0  0  0  0  0  0  0  0
   -8.0617    7.5675  -33.9380 H   0  0  0  0  0  0  0  0  0  0  0  0
   -6.4576   10.9790  -33.4070 H   0  0  0  0  0  0  0  0  0  0  0  0
   -8.0149   10.1132  -33.3599 H   0  0  0  0  0  0  0  0  0  0  0  0
   -5.4384    6.3953  -34.2747 H   0  0  0  0  0  0  0  0  0  0  0  0
   -6.8766    5.6220  -34.2867 H   0  0  0  0  0  0  0  0  0  0  0  0
   -7.6342    9.4773  -29.7542 H   0  0  0  0  0  0  0  0  0  0  0  0
  1  2  1  0  0  0  0
  1  3  2  0  0  0  0
  2  4  2  0  0  0  0
  3  6  1  0  0  0  0
  4  5  1  0  0  0  0
  4 12  1  0  0  0  0
  5  6  2  0  0  0  0
  5 11  1  0  0  0  0
  6 13  1  0  0  0  0
  7  8  1  0  0  0  0
  7  9  1  0  0  0  0
  8 10  1  0  0  0  0
  9 12  1  0  0  0  0
  1 14  1  0  0  0  0
  2 15  1  0  0  0  0
  3 16  1  0  0  0  0
  7 17  1  0  0  0  0
  7 18  1  0  0  0  0
  8 19  1  0  0  0  0
  8 20  1  0  0  0  0
  9 21  1  0  0  0  0
  9 22  1  0  0  0  0
 10 23  1  0  0  0  0
 10 24  1  0  0  0  0
 11 25  1  0  0  0  0
M  END
> <id>
EN300-1923467

> <smiles>
NCCCOC=1C=CC=C(Br)C1O

> <IUPAC Name>
2-(3-aminopropoxy)-6-bromophenol

> <CAS>
2229368-70-9

> <URL>
https://www.enaminestore.com/catalog/EN300-1923467

> <ROCS_ShapeQuery>
_x1604L0AP1_x0771L0AP1

> <ROCS_TanimotoCombo>
0.971 

> <ROCS_ShapeTanimoto>
0.561 

> <ROCS_ColorTanimoto>
0.410 

> <ROCS_RefTversky>
0.488 

> <ROCS_RefColorTversky>
0.507 

> <ROCS_RefTverskyCombo>
0.995 

> <ROCS_FitTversky>
1.366 

> <ROCS_FitColorTversky>
0.680 

> <ROCS_FitTverskyCombo>
2.046 

> <ROCS_ColorScore>
-4.854

> <ROCS_Overlap>
816.788

> <ROCS_Rank>
244                 

$$$$
untitled-dbase-1242_398
  -OEChem-06052310023D

 27 27  0     0  0  0  0  0  0999 V2000
   -3.4501   14.9403  -30.6028 C   0  0  0  0  0  0  0  0  0  0  0  0
   -4.5574   12.4436  -29.8441 C   0  0  0  0  0  0  0  0  0  0  0  0
   -5.0448   11.1066  -31.7964 C   0  0  0  0  0  0  0  0  0  0  0  0
   -4.3068   12.1147  -31.1762 C   0  0  0  0  0  0  0  0  0  0  0  0
   -5.5460   11.7644  -29.1321 C   0  0  0  0  0  0  0  0  0  0  0  0
   -6.2841   10.7563  -29.7522 C   0  0  0  0  0  0  0  0  0  0  0  0
   -6.0335   10.4274  -31.0844 C   0  0  0  0  0  0  0  0  0  0  0  0
   -5.2390   11.6507  -25.5426 C   0  0  0  0  0  0  0  0  0  0  0  0
   -2.5244   13.9226  -31.1218 C   0  0  0  0  0  0  0  0  0  0  0  0
   -3.2503   12.8418  -31.9373 C   0  0  0  0  0  0  0  0  0  0  0  0
   -4.6915   11.9547  -26.9209 C   0  0  0  0  0  0  0  0  0  0  0  0
   -4.1801   15.7428  -30.1914 N   0  0  0  0  0  0  0  0  0  0  0  0
   -7.2476   10.1041  -29.0395 O   0  0  0  0  0  0  0  0  0  0  0  0
   -5.7795   12.0975  -27.8318 O   0  0  0  0  0  0  0  0  0  0  0  0
   -7.0159    9.0634  -31.9611 Br  0  0  0  0  0  0  0  0  0  0  0  0
   -3.9835   13.2294  -29.3585 H   0  0  0  0  0  0  0  0  0  0  0  0
   -4.8423   10.8575  -32.8358 H   0  0  0  0  0  0  0  0  0  0  0  0
   -5.8840   12.4610  -25.1915 H   0  0  0  0  0  0  0  0  0  0  0  0
   -5.8149   10.7195  -25.5528 H   0  0  0  0  0  0  0  0  0  0  0  0
   -4.4232   11.5126  -24.8253 H   0  0  0  0  0  0  0  0  0  0  0  0
   -1.7826   14.4158  -31.7614 H   0  0  0  0  0  0  0  0  0  0  0  0
   -1.9732   13.4669  -30.2909 H   0  0  0  0  0  0  0  0  0  0  0  0
   -2.4976   12.1188  -32.2913 H   0  0  0  0  0  0  0  0  0  0  0  0
   -3.6700   13.2937  -32.8509 H   0  0  0  0  0  0  0  0  0  0  0  0
   -4.0473   11.1405  -27.2661 H   0  0  0  0  0  0  0  0  0  0  0  0
   -4.1171   12.8858  -26.9091 H   0  0  0  0  0  0  0  0  0  0  0  0
   -7.2895   10.4557  -28.1371 H   0  0  0  0  0  0  0  0  0  0  0  0
  1  9  1  0  0  0  0
  1 12  3  0  0  0  0
  2  4  1  0  0  0  0
  2  5  2  0  0  0  0
  3  4  2  0  0  0  0
  3  7  1  0  0  0  0
  4 10  1  0  0  0  0
  5  6  1  0  0  0  0
  5 14  1  0  0  0  0
  6  7  2  0  0  0  0
  6 13  1  0  0  0  0
  7 15  1  0  0  0  0
  8 11  1  0  0  0  0
  9 10  1  0  0  0  0
 11 14  1  0  0  0  0
  2 16  1  0  0  0  0
  3 17  1  0  0  0  0
  8 18  1  0  0  0  0
  8 19  1  0  0  0  0
  8 20  1  0  0  0  0
  9 21  1  0  0  0  0
  9 22  1  0  0  0  0
 10 23  1  0  0  0  0
 10 24  1  0  0  0  0
 11 25  1  0  0  0  0
 11 26  1  0  0  0  0
 13 27  1  0  0  0  0
M  END
> <id>
EN300-1920236

> <smiles>
CCOC=1C=C(CCC#N)C=C(Br)C1O

> <IUPAC Name>
3-(3-bromo-5-ethoxy-4-hydroxyphenyl)propanenitrile

> <CAS>
2228370-69-0

> <URL>
https://www.enaminestore.com/catalog/EN300-1920236

> <ROCS_ShapeQuery>
_x1604L0AP1_x0771L0AP1

> <ROCS_TanimotoCombo>
0.970 

> <ROCS_ShapeTanimoto>
0.519 

> <ROCS_ColorTanimoto>
0.451 

> <ROCS_RefTversky>
0.480 

> <ROCS_RefColorTversky>
0.513 

> <ROCS_RefTverskyCombo>
0.993 

> <ROCS_FitTversky>
1.185 

> <ROCS_FitColorTversky>
0.789 

> <ROCS_FitTverskyCombo>
1.974 

> <ROCS_ColorScore>
-4.881

> <ROCS_Overlap>
806.679

> <ROCS_Rank>
245                 

$$$$
untitled-dbase-647_260
  -OEChem-06052310023D

 24 24  0     0  0  0  0  0  0999 V2000
   -4.5788   12.4640  -29.8429 C   0  0  0  0  0  0  0  0  0  0  0  0
   -5.0588   11.1284  -31.7980 C   0  0  0  0  0  0  0  0  0  0  0  0
   -4.3287   12.1416  -31.1767 C   0  0  0  0  0  0  0  0  0  0  0  0
   -5.5590   11.7731  -29.1303 C   0  0  0  0  0  0  0  0  0  0  0  0
   -6.2891   10.7600  -29.7517 C   0  0  0  0  0  0  0  0  0  0  0  0
   -6.0390   10.4376  -31.0855 C   0  0  0  0  0  0  0  0  0  0  0  0
   -2.5864   13.9485  -31.1081 C   0  0  0  0  0  0  0  0  0  0  0  0
   -6.7706   13.1069  -27.5783 C   0  0  0  0  0  0  0  0  0  0  0  0
   -3.2813   12.8810  -31.9383 C   0  0  0  0  0  0  0  0  0  0  0  0
   -3.3889   14.9734  -30.6815 N   0  0  0  0  0  0  0  0  0  0  0  0
   -7.2444   10.0964  -29.0384 O   0  0  0  0  0  0  0  0  0  0  0  0
   -5.7921   12.0999  -27.8284 O   0  0  0  0  0  0  0  0  0  0  0  0
   -0.9528   13.8972  -30.7535 S   0  0  0  0  0  0  0  0  0  0  0  0
   -7.0108    9.0671  -31.9639 Br  0  0  0  0  0  0  0  0  0  0  0  0
   -4.0111   13.2536  -29.3563 H   0  0  0  0  0  0  0  0  0  0  0  0
   -4.8567   10.8845  -32.8387 H   0  0  0  0  0  0  0  0  0  0  0  0
   -6.8585   13.2711  -26.5015 H   0  0  0  0  0  0  0  0  0  0  0  0
   -7.7328   12.7914  -27.9893 H   0  0  0  0  0  0  0  0  0  0  0  0
   -6.4569   14.0352  -28.0617 H   0  0  0  0  0  0  0  0  0  0  0  0
   -3.7076   13.3474  -32.8436 H   0  0  0  0  0  0  0  0  0  0  0  0
   -2.5229   12.1715  -32.3128 H   0  0  0  0  0  0  0  0  0  0  0  0
   -4.3778   15.0184  -30.9051 H   0  0  0  0  0  0  0  0  0  0  0  0
   -3.0144   15.7329  -30.1228 H   0  0  0  0  0  0  0  0  0  0  0  0
   -7.2873   10.4447  -28.1348 H   0  0  0  0  0  0  0  0  0  0  0  0
  1  3  1  0  0  0  0
  1  4  2  0  0  0  0
  2  3  2  0  0  0  0
  2  6  1  0  0  0  0
  3  9  1  0  0  0  0
  4  5  1  0  0  0  0
  4 12  1  0  0  0  0
  5  6  2  0  0  0  0
  5 11  1  0  0  0  0
  6 14  1  0  0  0  0
  7  9  1  0  0  0  0
  7 10  1  0  0  0  0
  7 13  2  0  0  0  0
  8 12  1  0  0  0  0
  1 15  1  0  0  0  0
  2 16  1  0  0  0  0
  8 17  1  0  0  0  0
  8 18  1  0  0  0  0
  8 19  1  0  0  0  0
  9 20  1  0  0  0  0
  9 21  1  0  0  0  0
 10 22  1  0  0  0  0
 10 23  1  0  0  0  0
 11 24  1  0  0  0  0
M  END
> <id>
EN300-1925674

> <smiles>
COC=1C=C(CC(=S)N)C=C(Br)C1O

> <IUPAC Name>
2-(3-bromo-4-hydroxy-5-methoxyphenyl)ethanethioamide

> <CAS>
2229398-06-3

> <URL>
https://www.enaminestore.com/catalog/EN300-1925674

> <ROCS_ShapeQuery>
_x1604L0AP1_x0771L0AP1

> <ROCS_TanimotoCombo>
0.970 

> <ROCS_ShapeTanimoto>
0.519 

> <ROCS_ColorTanimoto>
0.451 

> <ROCS_RefTversky>
0.472 

> <ROCS_RefColorTversky>
0.513 

> <ROCS_RefTverskyCombo>
0.985 

> <ROCS_FitTversky>
1.239 

> <ROCS_FitColorTversky>
0.789 

> <ROCS_FitTverskyCombo>
2.028 

> <ROCS_ColorScore>
-4.881

> <ROCS_Overlap>
791.276

> <ROCS_Rank>
246                 

$$$$
untitled-dbase-1587_42
  -OEChem-06052310023D

 25 26  0     0  0  0  0  0  0999 V2000
   -4.6058   12.4899  -29.8683 C   0  0  0  0  0  0  0  0  0  0  0  0
   -4.3563   12.1662  -31.2019 C   0  0  0  0  0  0  0  0  0  0  0  0
   -5.5752   11.7898  -29.1502 C   0  0  0  0  0  0  0  0  0  0  0  0
   -5.0763   11.1423  -31.8175 C   0  0  0  0  0  0  0  0  0  0  0  0
   -6.2952   10.7659  -29.7657 C   0  0  0  0  0  0  0  0  0  0  0  0
   -6.0458   10.4421  -31.0994 C   0  0  0  0  0  0  0  0  0  0  0  0
   -6.4047   12.3239  -34.5886 C   0  0  0  0  0  0  0  0  0  0  0  0
   -7.2175   11.5894  -33.5627 C   0  0  0  0  0  0  0  0  0  0  0  0
   -5.9823   10.9404  -34.1467 C   0  0  0  0  0  0  0  0  0  0  0  0
   -4.7680   10.8309  -33.2650 C   0  0  0  0  0  0  0  0  0  0  0  0
   -6.1548    9.8149  -35.0895 N   0  0  0  0  0  0  0  0  0  0  0  0
   -7.2352   10.1042  -29.0325 O   0  0  0  0  0  0  0  0  0  0  0  0
   -7.0341    9.0432  -31.9283 Br  0  0  0  0  0  0  0  0  0  0  0  0
   -4.0455   13.2875  -29.3892 H   0  0  0  0  0  0  0  0  0  0  0  0
   -3.5987   12.7184  -31.7521 H   0  0  0  0  0  0  0  0  0  0  0  0
   -5.7642   12.0483  -28.1117 H   0  0  0  0  0  0  0  0  0  0  0  0
   -6.8344   12.4463  -35.5761 H   0  0  0  0  0  0  0  0  0  0  0  0
   -5.8243   13.1760  -34.2546 H   0  0  0  0  0  0  0  0  0  0  0  0
   -7.1821   11.9486  -32.5410 H   0  0  0  0  0  0  0  0  0  0  0  0
   -8.1909   11.2196  -33.8641 H   0  0  0  0  0  0  0  0  0  0  0  0
   -3.9732   11.5097  -33.6153 H   0  0  0  0  0  0  0  0  0  0  0  0
   -4.3340    9.8194  -33.3284 H   0  0  0  0  0  0  0  0  0  0  0  0
   -5.2607    9.4299  -35.2524 H   0  0  0  0  0  0  0  0  0  0  0  0
   -6.7585    9.1633  -34.6591 H   0  0  0  0  0  0  0  0  0  0  0  0
   -7.6608    9.4212  -29.5735 H   0  0  0  0  0  0  0  0  0  0  0  0
  1  2  1  0  0  0  0
  1  3  2  0  0  0  0
  2  4  2  0  0  0  0
  3  5  1  0  0  0  0
  4  6  1  0  0  0  0
  4 10  1  0  0  0  0
  5  6  2  0  0  0  0
  5 12  1  0  0  0  0
  6 13  1  0  0  0  0
  7  8  1  0  0  0  0
  7  9  1  0  0  0  0
  8  9  1  0  0  0  0
  9 10  1  0  0  0  0
  9 11  1  0  0  0  0
  1 14  1  0  0  0  0
  2 15  1  0  0  0  0
  3 16  1  0  0  0  0
  7 17  1  0  0  0  0
  7 18  1  0  0  0  0
  8 19  1  0  0  0  0
  8 20  1  0  0  0  0
 10 21  1  0  0  0  0
 10 22  1  0  0  0  0
 11 23  1  0  0  0  0
 11 24  1  0  0  0  0
 12 25  1  0  0  0  0
M  END
> <id>
EN300-1904509

> <smiles>
NC1(CC=2C=CC=C(O)C2Br)CC1

> <IUPAC Name>
3-[(1-aminocyclopropyl)methyl]-2-bromophenol

> <CAS>
2229143-38-6

> <URL>
https://www.enaminestore.com/catalog/EN300-1904509

> <ROCS_ShapeQuery>
_x1604L0AP1_x0771L0AP1

> <ROCS_TanimotoCombo>
0.970 

> <ROCS_ShapeTanimoto>
0.519 

> <ROCS_ColorTanimoto>
0.451 

> <ROCS_RefTversky>
0.466 

> <ROCS_RefColorTversky>
0.513 

> <ROCS_RefTverskyCombo>
0.979 

> <ROCS_FitTversky>
1.280 

> <ROCS_FitColorTversky>
0.789 

> <ROCS_FitTverskyCombo>
2.070 

> <ROCS_ColorScore>
-4.882

> <ROCS_Overlap>
780.583

> <ROCS_Rank>
247                 

$$$$
untitled-dbase-570_1084
  -OEChem-06052310023D

 31 32  0     0  0  0  0  0  0999 V2000
   -6.2951   10.0940  -31.2362 C   0  0  0  0  0  0  0  0  0  0  0  0
   -4.5058   11.6086  -31.8203 C   0  0  0  0  0  0  0  0  0  0  0  0
   -5.3975   10.5972  -32.1777 C   0  0  0  0  0  0  0  0  0  0  0  0
   -6.3012   10.6022  -29.9372 C   0  0  0  0  0  0  0  0  0  0  0  0
   -5.4095   11.6136  -29.5797 C   0  0  0  0  0  0  0  0  0  0  0  0
   -4.5118   12.1168  -30.5213 C   0  0  0  0  0  0  0  0  0  0  0  0
   -7.8694    9.3173  -33.5574 C   0  0  0  0  0  0  0  0  0  0  0  0
   -7.3648    9.0935  -34.9543 C   0  0  0  0  0  0  0  0  0  0  0  0
   -6.4178    8.9648  -33.7841 C   0  0  0  0  0  0  0  0  0  0  0  0
   -8.0592    9.0679  -29.4777 C   0  0  0  0  0  0  0  0  0  0  0  0
   -5.3906   10.0452  -33.5860 C   0  0  0  0  0  0  0  0  0  0  0  0
   -5.9582    7.5860  -33.3975 C   0  0  0  0  0  0  0  0  0  0  0  0
   -5.4301   12.0970  -28.3039 O   0  0  0  0  0  0  0  0  0  0  0  0
   -6.3348    6.6610  -34.4110 O   0  0  0  0  0  0  0  0  0  0  0  0
   -7.1834   10.1000  -29.0286 O   0  0  0  0  0  0  0  0  0  0  0  0
   -3.2852   13.4909  -30.0728 Br  0  0  0  0  0  0  0  0  0  0  0  0
   -6.9910    9.3053  -31.5123 H   0  0  0  0  0  0  0  0  0  0  0  0
   -3.8093   11.9943  -32.5616 H   0  0  0  0  0  0  0  0  0  0  0  0
   -8.1183   10.3317  -33.2691 H   0  0  0  0  0  0  0  0  0  0  0  0
   -8.5259    8.5667  -33.1335 H   0  0  0  0  0  0  0  0  0  0  0  0
   -7.6836    8.1930  -35.4658 H   0  0  0  0  0  0  0  0  0  0  0  0
   -7.2759    9.9580  -35.6015 H   0  0  0  0  0  0  0  0  0  0  0  0
   -8.7096    8.7577  -28.6562 H   0  0  0  0  0  0  0  0  0  0  0  0
   -7.4706    8.2178  -29.8316 H   0  0  0  0  0  0  0  0  0  0  0  0
   -8.6702    9.4521  -30.2980 H   0  0  0  0  0  0  0  0  0  0  0  0
   -5.5575   10.8731  -34.2949 H   0  0  0  0  0  0  0  0  0  0  0  0
   -4.3808    9.6666  -33.8161 H   0  0  0  0  0  0  0  0  0  0  0  0
   -6.4170    7.2687  -32.4522 H   0  0  0  0  0  0  0  0  0  0  0  0
   -4.8668    7.5514  -33.2861 H   0  0  0  0  0  0  0  0  0  0  0  0
   -6.1090   11.6390  -27.7852 H   0  0  0  0  0  0  0  0  0  0  0  0
   -5.9025    6.9531  -35.2292 H   0  0  0  0  0  0  0  0  0  0  0  0
  1  3  1  0  0  0  0
  1  4  2  0  0  0  0
  2  3  2  0  0  0  0
  2  6  1  0  0  0  0
  3 11  1  0  0  0  0
  4  5  1  0  0  0  0
  4 15  1  0  0  0  0
  5  6  2  0  0  0  0
  5 13  1  0  0  0  0
  6 16  1  0  0  0  0
  7  8  1  0  0  0  0
  7  9  1  0  0  0  0
  8  9  1  0  0  0  0
  9 11  1  0  0  0  0
  9 12  1  0  0  0  0
 10 15  1  0  0  0  0
 12 14  1  0  0  0  0
  1 17  1  0  0  0  0
  2 18  1  0  0  0  0
  7 19  1  0  0  0  0
  7 20  1  0  0  0  0
  8 21  1  0  0  0  0
  8 22  1  0  0  0  0
 10 23  1  0  0  0  0
 10 24  1  0  0  0  0
 10 25  1  0  0  0  0
 11 26  1  0  0  0  0
 11 27  1  0  0  0  0
 12 28  1  0  0  0  0
 12 29  1  0  0  0  0
 13 30  1  0  0  0  0
 14 31  1  0  0  0  0
M  END
> <id>
EN300-1925710

> <smiles>
COC=1C=C(CC2(CO)CC2)C=C(Br)C1O

> <IUPAC Name>
2-bromo-4-{[1-(hydroxymethyl)cyclopropyl]methyl}-6-methoxyphenol

> <CAS>
2228199-58-2

> <URL>
https://www.enaminestore.com/catalog/EN300-1925710

> <ROCS_ShapeQuery>
_x1604L0AP1_x0771L0AP1

> <ROCS_TanimotoCombo>
0.970 

> <ROCS_ShapeTanimoto>
0.594 

> <ROCS_ColorTanimoto>
0.376 

> <ROCS_RefTversky>
0.535 

> <ROCS_RefColorTversky>
0.477 

> <ROCS_RefTverskyCombo>
1.013 

> <ROCS_FitTversky>
1.224 

> <ROCS_FitColorTversky>
0.640 

> <ROCS_FitTverskyCombo>
1.864 

> <ROCS_ColorScore>
-4.566

> <ROCS_Overlap>
900.780

> <ROCS_Rank>
248                 

$$$$
untitled-dbase-539_664
  -OEChem-06052310023D

 26 26  0     1  0  0  0  0  0999 V2000
   -6.7387   11.5895  -33.5731 C   0  0  0  0  0  0  0  0  0  0  0  0
   -6.7463   11.8825  -32.2094 C   0  0  0  0  0  0  0  0  0  0  0  0
   -6.5777   10.2721  -34.0024 C   0  0  0  0  0  0  0  0  0  0  0  0
   -6.5928   10.8583  -31.2750 C   0  0  0  0  0  0  0  0  0  0  0  0
   -6.4318    9.5409  -31.7044 C   0  0  0  0  0  0  0  0  0  0  0  0
   -6.4242    9.2478  -33.0681 C   0  0  0  0  0  0  0  0  0  0  0  0
   -4.3592   12.2115  -30.2647 C   0  0  0  0  0  0  0  0  0  0  0  0
   -3.0556   14.1664  -30.5209 C   0  0  0  0  0  0  0  0  0  0  0  0
   -5.1886   11.4358  -29.2697 C   0  0  0  0  0  0  0  0  0  0  0  0
   -6.6029   11.1984  -29.8025 C   0  0  2  0  0  0  0  0  0  0  0  0
   -4.1478   11.8393  -31.4116 O   0  0  0  0  0  0  0  0  0  0  0  0
   -6.2811    8.5500  -30.7781 O   0  0  0  0  0  0  0  0  0  0  0  0
   -7.2116   10.1160  -29.0971 O   0  0  0  0  0  0  0  0  0  0  0  0
   -3.8808   13.3493  -29.6847 O   0  0  0  0  0  0  0  0  0  0  0  0
   -6.2090    7.4705  -33.6917 Br  0  0  0  0  0  0  0  0  0  0  0  0
   -6.8587   12.3868  -34.3006 H   0  0  0  0  0  0  0  0  0  0  0  0
   -6.8747   12.9113  -31.8835 H   0  0  0  0  0  0  0  0  0  0  0  0
   -6.5748   10.0630  -35.0693 H   0  0  0  0  0  0  0  0  0  0  0  0
   -2.7278   15.0465  -29.9623 H   0  0  0  0  0  0  0  0  0  0  0  0
   -3.6209   14.4723  -31.4048 H   0  0  0  0  0  0  0  0  0  0  0  0
   -2.1819   13.5886  -30.8316 H   0  0  0  0  0  0  0  0  0  0  0  0
   -5.2013   12.0104  -28.3353 H   0  0  0  0  0  0  0  0  0  0  0  0
   -4.6689   10.4935  -29.0551 H   0  0  0  0  0  0  0  0  0  0  0  0
   -7.2331   12.0792  -29.6306 H   0  0  0  0  0  0  0  0  0  0  0  0
   -6.3085    8.9233  -29.8841 H   0  0  0  0  0  0  0  0  0  0  0  0
   -7.2037   10.3619  -28.1599 H   0  0  0  0  0  0  0  0  0  0  0  0
  1  2  1  0  0  0  0
  1  3  2  0  0  0  0
  2  4  2  0  0  0  0
  3  6  1  0  0  0  0
  4  5  1  0  0  0  0
  4 10  1  0  0  0  0
  5  6  2  0  0  0  0
  5 12  1  0  0  0  0
  6 15  1  0  0  0  0
  7  9  1  0  0  0  0
  7 11  2  0  0  0  0
  7 14  1  0  0  0  0
  8 14  1  0  0  0  0
  9 10  1  0  0  0  0
 10 13  1  6  0  0  0
  1 16  1  0  0  0  0
  2 17  1  0  0  0  0
  3 18  1  0  0  0  0
  8 19  1  0  0  0  0
  8 20  1  0  0  0  0
  8 21  1  0  0  0  0
  9 22  1  0  0  0  0
  9 23  1  0  0  0  0
 10 24  1  0  0  0  0
 12 25  1  0  0  0  0
 13 26  1  0  0  0  0
M  END
> <id>
EN300-1923421

> <smiles>
COC(=O)C[C@H](O)C=1C=CC=C(Br)C1O

> <IUPAC Name>
methyl (3S)-3-(3-bromo-2-hydroxyphenyl)-3-hydroxypropanoate

> <CAS>
2227878-23-9

> <URL>
https://www.enaminestore.com/catalog/EN300-1923421

> <ROCS_ShapeQuery>
_x1604L0AP1_x0771L0AP1

> <ROCS_TanimotoCombo>
0.969 

> <ROCS_ShapeTanimoto>
0.665 

> <ROCS_ColorTanimoto>
0.304 

> <ROCS_RefTversky>
0.564 

> <ROCS_RefColorTversky>
0.407 

> <ROCS_RefTverskyCombo>
0.971 

> <ROCS_FitTversky>
1.371 

> <ROCS_FitColorTversky>
0.546 

> <ROCS_FitTverskyCombo>
1.917 

> <ROCS_ColorScore>
-3.896

> <ROCS_Overlap>
946.927

> <ROCS_Rank>
249                 

$$$$
untitled-dbase-590_664
  -OEChem-06052310023D

 26 26  0     1  0  0  0  0  0999 V2000
   -6.7387   11.5895  -33.5731 C   0  0  0  0  0  0  0  0  0  0  0  0
   -6.7463   11.8825  -32.2094 C   0  0  0  0  0  0  0  0  0  0  0  0
   -6.5777   10.2721  -34.0024 C   0  0  0  0  0  0  0  0  0  0  0  0
   -6.5928   10.8583  -31.2750 C   0  0  0  0  0  0  0  0  0  0  0  0
   -6.4318    9.5409  -31.7044 C   0  0  0  0  0  0  0  0  0  0  0  0
   -6.4242    9.2478  -33.0681 C   0  0  0  0  0  0  0  0  0  0  0  0
   -4.3592   12.2115  -30.2647 C   0  0  0  0  0  0  0  0  0  0  0  0
   -3.0556   14.1664  -30.5209 C   0  0  0  0  0  0  0  0  0  0  0  0
   -5.1886   11.4358  -29.2697 C   0  0  0  0  0  0  0  0  0  0  0  0
   -6.6029   11.1984  -29.8025 C   0  0  2  0  0  0  0  0  0  0  0  0
   -4.1478   11.8393  -31.4116 O   0  0  0  0  0  0  0  0  0  0  0  0
   -6.2811    8.5500  -30.7781 O   0  0  0  0  0  0  0  0  0  0  0  0
   -7.2116   10.1160  -29.0971 O   0  0  0  0  0  0  0  0  0  0  0  0
   -3.8808   13.3493  -29.6847 O   0  0  0  0  0  0  0  0  0  0  0  0
   -6.2090    7.4705  -33.6917 Br  0  0  0  0  0  0  0  0  0  0  0  0
   -6.8587   12.3868  -34.3006 H   0  0  0  0  0  0  0  0  0  0  0  0
   -6.8747   12.9113  -31.8835 H   0  0  0  0  0  0  0  0  0  0  0  0
   -6.5748   10.0630  -35.0693 H   0  0  0  0  0  0  0  0  0  0  0  0
   -2.7278   15.0465  -29.9623 H   0  0  0  0  0  0  0  0  0  0  0  0
   -3.6209   14.4723  -31.4048 H   0  0  0  0  0  0  0  0  0  0  0  0
   -2.1819   13.5886  -30.8316 H   0  0  0  0  0  0  0  0  0  0  0  0
   -5.2013   12.0104  -28.3353 H   0  0  0  0  0  0  0  0  0  0  0  0
   -4.6689   10.4935  -29.0551 H   0  0  0  0  0  0  0  0  0  0  0  0
   -7.2331   12.0792  -29.6306 H   0  0  0  0  0  0  0  0  0  0  0  0
   -6.3085    8.9233  -29.8841 H   0  0  0  0  0  0  0  0  0  0  0  0
   -7.2037   10.3619  -28.1599 H   0  0  0  0  0  0  0  0  0  0  0  0
  1  2  1  0  0  0  0
  1  3  2  0  0  0  0
  2  4  2  0  0  0  0
  3  6  1  0  0  0  0
  4  5  1  0  0  0  0
  4 10  1  0  0  0  0
  5  6  2  0  0  0  0
  5 12  1  0  0  0  0
  6 15  1  0  0  0  0
  7  9  1  0  0  0  0
  7 11  2  0  0  0  0
  7 14  1  0  0  0  0
  8 14  1  0  0  0  0
  9 10  1  0  0  0  0
 10 13  1  0  0  0  0
  1 16  1  0  0  0  0
  2 17  1  0  0  0  0
  3 18  1  0  0  0  0
  8 19  1  0  0  0  0
  8 20  1  0  0  0  0
  8 21  1  0  0  0  0
  9 22  1  0  0  0  0
  9 23  1  0  0  0  0
 10 24  1  0  0  0  0
 12 25  1  0  0  0  0
 13 26  1  0  0  0  0
M  END
> <id>
EN300-1923424

> <smiles>
COC(=O)CC(O)C=1C=CC=C(Br)C1O

> <IUPAC Name>
methyl 3-(3-bromo-2-hydroxyphenyl)-3-hydroxypropanoate

> <CAS>
2229145-80-4

> <URL>
https://www.enaminestore.com/catalog/EN300-1923424

> <ROCS_ShapeQuery>
_x1604L0AP1_x0771L0AP1

> <ROCS_TanimotoCombo>
0.969 

> <ROCS_ShapeTanimoto>
0.665 

> <ROCS_ColorTanimoto>
0.304 

> <ROCS_RefTversky>
0.564 

> <ROCS_RefColorTversky>
0.407 

> <ROCS_RefTverskyCombo>
0.971 

> <ROCS_FitTversky>
1.371 

> <ROCS_FitColorTversky>
0.546 

> <ROCS_FitTverskyCombo>
1.917 

> <ROCS_ColorScore>
-3.896

> <ROCS_Overlap>
946.927

> <ROCS_Rank>
250                 

$$$$
untitled-dbase-2170_39
  -OEChem-06052310023D

 27 27  0     1  0  0  0  0  0999 V2000
   -5.1378   11.4143  -31.8242 C   0  0  0  0  0  0  0  0  0  0  0  0
   -4.4462   12.3588  -29.7108 C   0  0  0  0  0  0  0  0  0  0  0  0
   -6.1179   10.6680  -31.1700 C   0  0  0  0  0  0  0  0  0  0  0  0
   -6.2622   10.7671  -29.7861 C   0  0  0  0  0  0  0  0  0  0  0  0
   -4.3019   12.2597  -31.0946 C   0  0  0  0  0  0  0  0  0  0  0  0
   -5.4263   11.6126  -29.0565 C   0  0  0  0  0  0  0  0  0  0  0  0
   -8.3681    7.3796  -32.9399 C   0  0  0  0  0  0  0  0  0  0  0  0
   -7.0108    9.7603  -31.9779 C   0  0  0  0  0  0  0  0  0  0  0  0
   -6.2484    8.7374  -32.8334 C   0  0  0  0  0  0  0  0  0  0  0  0
   -7.1431    7.8526  -33.7172 C   0  0  1  0  0  0  0  0  0  0  0  0
   -6.4192    6.7112  -34.2252 N   0  0  0  0  0  0  0  0  0  0  0  0
   -7.2258   10.0304  -29.1605 O   0  0  0  0  0  0  0  0  0  0  0  0
   -3.0925   13.1802  -31.9025 Cl  0  0  0  0  0  0  0  0  0  0  0  0
   -5.5915   11.7741  -27.1746 Br  0  0  0  0  0  0  0  0  0  0  0  0
   -5.0288   11.3344  -32.9038 H   0  0  0  0  0  0  0  0  0  0  0  0
   -3.7920   13.0189  -29.1455 H   0  0  0  0  0  0  0  0  0  0  0  0
   -8.0787    6.8055  -32.0526 H   0  0  0  0  0  0  0  0  0  0  0  0
   -8.9785    8.2286  -32.6155 H   0  0  0  0  0  0  0  0  0  0  0  0
   -8.9951    6.7304  -33.5611 H   0  0  0  0  0  0  0  0  0  0  0  0
   -7.7234    9.2472  -31.3206 H   0  0  0  0  0  0  0  0  0  0  0  0
   -7.6242   10.3874  -32.6384 H   0  0  0  0  0  0  0  0  0  0  0  0
   -5.6392    8.0981  -32.1819 H   0  0  0  0  0  0  0  0  0  0  0  0
   -5.5465    9.2904  -33.4717 H   0  0  0  0  0  0  0  0  0  0  0  0
   -7.4867    8.4184  -34.5898 H   0  0  0  0  0  0  0  0  0  0  0  0
   -5.4802    6.7435  -33.8894 H   0  0  0  0  0  0  0  0  0  0  0  0
   -6.8633    5.8756  -33.9087 H   0  0  0  0  0  0  0  0  0  0  0  0
   -7.2079   10.2009  -28.2065 H   0  0  0  0  0  0  0  0  0  0  0  0
  1  3  2  0  0  0  0
  1  5  1  0  0  0  0
  2  5  2  0  0  0  0
  2  6  1  0  0  0  0
  3  4  1  0  0  0  0
  3  8  1  0  0  0  0
  4  6  2  0  0  0  0
  4 12  1  0  0  0  0
  5 13  1  0  0  0  0
  6 14  1  0  0  0  0
  7 10  1  6  0  0  0
  8  9  1  0  0  0  0
  9 10  1  0  0  0  0
 10 11  1  0  0  0  0
  1 15  1  0  0  0  0
  2 16  1  0  0  0  0
  7 17  1  0  0  0  0
  7 18  1  0  0  0  0
  7 19  1  0  0  0  0
  8 20  1  0  0  0  0
  8 21  1  0  0  0  0
  9 22  1  0  0  0  0
  9 23  1  0  0  0  0
 10 24  1  0  0  0  0
 11 25  1  0  0  0  0
 11 26  1  0  0  0  0
 12 27  1  0  0  0  0
M  END
> <id>
EN300-1922592

> <smiles>
C[C@H](N)CCC=1C=C(Cl)C=C(Br)C1O

> <IUPAC Name>
2-[(3S)-3-aminobutyl]-6-bromo-4-chlorophenol

> <CAS>
2227794-24-1

> <URL>
https://www.enaminestore.com/catalog/EN300-1922592

> <ROCS_ShapeQuery>
_x1604L0AP1_x0771L0AP1

> <ROCS_TanimotoCombo>
0.969 

> <ROCS_ShapeTanimoto>
0.540 

> <ROCS_ColorTanimoto>
0.430 

> <ROCS_RefTversky>
0.481 

> <ROCS_RefColorTversky>
0.496 

> <ROCS_RefTverskyCombo>
0.977 

> <ROCS_FitTversky>
1.289 

> <ROCS_FitColorTversky>
0.763 

> <ROCS_FitTverskyCombo>
2.052 

> <ROCS_ColorScore>
-4.718

> <ROCS_Overlap>
807.204

> <ROCS_Rank>
251                 

$$$$
untitled-dbase-1718_39
  -OEChem-06052310023D

 27 27  0     1  0  0  0  0  0999 V2000
   -5.1378   11.4143  -31.8242 C   0  0  0  0  0  0  0  0  0  0  0  0
   -4.4462   12.3588  -29.7108 C   0  0  0  0  0  0  0  0  0  0  0  0
   -6.1179   10.6680  -31.1700 C   0  0  0  0  0  0  0  0  0  0  0  0
   -6.2622   10.7671  -29.7861 C   0  0  0  0  0  0  0  0  0  0  0  0
   -4.3019   12.2597  -31.0946 C   0  0  0  0  0  0  0  0  0  0  0  0
   -5.4263   11.6126  -29.0565 C   0  0  0  0  0  0  0  0  0  0  0  0
   -8.3681    7.3796  -32.9399 C   0  0  0  0  0  0  0  0  0  0  0  0
   -7.0108    9.7603  -31.9779 C   0  0  0  0  0  0  0  0  0  0  0  0
   -6.2484    8.7374  -32.8334 C   0  0  0  0  0  0  0  0  0  0  0  0
   -7.1431    7.8526  -33.7172 C   0  0  1  0  0  0  0  0  0  0  0  0
   -6.4192    6.7112  -34.2252 N   0  0  0  0  0  0  0  0  0  0  0  0
   -7.2258   10.0304  -29.1605 O   0  0  0  0  0  0  0  0  0  0  0  0
   -3.0925   13.1802  -31.9025 Cl  0  0  0  0  0  0  0  0  0  0  0  0
   -5.5915   11.7741  -27.1746 Br  0  0  0  0  0  0  0  0  0  0  0  0
   -5.0288   11.3344  -32.9038 H   0  0  0  0  0  0  0  0  0  0  0  0
   -3.7920   13.0189  -29.1455 H   0  0  0  0  0  0  0  0  0  0  0  0
   -8.0787    6.8055  -32.0526 H   0  0  0  0  0  0  0  0  0  0  0  0
   -8.9785    8.2286  -32.6155 H   0  0  0  0  0  0  0  0  0  0  0  0
   -8.9951    6.7304  -33.5611 H   0  0  0  0  0  0  0  0  0  0  0  0
   -7.7234    9.2472  -31.3206 H   0  0  0  0  0  0  0  0  0  0  0  0
   -7.6242   10.3874  -32.6384 H   0  0  0  0  0  0  0  0  0  0  0  0
   -5.6392    8.0981  -32.1819 H   0  0  0  0  0  0  0  0  0  0  0  0
   -5.5465    9.2904  -33.4717 H   0  0  0  0  0  0  0  0  0  0  0  0
   -7.4867    8.4184  -34.5898 H   0  0  0  0  0  0  0  0  0  0  0  0
   -5.4802    6.7435  -33.8894 H   0  0  0  0  0  0  0  0  0  0  0  0
   -6.8633    5.8756  -33.9087 H   0  0  0  0  0  0  0  0  0  0  0  0
   -7.2079   10.2009  -28.2065 H   0  0  0  0  0  0  0  0  0  0  0  0
  1  3  2  0  0  0  0
  1  5  1  0  0  0  0
  2  5  2  0  0  0  0
  2  6  1  0  0  0  0
  3  4  1  0  0  0  0
  3  8  1  0  0  0  0
  4  6  2  0  0  0  0
  4 12  1  0  0  0  0
  5 13  1  0  0  0  0
  6 14  1  0  0  0  0
  7 10  1  0  0  0  0
  8  9  1  0  0  0  0
  9 10  1  0  0  0  0
 10 11  1  0  0  0  0
  1 15  1  0  0  0  0
  2 16  1  0  0  0  0
  7 17  1  0  0  0  0
  7 18  1  0  0  0  0
  7 19  1  0  0  0  0
  8 20  1  0  0  0  0
  8 21  1  0  0  0  0
  9 22  1  0  0  0  0
  9 23  1  0  0  0  0
 10 24  1  0  0  0  0
 11 25  1  0  0  0  0
 11 26  1  0  0  0  0
 12 27  1  0  0  0  0
M  END
> <id>
EN300-1922578

> <smiles>
CC(N)CCC=1C=C(Cl)C=C(Br)C1O

> <IUPAC Name>
2-(3-aminobutyl)-6-bromo-4-chlorophenol

> <CAS>
2229473-02-1

> <URL>
https://www.enaminestore.com/catalog/EN300-1922578

> <ROCS_ShapeQuery>
_x1604L0AP1_x0771L0AP1

> <ROCS_TanimotoCombo>
0.969 

> <ROCS_ShapeTanimoto>
0.540 

> <ROCS_ColorTanimoto>
0.430 

> <ROCS_RefTversky>
0.481 

> <ROCS_RefColorTversky>
0.496 

> <ROCS_RefTverskyCombo>
0.977 

> <ROCS_FitTversky>
1.289 

> <ROCS_FitColorTversky>
0.763 

> <ROCS_FitTverskyCombo>
2.052 

> <ROCS_ColorScore>
-4.718

> <ROCS_Overlap>
807.204

> <ROCS_Rank>
252                 

$$$$
untitled-dbase-1511_0
  -OEChem-06052310023D

 14 14  0     0  0  0  0  0  0999 V2000
   -3.3154   12.8473  -31.8950 C   0  0  0  0  0  0  0  0  0  0  0  0
   -4.5795   12.4632  -29.8376 C   0  0  0  0  0  0  0  0  0  0  0  0
   -5.5635   11.7735  -29.1293 C   0  0  0  0  0  0  0  0  0  0  0  0
   -5.0512   11.1268  -31.7943 C   0  0  0  0  0  0  0  0  0  0  0  0
   -4.3234   12.1399  -31.1701 C   0  0  0  0  0  0  0  0  0  0  0  0
   -6.2913   10.7605  -29.7534 C   0  0  0  0  0  0  0  0  0  0  0  0
   -6.0352   10.4371  -31.0859 C   0  0  0  0  0  0  0  0  0  0  0  0
   -2.4968   13.4218  -32.4837 N   0  0  0  0  0  0  0  0  0  0  0  0
   -7.2445   10.1043  -29.0328 O   0  0  0  0  0  0  0  0  0  0  0  0
   -7.0045    9.0660  -31.9654 Br  0  0  0  0  0  0  0  0  0  0  0  0
   -4.0205   13.2502  -29.3370 H   0  0  0  0  0  0  0  0  0  0  0  0
   -5.7571   12.0302  -28.0912 H   0  0  0  0  0  0  0  0  0  0  0  0
   -4.8491   10.8766  -32.8340 H   0  0  0  0  0  0  0  0  0  0  0  0
   -7.6726    9.4291  -29.5817 H   0  0  0  0  0  0  0  0  0  0  0  0
  1  5  1  0  0  0  0
  1  8  3  0  0  0  0
  2  3  1  0  0  0  0
  2  5  2  0  0  0  0
  3  6  2  0  0  0  0
  4  5  1  0  0  0  0
  4  7  2  0  0  0  0
  6  7  1  0  0  0  0
  6  9  1  0  0  0  0
  7 10  1  0  0  0  0
  2 11  1  0  0  0  0
  3 12  1  0  0  0  0
  4 13  1  0  0  0  0
  9 14  1  0  0  0  0
M  END
> <id>
EN300-118438

> <smiles>
OC=1C=CC(C#N)=CC1Br

> <MDLNUMBER>
MFCD00143096

> <IUPAC Name>
3-bromo-4-hydroxybenzonitrile

> <CAS>
2315-86-8

> <Purity>
95

> <URL>
https://www.enaminestore.com/catalog/EN300-118438

> <MP>
156-160

> <ROCS_ShapeQuery>
_x1604L0AP1_x0771L0AP1

> <ROCS_TanimotoCombo>
0.969 

> <ROCS_ShapeTanimoto>
0.473 

> <ROCS_ColorTanimoto>
0.497 

> <ROCS_RefTversky>
0.414 

> <ROCS_RefColorTversky>
0.515 

> <ROCS_RefTverskyCombo>
0.930 

> <ROCS_FitTversky>
1.423 

> <ROCS_FitColorTversky>
0.932 

> <ROCS_FitTverskyCombo>
2.355 

> <ROCS_ColorScore>
-4.879

> <ROCS_Overlap>
691.638

> <ROCS_Rank>
253                 

$$$$
untitled-dbase-511_193
  -OEChem-06052310023D

 24 24  0     0  0  0  0  0  0999 V2000
   -4.3389   12.0143  -31.3486 C   0  0  0  0  0  0  0  0  0  0  0  0
   -5.1248   11.0134  -31.9197 C   0  0  0  0  0  0  0  0  0  0  0  0
   -4.5248   12.3699  -30.0126 C   0  0  0  0  0  0  0  0  0  0  0  0
   -6.0966   10.3682  -31.1550 C   0  0  0  0  0  0  0  0  0  0  0  0
   -6.2825   10.7237  -29.8190 C   0  0  0  0  0  0  0  0  0  0  0  0
   -5.4966   11.7246  -29.2479 C   0  0  0  0  0  0  0  0  0  0  0  0
   -6.9130    9.3127  -31.7816 C   0  0  0  0  0  0  0  0  0  0  0  0
   -6.3686    7.8148  -33.8158 C   0  0  0  0  0  0  0  0  0  0  0  0
   -6.6807    8.9163  -35.8887 C   0  0  0  0  0  0  0  0  0  0  0  0
   -6.1900    8.0927  -32.3408 C   0  0  0  0  0  0  0  0  0  0  0  0
   -8.1383    9.4027  -31.8696 O   0  0  0  0  0  0  0  0  0  0  0  0
   -6.3515    6.7118  -34.3431 O   0  0  0  0  0  0  0  0  0  0  0  0
   -7.2362   10.0842  -29.0808 O   0  0  0  0  0  0  0  0  0  0  0  0
   -6.5258    9.0063  -34.4687 O   0  0  0  0  0  0  0  0  0  0  0  0
   -5.7152   12.2339  -27.4350 Br  0  0  0  0  0  0  0  0  0  0  0  0
   -3.5823   12.5175  -31.9436 H   0  0  0  0  0  0  0  0  0  0  0  0
   -4.9706   10.7456  -32.9621 H   0  0  0  0  0  0  0  0  0  0  0  0
   -3.9029   13.1516  -29.5843 H   0  0  0  0  0  0  0  0  0  0  0  0
   -6.7981    9.9187  -36.3074 H   0  0  0  0  0  0  0  0  0  0  0  0
   -7.5574    8.3071  -36.1226 H   0  0  0  0  0  0  0  0  0  0  0  0
   -5.7901    8.4481  -36.3144 H   0  0  0  0  0  0  0  0  0  0  0  0
   -5.1184    8.2365  -32.1604 H   0  0  0  0  0  0  0  0  0  0  0  0
   -6.5511    7.2036  -31.8117 H   0  0  0  0  0  0  0  0  0  0  0  0
   -7.2487   10.4357  -28.1778 H   0  0  0  0  0  0  0  0  0  0  0  0
  1  2  1  0  0  0  0
  1  3  2  0  0  0  0
  2  4  2  0  0  0  0
  3  6  1  0  0  0  0
  4  5  1  0  0  0  0
  4  7  1  0  0  0  0
  5  6  2  0  0  0  0
  5 13  1  0  0  0  0
  6 15  1  0  0  0  0
  7 10  1  0  0  0  0
  7 11  2  0  0  0  0
  8 10  1  0  0  0  0
  8 12  2  0  0  0  0
  8 14  1  0  0  0  0
  9 14  1  0  0  0  0
  1 16  1  0  0  0  0
  2 17  1  0  0  0  0
  3 18  1  0  0  0  0
  9 19  1  0  0  0  0
  9 20  1  0  0  0  0
  9 21  1  0  0  0  0
 10 22  1  0  0  0  0
 10 23  1  0  0  0  0
 13 24  1  0  0  0  0
M  END
> <id>
EN300-1923111

> <smiles>
COC(=O)CC(=O)C=1C=CC=C(Br)C1O

> <IUPAC Name>
methyl 3-(3-bromo-2-hydroxyphenyl)-3-oxopropanoate

> <CAS>
1781516-00-4

> <URL>
https://www.enaminestore.com/catalog/EN300-1923111

> <ROCS_ShapeQuery>
_x1604L0AP1_x0771L0AP1

> <ROCS_TanimotoCombo>
0.969 

> <ROCS_ShapeTanimoto>
0.568 

> <ROCS_ColorTanimoto>
0.402 

> <ROCS_RefTversky>
0.512 

> <ROCS_RefColorTversky>
0.500 

> <ROCS_RefTverskyCombo>
1.013 

> <ROCS_FitTversky>
1.235 

> <ROCS_FitColorTversky>
0.671 

> <ROCS_FitTverskyCombo>
1.906 

> <ROCS_ColorScore>
-4.786

> <ROCS_Overlap>
860.718

> <ROCS_Rank>
254                 

$$$$
untitled-dbase-741_518
  -OEChem-06052310023D

 28 28  0     0  0  0  0  0  0999 V2000
   -4.1956   15.8548  -30.2764 C   0  0  0  0  0  0  0  0  0  0  0  0
   -3.4503   14.9939  -30.6568 C   0  0  0  0  0  0  0  0  0  0  0  0
   -4.5588   12.4519  -29.8438 C   0  0  0  0  0  0  0  0  0  0  0  0
   -5.0440   11.1174  -31.7985 C   0  0  0  0  0  0  0  0  0  0  0  0
   -4.3090   12.1270  -31.1771 C   0  0  0  0  0  0  0  0  0  0  0  0
   -5.5437   11.7670  -29.1319 C   0  0  0  0  0  0  0  0  0  0  0  0
   -6.2787   10.7574  -29.7532 C   0  0  0  0  0  0  0  0  0  0  0  0
   -6.0288   10.4326  -31.0865 C   0  0  0  0  0  0  0  0  0  0  0  0
   -6.9963   13.9462  -26.9241 C   0  0  0  0  0  0  0  0  0  0  0  0
   -2.5332   13.9421  -31.1217 C   0  0  0  0  0  0  0  0  0  0  0  0
   -3.2566   12.8600  -31.9382 C   0  0  0  0  0  0  0  0  0  0  0  0
   -7.0880   12.5498  -27.5014 C   0  0  0  0  0  0  0  0  0  0  0  0
   -7.2385   10.0998  -29.0405 O   0  0  0  0  0  0  0  0  0  0  0  0
   -5.7765   12.0962  -27.8305 O   0  0  0  0  0  0  0  0  0  0  0  0
   -7.0071    9.0668  -31.9649 Br  0  0  0  0  0  0  0  0  0  0  0  0
   -4.8572   16.6182  -29.9394 H   0  0  0  0  0  0  0  0  0  0  0  0
   -3.9874   13.2388  -29.3573 H   0  0  0  0  0  0  0  0  0  0  0  0
   -4.8421   10.8715  -32.8388 H   0  0  0  0  0  0  0  0  0  0  0  0
   -6.3865   13.9540  -26.0165 H   0  0  0  0  0  0  0  0  0  0  0  0
   -6.5566   14.6365  -27.6515 H   0  0  0  0  0  0  0  0  0  0  0  0
   -7.9932   14.3303  -26.6832 H   0  0  0  0  0  0  0  0  0  0  0  0
   -1.7269   14.3904  -31.7142 H   0  0  0  0  0  0  0  0  0  0  0  0
   -2.0620   13.4752  -30.2485 H   0  0  0  0  0  0  0  0  0  0  0  0
   -3.7163   13.3451  -32.8144 H   0  0  0  0  0  0  0  0  0  0  0  0
   -2.5148   12.1577  -32.3520 H   0  0  0  0  0  0  0  0  0  0  0  0
   -7.6992   12.5490  -28.4089 H   0  0  0  0  0  0  0  0  0  0  0  0
   -7.5268   11.8612  -26.7732 H   0  0  0  0  0  0  0  0  0  0  0  0
   -7.2804   10.4490  -28.1372 H   0  0  0  0  0  0  0  0  0  0  0  0
  1  2  3  0  0  0  0
  2 10  1  0  0  0  0
  3  5  1  0  0  0  0
  3  6  2  0  0  0  0
  4  5  2  0  0  0  0
  4  8  1  0  0  0  0
  5 11  1  0  0  0  0
  6  7  1  0  0  0  0
  6 14  1  0  0  0  0
  7  8  2  0  0  0  0
  7 13  1  0  0  0  0
  8 15  1  0  0  0  0
  9 12  1  0  0  0  0
 10 11  1  0  0  0  0
 12 14  1  0  0  0  0
  1 16  1  0  0  0  0
  3 17  1  0  0  0  0
  4 18  1  0  0  0  0
  9 19  1  0  0  0  0
  9 20  1  0  0  0  0
  9 21  1  0  0  0  0
 10 22  1  0  0  0  0
 10 23  1  0  0  0  0
 11 24  1  0  0  0  0
 11 25  1  0  0  0  0
 12 26  1  0  0  0  0
 12 27  1  0  0  0  0
 13 28  1  0  0  0  0
M  END
> <id>
EN300-1920262

> <smiles>
CCOC=1C=C(CCC#C)C=C(Br)C1O

> <IUPAC Name>
2-bromo-4-(but-3-yn-1-yl)-6-ethoxyphenol

> <CAS>
2228394-90-7

> <URL>
https://www.enaminestore.com/catalog/EN300-1920262

> <ROCS_ShapeQuery>
_x1604L0AP1_x0771L0AP1

> <ROCS_TanimotoCombo>
0.969 

> <ROCS_ShapeTanimoto>
0.518 

> <ROCS_ColorTanimoto>
0.451 

> <ROCS_RefTversky>
0.479 

> <ROCS_RefColorTversky>
0.513 

> <ROCS_RefTverskyCombo>
0.992 

> <ROCS_FitTversky>
1.184 

> <ROCS_FitColorTversky>
0.789 

> <ROCS_FitTverskyCombo>
1.973 

> <ROCS_ColorScore>
-4.881

> <ROCS_Overlap>
805.031

> <ROCS_Rank>
255                 

$$$$
untitled-dbase-1265_398
  -OEChem-06052310023D

 24 24  0     0  0  0  0  0  0999 V2000
   -4.3899   12.0999  -30.2899 C   0  0  0  0  0  0  0  0  0  0  0  0
   -4.3215   11.6515  -31.6090 C   0  0  0  0  0  0  0  0  0  0  0  0
   -5.3639   11.5919  -29.4303 C   0  0  0  0  0  0  0  0  0  0  0  0
   -5.2271   10.6953  -32.0684 C   0  0  0  0  0  0  0  0  0  0  0  0
   -6.2695   10.6357  -29.8897 C   0  0  0  0  0  0  0  0  0  0  0  0
   -6.2012   10.1873  -31.2088 C   0  0  0  0  0  0  0  0  0  0  0  0
   -5.1081   10.2601  -33.4719 C   0  0  0  0  0  0  0  0  0  0  0  0
   -5.8631    8.0311  -34.5396 C   0  0  0  0  0  0  0  0  0  0  0  0
   -7.4342    8.3249  -36.2868 C   0  0  0  0  0  0  0  0  0  0  0  0
   -4.8276    8.7854  -33.7373 C   0  0  0  0  0  0  0  0  0  0  0  0
   -5.2167   11.0502  -34.4105 O   0  0  0  0  0  0  0  0  0  0  0  0
   -6.1239    6.8415  -34.4323 O   0  0  0  0  0  0  0  0  0  0  0  0
   -7.2077   10.1626  -29.0206 O   0  0  0  0  0  0  0  0  0  0  0  0
   -6.4427    8.8958  -35.4268 O   0  0  0  0  0  0  0  0  0  0  0  0
   -7.4450    8.8815  -31.8196 Br  0  0  0  0  0  0  0  0  0  0  0  0
   -3.6851   12.8449  -29.9325 H   0  0  0  0  0  0  0  0  0  0  0  0
   -3.5573   12.0559  -32.2682 H   0  0  0  0  0  0  0  0  0  0  0  0
   -5.4117   11.9473  -28.4043 H   0  0  0  0  0  0  0  0  0  0  0  0
   -7.8299    9.0972  -36.9509 H   0  0  0  0  0  0  0  0  0  0  0  0
   -8.2404    7.9002  -35.6833 H   0  0  0  0  0  0  0  0  0  0  0  0
   -6.9739    7.5346  -36.8844 H   0  0  0  0  0  0  0  0  0  0  0  0
   -3.8798    8.7261  -34.2848 H   0  0  0  0  0  0  0  0  0  0  0  0
   -4.7458    8.2697  -32.7738 H   0  0  0  0  0  0  0  0  0  0  0  0
   -7.7712    9.5080  -29.4614 H   0  0  0  0  0  0  0  0  0  0  0  0
  1  2  1  0  0  0  0
  1  3  2  0  0  0  0
  2  4  2  0  0  0  0
  3  5  1  0  0  0  0
  4  6  1  0  0  0  0
  4  7  1  0  0  0  0
  5  6  2  0  0  0  0
  5 13  1  0  0  0  0
  6 15  1  0  0  0  0
  7 10  1  0  0  0  0
  7 11  2  0  0  0  0
  8 10  1  0  0  0  0
  8 12  2  0  0  0  0
  8 14  1  0  0  0  0
  9 14  1  0  0  0  0
  1 16  1  0  0  0  0
  2 17  1  0  0  0  0
  3 18  1  0  0  0  0
  9 19  1  0  0  0  0
  9 20  1  0  0  0  0
  9 21  1  0  0  0  0
 10 22  1  0  0  0  0
 10 23  1  0  0  0  0
 13 24  1  0  0  0  0
M  END
> <id>
EN300-1904499

> <smiles>
COC(=O)CC(=O)C=1C=CC=C(O)C1Br

> <IUPAC Name>
methyl 3-(2-bromo-3-hydroxyphenyl)-3-oxopropanoate

> <CAS>
2229547-92-4

> <URL>
https://www.enaminestore.com/catalog/EN300-1904499

> <ROCS_ShapeQuery>
_x1604L0AP1_x0771L0AP1

> <ROCS_TanimotoCombo>
0.969 

> <ROCS_ShapeTanimoto>
0.498 

> <ROCS_ColorTanimoto>
0.471 

> <ROCS_RefTversky>
0.470 

> <ROCS_RefColorTversky>
0.559 

> <ROCS_RefTverskyCombo>
1.029 

> <ROCS_FitTversky>
1.136 

> <ROCS_FitColorTversky>
0.749 

> <ROCS_FitTverskyCombo>
1.885 

> <ROCS_ColorScore>
-5.345

> <ROCS_Overlap>
789.905

> <ROCS_Rank>
256                 

$$$$
untitled-dbase-942_0
  -OEChem-06052310023D

 15 15  0     0  0  0  0  0  0999 V2000
   -2.4761   13.4413  -32.5158 C   0  0  0  0  0  0  0  0  0  0  0  0
   -3.3221   12.8470  -31.9051 C   0  0  0  0  0  0  0  0  0  0  0  0
   -4.5828   12.4638  -29.8454 C   0  0  0  0  0  0  0  0  0  0  0  0
   -5.5653   11.7741  -29.1351 C   0  0  0  0  0  0  0  0  0  0  0  0
   -5.0567   11.1255  -31.8003 C   0  0  0  0  0  0  0  0  0  0  0  0
   -4.3285   12.1396  -31.1781 C   0  0  0  0  0  0  0  0  0  0  0  0
   -6.2934   10.7600  -29.7573 C   0  0  0  0  0  0  0  0  0  0  0  0
   -6.0391   10.4358  -31.0899 C   0  0  0  0  0  0  0  0  0  0  0  0
   -7.2451   10.1039  -29.0347 O   0  0  0  0  0  0  0  0  0  0  0  0
   -7.0089    9.0634  -31.9668 Br  0  0  0  0  0  0  0  0  0  0  0  0
   -1.7256   13.9684  -33.0570 H   0  0  0  0  0  0  0  0  0  0  0  0
   -4.0235   13.2516  -29.3463 H   0  0  0  0  0  0  0  0  0  0  0  0
   -5.7575   12.0314  -28.0969 H   0  0  0  0  0  0  0  0  0  0  0  0
   -4.8560   10.8746  -32.8401 H   0  0  0  0  0  0  0  0  0  0  0  0
   -7.6736    9.4280  -29.5824 H   0  0  0  0  0  0  0  0  0  0  0  0
  1  2  3  0  0  0  0
  2  6  1  0  0  0  0
  3  4  1  0  0  0  0
  3  6  2  0  0  0  0
  4  7  2  0  0  0  0
  5  6  1  0  0  0  0
  5  8  2  0  0  0  0
  7  8  1  0  0  0  0
  7  9  1  0  0  0  0
  8 10  1  0  0  0  0
  1 11  1  0  0  0  0
  3 12  1  0  0  0  0
  4 13  1  0  0  0  0
  5 14  1  0  0  0  0
  9 15  1  0  0  0  0
M  END
> <id>
EN300-1906333

> <smiles>
OC=1C=CC(C#C)=CC1Br

> <MDLNUMBER>
MFCD33501283

> <IUPAC Name>
2-bromo-4-ethynylphenol

> <CAS>
2229117-12-6

> <URL>
https://www.enaminestore.com/catalog/EN300-1906333

> <ROCS_ShapeQuery>
_x1604L0AP1_x0771L0AP1

> <ROCS_TanimotoCombo>
0.969 

> <ROCS_ShapeTanimoto>
0.472 

> <ROCS_ColorTanimoto>
0.497 

> <ROCS_RefTversky>
0.414 

> <ROCS_RefColorTversky>
0.515 

> <ROCS_RefTverskyCombo>
0.929 

> <ROCS_FitTversky>
1.424 

> <ROCS_FitColorTversky>
0.932 

> <ROCS_FitTverskyCombo>
2.356 

> <ROCS_ColorScore>
-4.879

> <ROCS_Overlap>
690.611

> <ROCS_Rank>
257                 

$$$$
untitled-dbase-231_0
  -OEChem-06052310023D

 22 23  0     1  0  0  0  0  0999 V2000
   -4.4084   12.1941  -30.1284 C   0  0  0  0  0  0  0  0  0  0  0  0
   -6.4079   10.6663  -31.2214 C   0  0  0  0  0  0  0  0  0  0  0  0
   -5.5174   11.3191  -32.0659 C   0  0  0  0  0  0  0  0  0  0  0  0
   -6.3424   10.7501  -29.8425 C   0  0  0  0  0  0  0  0  0  0  0  0
   -4.5013   12.0900  -31.5205 C   0  0  0  0  0  0  0  0  0  0  0  0
   -5.3237   11.5295  -29.2957 C   0  0  0  0  0  0  0  0  0  0  0  0
   -7.3540    9.9239  -32.0374 C   0  0  0  0  0  0  0  0  0  0  0  0
   -7.0105   10.1016  -33.4967 C   0  0  0  0  0  0  0  0  0  0  0  0
   -5.8036   11.0695  -33.5199 C   0  0  1  0  0  0  0  0  0  0  0  0
   -6.1747   12.3324  -34.2990 C   0  0  0  0  0  0  0  0  0  0  0  0
   -8.2727    9.2553  -31.5993 O   0  0  0  0  0  0  0  0  0  0  0  0
   -7.2366   10.0931  -29.0601 O   0  0  0  0  0  0  0  0  0  0  0  0
   -3.3001   12.8628  -32.4818 Cl  0  0  0  0  0  0  0  0  0  0  0  0
   -5.1375   11.7124  -27.4167 Br  0  0  0  0  0  0  0  0  0  0  0  0
   -3.6110   12.7888  -29.6858 H   0  0  0  0  0  0  0  0  0  0  0  0
   -6.7287    9.1291  -33.9139 H   0  0  0  0  0  0  0  0  0  0  0  0
   -7.8811   10.4903  -34.0339 H   0  0  0  0  0  0  0  0  0  0  0  0
   -4.9485   10.5753  -33.9960 H   0  0  0  0  0  0  0  0  0  0  0  0
   -7.0233   12.8204  -33.8240 H   0  0  0  0  0  0  0  0  0  0  0  0
   -6.4389   12.0686  -35.3209 H   0  0  0  0  0  0  0  0  0  0  0  0
   -5.3290   13.0169  -34.3125 H   0  0  0  0  0  0  0  0  0  0  0  0
   -7.8699    9.6004  -29.6081 H   0  0  0  0  0  0  0  0  0  0  0  0
  1  5  2  0  0  0  0
  1  6  1  0  0  0  0
  2  3  2  0  0  0  0
  2  4  1  0  0  0  0
  2  7  1  0  0  0  0
  3  5  1  0  0  0  0
  3  9  1  0  0  0  0
  4  6  2  0  0  0  0
  4 12  1  0  0  0  0
  5 13  1  0  0  0  0
  6 14  1  0  0  0  0
  7  8  1  0  0  0  0
  7 11  2  0  0  0  0
  8  9  1  0  0  0  0
  9 10  1  0  0  0  0
  1 15  1  0  0  0  0
  8 16  1  0  0  0  0
  8 17  1  0  0  0  0
  9 18  1  0  0  0  0
 10 19  1  0  0  0  0
 10 20  1  0  0  0  0
 10 21  1  0  0  0  0
 12 22  1  0  0  0  0
M  END
> <id>
EN300-86551

> <smiles>
CC1CC(=O)C=2C1=C(Cl)C=C(Br)C2O

> <MDLNUMBER>
MFCD08444562

> <IUPAC Name>
6-bromo-4-chloro-7-hydroxy-3-methyl-2,3-dihydro-1H-inden-1-one

> <CAS>
923214-14-6

> <URL>
https://www.enaminestore.com/catalog/EN300-86551

> <ROCS_ShapeQuery>
_x1604L0AP1_x0771L0AP1

> <ROCS_TanimotoCombo>
0.969 

> <ROCS_ShapeTanimoto>
0.537 

> <ROCS_ColorTanimoto>
0.432 

> <ROCS_RefTversky>
0.488 

> <ROCS_RefColorTversky>
0.498 

> <ROCS_RefTverskyCombo>
0.986 

> <ROCS_FitTversky>
1.229 

> <ROCS_FitColorTversky>
0.765 

> <ROCS_FitTverskyCombo>
1.994 

> <ROCS_ColorScore>
-4.742

> <ROCS_Overlap>
818.708

> <ROCS_Rank>
258                 

$$$$
untitled-dbase-2138_17
  -OEChem-06052310023D

 22 23  0     0  0  0  0  0  0999 V2000
   -4.5754   12.5251  -29.7607 C   0  0  0  0  0  0  0  0  0  0  0  0
   -5.9931   10.5078  -31.0657 C   0  0  0  0  0  0  0  0  0  0  0  0
   -6.2698   10.8032  -29.7309 C   0  0  0  0  0  0  0  0  0  0  0  0
   -5.0075   11.2210  -31.7481 C   0  0  0  0  0  0  0  0  0  0  0  0
   -4.2986   12.2297  -31.0955 C   0  0  0  0  0  0  0  0  0  0  0  0
   -5.5609   11.8118  -29.0784 C   0  0  0  0  0  0  0  0  0  0  0  0
   -6.7208    9.4564  -31.7641 C   0  0  0  0  0  0  0  0  0  0  0  0
   -7.3907    8.5970  -34.0870 C   0  0  0  0  0  0  0  0  0  0  0  0
   -7.0113   10.0386  -34.2449 C   0  0  0  0  0  0  0  0  0  0  0  0
   -6.3614    9.2029  -33.1981 C   0  0  0  0  0  0  0  0  0  0  0  0
   -7.6102    8.7658  -31.2660 O   0  0  0  0  0  0  0  0  0  0  0  0
   -7.2352   10.0971  -29.0729 O   0  0  0  0  0  0  0  0  0  0  0  0
   -4.7446   10.9353  -33.0326 F   0  0  0  0  0  0  0  0  0  0  0  0
   -3.0811   13.1135  -31.9316 Cl  0  0  0  0  0  0  0  0  0  0  0  0
   -5.9075   12.2427  -27.2648 Br  0  0  0  0  0  0  0  0  0  0  0  0
   -4.0212   13.3131  -29.2550 H   0  0  0  0  0  0  0  0  0  0  0  0
   -8.3759    8.3755  -33.6950 H   0  0  0  0  0  0  0  0  0  0  0  0
   -7.0392    7.8976  -34.8358 H   0  0  0  0  0  0  0  0  0  0  0  0
   -6.4047   10.3099  -35.1004 H   0  0  0  0  0  0  0  0  0  0  0  0
   -7.7432   10.7850  -33.9609 H   0  0  0  0  0  0  0  0  0  0  0  0
   -5.3361    8.9197  -33.3281 H   0  0  0  0  0  0  0  0  0  0  0  0
   -7.6266    9.4376  -29.6654 H   0  0  0  0  0  0  0  0  0  0  0  0
  1  5  2  0  0  0  0
  1  6  1  0  0  0  0
  2  3  1  0  0  0  0
  2  4  2  0  0  0  0
  2  7  1  0  0  0  0
  3  6  2  0  0  0  0
  3 12  1  0  0  0  0
  4  5  1  0  0  0  0
  4 13  1  0  0  0  0
  5 14  1  0  0  0  0
  6 15  1  0  0  0  0
  7 10  1  0  0  0  0
  7 11  2  0  0  0  0
  8  9  1  0  0  0  0
  8 10  1  0  0  0  0
  9 10  1  0  0  0  0
  1 16  1  0  0  0  0
  8 17  1  0  0  0  0
  8 18  1  0  0  0  0
  9 19  1  0  0  0  0
  9 20  1  0  0  0  0
 10 21  1  0  0  0  0
 12 22  1  0  0  0  0
M  END
> <id>
EN300-1276428

> <smiles>
OC=1C(Br)=CC(Cl)=C(F)C1C(=O)C2CC2

> <IUPAC Name>
6-bromo-4-chloro-2-cyclopropanecarbonyl-3-fluorophenol

> <CAS>
1695062-97-5

> <URL>
https://www.enaminestore.com/catalog/EN300-1276428

> <ROCS_ShapeQuery>
_x1604L0AP1_x0771L0AP1

> <ROCS_TanimotoCombo>
0.968 

> <ROCS_ShapeTanimoto>
0.609 

> <ROCS_ColorTanimoto>
0.359 

> <ROCS_RefTversky>
0.537 

> <ROCS_RefColorTversky>
0.410 

> <ROCS_RefTverskyCombo>
0.947 

> <ROCS_FitTversky>
1.284 

> <ROCS_FitColorTversky>
0.742 

> <ROCS_FitTverskyCombo>
2.026 

> <ROCS_ColorScore>
-3.885

> <ROCS_Overlap>
902.229

> <ROCS_Rank>
259                 

$$$$
untitled-dbase-111_0
  -OEChem-06052310023D

 13 13  0     0  0  0  0  0  0999 V2000
   -4.5930   12.4793  -29.8601 C   0  0  0  0  0  0  0  0  0  0  0  0
   -4.3437   12.1549  -31.1935 C   0  0  0  0  0  0  0  0  0  0  0  0
   -5.5676   11.7845  -29.1437 C   0  0  0  0  0  0  0  0  0  0  0  0
   -5.0690   11.1358  -31.8108 C   0  0  0  0  0  0  0  0  0  0  0  0
   -6.2929   10.7654  -29.7609 C   0  0  0  0  0  0  0  0  0  0  0  0
   -6.0436   10.4410  -31.0944 C   0  0  0  0  0  0  0  0  0  0  0  0
   -7.2385   10.1059  -29.0333 O   0  0  0  0  0  0  0  0  0  0  0  0
   -7.0092    9.0623  -31.9658 Br  0  0  0  0  0  0  0  0  0  0  0  0
   -4.0281   13.2727  -29.3794 H   0  0  0  0  0  0  0  0  0  0  0  0
   -3.5845   12.6959  -31.7509 H   0  0  0  0  0  0  0  0  0  0  0  0
   -5.7558   12.0423  -28.1050 H   0  0  0  0  0  0  0  0  0  0  0  0
   -4.8606   10.8967  -32.8505 H   0  0  0  0  0  0  0  0  0  0  0  0
   -7.6656    9.4267  -29.5779 H   0  0  0  0  0  0  0  0  0  0  0  0
  1  2  2  0  0  0  0
  1  3  1  0  0  0  0
  2  4  1  0  0  0  0
  3  5  2  0  0  0  0
  4  6  2  0  0  0  0
  5  6  1  0  0  0  0
  5  7  1  0  0  0  0
  6  8  1  0  0  0  0
  1  9  1  0  0  0  0
  2 10  1  0  0  0  0
  3 11  1  0  0  0  0
  4 12  1  0  0  0  0
  7 13  1  0  0  0  0
M  END
> <id>
EN300-16599

> <smiles>
OC=1C=CC=CC1Br

> <MDLNUMBER>
MFCD00002146

> <IUPAC Name>
2-bromophenol

> <CAS>
95-56-7

> <Purity>
95

> <URL>
https://www.enaminestore.com/catalog/EN300-16599

> <MP>
3-7

> <ROCS_ShapeQuery>
_x1604L0AP1_x0771L0AP1

> <ROCS_TanimotoCombo>
0.968 

> <ROCS_ShapeTanimoto>
0.415 

> <ROCS_ColorTanimoto>
0.553 

> <ROCS_RefTversky>
0.364 

> <ROCS_RefColorTversky>
0.518 

> <ROCS_RefTverskyCombo>
0.882 

> <ROCS_FitTversky>
1.510 

> <ROCS_FitColorTversky>
1.139 

> <ROCS_FitTverskyCombo>
2.649 

> <ROCS_ColorScore>
-4.879

> <ROCS_Overlap>
605.774

> <ROCS_Rank>
260                 

$$$$
untitled-dbase-2064_0
  -OEChem-06052310023D

 16 17  0     0  0  0  0  0  0999 V2000
   -4.4798   12.1094  -31.4676 C   0  0  0  0  0  0  0  0  0  0  0  0
   -4.4074   12.1976  -30.0761 C   0  0  0  0  0  0  0  0  0  0  0  0
   -7.3687    9.9253  -32.0798 C   0  0  0  0  0  0  0  0  0  0  0  0
   -7.1292   10.0725  -33.4254 C   0  0  0  0  0  0  0  0  0  0  0  0
   -6.4340   10.6469  -31.2638 C   0  0  0  0  0  0  0  0  0  0  0  0
   -6.3336   10.7564  -29.8557 C   0  0  0  0  0  0  0  0  0  0  0  0
   -5.4993   11.3297  -32.0482 C   0  0  0  0  0  0  0  0  0  0  0  0
   -5.3235   11.5289  -29.2766 C   0  0  0  0  0  0  0  0  0  0  0  0
   -7.2353   10.0974  -29.0584 O   0  0  0  0  0  0  0  0  0  0  0  0
   -5.7845   11.0747  -33.7296 S   0  0  0  0  0  0  0  0  0  0  0  0
   -5.1699   11.6883  -27.3922 Br  0  0  0  0  0  0  0  0  0  0  0  0
   -3.7584   12.6362  -32.0858 H   0  0  0  0  0  0  0  0  0  0  0  0
   -3.6178   12.8018  -29.6350 H   0  0  0  0  0  0  0  0  0  0  0  0
   -8.1817    9.3240  -31.6920 H   0  0  0  0  0  0  0  0  0  0  0  0
   -7.6842    9.6358  -34.2439 H   0  0  0  0  0  0  0  0  0  0  0  0
   -7.0348   10.2706  -28.1287 H   0  0  0  0  0  0  0  0  0  0  0  0
  1  2  2  0  0  0  0
  1  7  1  0  0  0  0
  2  8  1  0  0  0  0
  3  4  2  0  0  0  0
  3  5  1  0  0  0  0
  4 10  1  0  0  0  0
  5  6  1  0  0  0  0
  5  7  2  0  0  0  0
  6  8  2  0  0  0  0
  6  9  1  0  0  0  0
  7 10  1  0  0  0  0
  8 11  1  0  0  0  0
  1 12  1  0  0  0  0
  2 13  1  0  0  0  0
  3 14  1  0  0  0  0
  4 15  1  0  0  0  0
  9 16  1  0  0  0  0
M  END
> <id>
EN300-7720333

> <smiles>
OC=1C(Br)=CC=C2SC=CC12

> <MDLNUMBER>
MFCD08706252

> <IUPAC Name>
5-bromo-1-benzothiophen-4-ol

> <CAS>
34576-98-2

> <Purity>
95

> <URL>
https://www.enaminestore.com/catalog/EN300-7720333

> <MP>
129-130

> <ROCS_ShapeQuery>
_x1604L0AP1_x0771L0AP1

> <ROCS_TanimotoCombo>
0.968 

> <ROCS_ShapeTanimoto>
0.488 

> <ROCS_ColorTanimoto>
0.480 

> <ROCS_RefTversky>
0.432 

> <ROCS_RefColorTversky>
0.504 

> <ROCS_RefTverskyCombo>
0.937 

> <ROCS_FitTversky>
1.355 

> <ROCS_FitColorTversky>
0.910 

> <ROCS_FitTverskyCombo>
2.265 

> <ROCS_ColorScore>
-4.772

> <ROCS_Overlap>
722.953

> <ROCS_Rank>
261                 

$$$$
untitled-dbase-489_2
  -OEChem-06052310023D

 17 17  0     0  0  0  0  0  0999 V2000
   -5.1054   11.7129  -31.6522 C   0  0  0  0  0  0  0  0  0  0  0  0
   -4.3357   12.3547  -29.4539 C   0  0  0  0  0  0  0  0  0  0  0  0
   -6.1076   10.9338  -31.0739 C   0  0  0  0  0  0  0  0  0  0  0  0
   -6.2238   10.8653  -29.6856 C   0  0  0  0  0  0  0  0  0  0  0  0
   -4.2195   12.4233  -30.8422 C   0  0  0  0  0  0  0  0  0  0  0  0
   -5.3379   11.5757  -28.8756 C   0  0  0  0  0  0  0  0  0  0  0  0
   -7.1731    8.8878  -31.9066 C   0  0  0  0  0  0  0  0  0  0  0  0
   -7.0184   10.2026  -31.9451 C   0  0  0  0  0  0  0  0  0  0  0  0
   -7.2070   10.1007  -29.1248 O   0  0  0  0  0  0  0  0  0  0  0  0
   -2.9829   13.3845  -31.5558 Cl  0  0  0  0  0  0  0  0  0  0  0  0
   -5.4625   11.5090  -26.9846 Br  0  0  0  0  0  0  0  0  0  0  0  0
   -5.0125   11.7687  -32.7351 H   0  0  0  0  0  0  0  0  0  0  0  0
   -3.6422   12.9103  -28.8256 H   0  0  0  0  0  0  0  0  0  0  0  0
   -7.8842    8.4267  -32.5854 H   0  0  0  0  0  0  0  0  0  0  0  0
   -6.6462    8.2250  -31.2306 H   0  0  0  0  0  0  0  0  0  0  0  0
   -7.6081   10.7855  -32.6316 H   0  0  0  0  0  0  0  0  0  0  0  0
   -7.1586   10.1548  -28.1587 H   0  0  0  0  0  0  0  0  0  0  0  0
  1  3  2  0  0  0  0
  1  5  1  0  0  0  0
  2  5  2  0  0  0  0
  2  6  1  0  0  0  0
  3  4  1  0  0  0  0
  3  8  1  0  0  0  0
  4  6  2  0  0  0  0
  4  9  1  0  0  0  0
  5 10  1  0  0  0  0
  6 11  1  0  0  0  0
  7  8  2  0  0  0  0
  1 12  1  0  0  0  0
  2 13  1  0  0  0  0
  7 14  1  0  0  0  0
  7 15  1  0  0  0  0
  8 16  1  0  0  0  0
  9 17  1  0  0  0  0
M  END
> <id>
EN300-1922897

> <smiles>
OC=1C(Br)=CC(Cl)=CC1C=C

> <MDLNUMBER>
MFCD33499565

> <IUPAC Name>
2-bromo-4-chloro-6-ethenylphenol

> <CAS>
2228870-27-5

> <URL>
https://www.enaminestore.com/catalog/EN300-1922897

> <ROCS_ShapeQuery>
_x1604L0AP1_x0771L0AP1

> <ROCS_TanimotoCombo>
0.968 

> <ROCS_ShapeTanimoto>
0.489 

> <ROCS_ColorTanimoto>
0.479 

> <ROCS_RefTversky>
0.430 

> <ROCS_RefColorTversky>
0.503 

> <ROCS_RefTverskyCombo>
0.933 

> <ROCS_FitTversky>
1.386 

> <ROCS_FitColorTversky>
0.909 

> <ROCS_FitTverskyCombo>
2.295 

> <ROCS_ColorScore>
-4.759

> <ROCS_Overlap>
719.104

> <ROCS_Rank>
262                 

$$$$
untitled-dbase-1629_1086
  -OEChem-06052310023D

 26 26  0     1  0  0  0  0  0999 V2000
   -6.8261   11.6864  -31.9236 C   0  0  0  0  0  0  0  0  0  0  0  0
   -7.0793   11.6418  -33.2945 C   0  0  0  0  0  0  0  0  0  0  0  0
   -6.0867    9.3872  -31.9853 C   0  0  0  0  0  0  0  0  0  0  0  0
   -6.3297   10.5591  -31.2690 C   0  0  0  0  0  0  0  0  0  0  0  0
   -6.8363   10.4698  -34.0109 C   0  0  0  0  0  0  0  0  0  0  0  0
   -6.3400    9.3425  -33.3562 C   0  0  0  0  0  0  0  0  0  0  0  0
   -4.5231   12.5743  -30.0294 C   0  0  0  0  0  0  0  0  0  0  0  0
   -2.6365   13.9706  -29.7507 C   0  0  0  0  0  0  0  0  0  0  0  0
   -5.7378   12.0303  -29.3165 C   0  0  0  0  0  0  0  0  0  0  0  0
   -6.0559   10.6086  -29.7834 C   0  0  1  0  0  0  0  0  0  0  0  0
   -4.2196   12.2804  -31.1783 O   0  0  0  0  0  0  0  0  0  0  0  0
   -7.0958   10.4584  -35.3491 O   0  0  0  0  0  0  0  0  0  0  0  0
   -7.2103   10.1210  -29.0985 O   0  0  0  0  0  0  0  0  0  0  0  0
   -3.8292   13.4041  -29.1988 O   0  0  0  0  0  0  0  0  0  0  0  0
   -5.9997    7.7329  -34.2975 Br  0  0  0  0  0  0  0  0  0  0  0  0
   -7.0188   12.6044  -31.3744 H   0  0  0  0  0  0  0  0  0  0  0  0
   -7.4659   12.5241  -33.7978 H   0  0  0  0  0  0  0  0  0  0  0  0
   -5.6991    8.5130  -31.4665 H   0  0  0  0  0  0  0  0  0  0  0  0
   -2.1606   14.6150  -29.0075 H   0  0  0  0  0  0  0  0  0  0  0  0
   -2.8861   14.5490  -30.6437 H   0  0  0  0  0  0  0  0  0  0  0  0
   -1.9518   13.1633  -30.0214 H   0  0  0  0  0  0  0  0  0  0  0  0
   -6.5701   12.7161  -29.5178 H   0  0  0  0  0  0  0  0  0  0  0  0
   -5.5461   12.0730  -28.2370 H   0  0  0  0  0  0  0  0  0  0  0  0
   -5.2327    9.9277  -29.5361 H   0  0  0  0  0  0  0  0  0  0  0  0
   -6.8845    9.5889  -35.7230 H   0  0  0  0  0  0  0  0  0  0  0  0
   -7.0055   10.1646  -28.1525 H   0  0  0  0  0  0  0  0  0  0  0  0
  1  2  1  0  0  0  0
  1  4  2  0  0  0  0
  2  5  2  0  0  0  0
  3  4  1  0  0  0  0
  3  6  2  0  0  0  0
  4 10  1  0  0  0  0
  5  6  1  0  0  0  0
  5 12  1  0  0  0  0
  6 15  1  0  0  0  0
  7  9  1  0  0  0  0
  7 11  2  0  0  0  0
  7 14  1  0  0  0  0
  8 14  1  0  0  0  0
  9 10  1  0  0  0  0
 10 13  1  1  0  0  0
  1 16  1  0  0  0  0
  2 17  1  0  0  0  0
  3 18  1  0  0  0  0
  8 19  1  0  0  0  0
  8 20  1  0  0  0  0
  8 21  1  0  0  0  0
  9 22  1  0  0  0  0
  9 23  1  0  0  0  0
 10 24  1  0  0  0  0
 12 25  1  0  0  0  0
 13 26  1  0  0  0  0
M  END
> <id>
EN300-2002077

> <smiles>
COC(=O)C[C@@H](O)C=1C=CC(O)=C(Br)C1

> <IUPAC Name>
methyl (3R)-3-(3-bromo-4-hydroxyphenyl)-3-hydroxypropanoate

> <CAS>
2227770-79-6

> <URL>
https://www.enaminestore.com/catalog/EN300-2002077

> <ROCS_ShapeQuery>
_x1604L0AP1_x0771L0AP1

> <ROCS_TanimotoCombo>
0.968 

> <ROCS_ShapeTanimoto>
0.664 

> <ROCS_ColorTanimoto>
0.303 

> <ROCS_RefTversky>
0.563 

> <ROCS_RefColorTversky>
0.406 

> <ROCS_RefTverskyCombo>
0.969 

> <ROCS_FitTversky>
1.373 

> <ROCS_FitColorTversky>
0.545 

> <ROCS_FitTverskyCombo>
1.918 

> <ROCS_ColorScore>
-3.885

> <ROCS_Overlap>
945.523

> <ROCS_Rank>
263                 

$$$$
untitled-dbase-514_32
  -OEChem-06052310023D

 19 19  0     0  0  0  0  0  0999 V2000
   -4.3320   12.1356  -31.2116 C   0  0  0  0  0  0  0  0  0  0  0  0
   -4.5741   12.4705  -29.8794 C   0  0  0  0  0  0  0  0  0  0  0  0
   -5.0660   11.1169  -31.8192 C   0  0  0  0  0  0  0  0  0  0  0  0
   -5.5502   11.7865  -29.1547 C   0  0  0  0  0  0  0  0  0  0  0  0
   -6.2842   10.7678  -29.7623 C   0  0  0  0  0  0  0  0  0  0  0  0
   -6.0421   10.4330  -31.0945 C   0  0  0  0  0  0  0  0  0  0  0  0
   -5.7924   12.1603  -27.7293 C   0  0  0  0  0  0  0  0  0  0  0  0
   -4.9780   14.3312  -27.7543 N   0  0  0  0  0  0  0  0  0  0  0  0
   -7.2346   10.1068  -29.0396 O   0  0  0  0  0  0  0  0  0  0  0  0
   -6.1849   13.5250  -27.6610 O   0  0  0  0  0  0  0  0  0  0  0  0
   -7.0188    9.0556  -31.9564 Br  0  0  0  0  0  0  0  0  0  0  0  0
   -3.5724   12.6684  -31.7761 H   0  0  0  0  0  0  0  0  0  0  0  0
   -3.9993   13.2671  -29.4145 H   0  0  0  0  0  0  0  0  0  0  0  0
   -4.8635   10.8704  -32.8585 H   0  0  0  0  0  0  0  0  0  0  0  0
   -6.5840   11.5434  -27.2841 H   0  0  0  0  0  0  0  0  0  0  0  0
   -4.8862   12.0216  -27.1253 H   0  0  0  0  0  0  0  0  0  0  0  0
   -5.0678   14.8973  -26.9119 H   0  0  0  0  0  0  0  0  0  0  0  0
   -5.2191   14.9360  -28.5380 H   0  0  0  0  0  0  0  0  0  0  0  0
   -7.6597    9.4307  -29.5888 H   0  0  0  0  0  0  0  0  0  0  0  0
  1  2  1  0  0  0  0
  1  3  2  0  0  0  0
  2  4  2  0  0  0  0
  3  6  1  0  0  0  0
  4  5  1  0  0  0  0
  4  7  1  0  0  0  0
  5  6  2  0  0  0  0
  5  9  1  0  0  0  0
  6 11  1  0  0  0  0
  7 10  1  0  0  0  0
  8 10  1  0  0  0  0
  1 12  1  0  0  0  0
  2 13  1  0  0  0  0
  3 14  1  0  0  0  0
  7 15  1  0  0  0  0
  7 16  1  0  0  0  0
  8 17  1  0  0  0  0
  8 18  1  0  0  0  0
  9 19  1  0  0  0  0
M  END
> <id>
EN300-1923132

> <smiles>
NOCC=1C=CC=C(Br)C1O

> <MDLNUMBER>
MFCD33411967

> <IUPAC Name>
2-[(aminooxy)methyl]-6-bromophenol

> <CAS>
1895407-83-6

> <URL>
https://www.enaminestore.com/catalog/EN300-1923132

> <ROCS_ShapeQuery>
_x1604L0AP1_x0771L0AP1

> <ROCS_TanimotoCombo>
0.968 

> <ROCS_ShapeTanimoto>
0.414 

> <ROCS_ColorTanimoto>
0.553 

> <ROCS_RefTversky>
0.384 

> <ROCS_RefColorTversky>
0.518 

> <ROCS_RefTverskyCombo>
0.903 

> <ROCS_FitTversky>
1.231 

> <ROCS_FitColorTversky>
1.139 

> <ROCS_FitTverskyCombo>
2.370 

> <ROCS_ColorScore>
-4.880

> <ROCS_Overlap>
642.276

> <ROCS_Rank>
264                 

$$$$
untitled-dbase-1749_21
  -OEChem-06052310023D

 24 24  0     0  0  0  0  0  0999 V2000
   -4.2877   12.2232  -31.1270 C   0  0  0  0  0  0  0  0  0  0  0  0
   -5.1359   11.3790  -31.8436 C   0  0  0  0  0  0  0  0  0  0  0  0
   -4.4222   12.3362  -29.7432 C   0  0  0  0  0  0  0  0  0  0  0  0
   -6.1187   10.6479  -31.1764 C   0  0  0  0  0  0  0  0  0  0  0  0
   -6.2532   10.7609  -29.7926 C   0  0  0  0  0  0  0  0  0  0  0  0
   -5.4050   11.6051  -29.0760 C   0  0  0  0  0  0  0  0  0  0  0  0
   -6.2734    8.6430  -32.7333 C   0  0  0  0  0  0  0  0  0  0  0  0
   -7.1866    7.7326  -33.5557 C   0  0  0  0  0  0  0  0  0  0  0  0
   -7.0265    9.7413  -31.9714 C   0  0  0  0  0  0  0  0  0  0  0  0
   -6.3968    6.7132  -34.2384 N   0  0  0  0  0  0  0  0  0  0  0  0
   -7.2207   10.0403  -29.1543 O   0  0  0  0  0  0  0  0  0  0  0  0
   -7.9285    9.1127  -31.1557 F   0  0  0  0  0  0  0  0  0  0  0  0
   -7.7949   10.4216  -32.8741 F   0  0  0  0  0  0  0  0  0  0  0  0
   -5.5551   11.7854  -27.1948 Br  0  0  0  0  0  0  0  0  0  0  0  0
   -3.5221   12.7922  -31.6464 H   0  0  0  0  0  0  0  0  0  0  0  0
   -5.0226   11.2951  -32.9211 H   0  0  0  0  0  0  0  0  0  0  0  0
   -3.7517   12.9988  -29.2018 H   0  0  0  0  0  0  0  0  0  0  0  0
   -5.7333    8.0340  -31.9960 H   0  0  0  0  0  0  0  0  0  0  0  0
   -5.5060    9.0927  -33.3766 H   0  0  0  0  0  0  0  0  0  0  0  0
   -7.7398    8.3098  -34.3036 H   0  0  0  0  0  0  0  0  0  0  0  0
   -7.9158    7.2401  -32.9039 H   0  0  0  0  0  0  0  0  0  0  0  0
   -7.0171    6.1232  -34.7415 H   0  0  0  0  0  0  0  0  0  0  0  0
   -5.7683    7.1690  -34.8573 H   0  0  0  0  0  0  0  0  0  0  0  0
   -7.1949   10.2191  -28.2021 H   0  0  0  0  0  0  0  0  0  0  0  0
  1  2  1  0  0  0  0
  1  3  2  0  0  0  0
  2  4  2  0  0  0  0
  3  6  1  0  0  0  0
  4  5  1  0  0  0  0
  4  9  1  0  0  0  0
  5  6  2  0  0  0  0
  5 11  1  0  0  0  0
  6 14  1  0  0  0  0
  7  8  1  0  0  0  0
  7  9  1  0  0  0  0
  8 10  1  0  0  0  0
  9 12  1  0  0  0  0
  9 13  1  0  0  0  0
  1 15  1  0  0  0  0
  2 16  1  0  0  0  0
  3 17  1  0  0  0  0
  7 18  1  0  0  0  0
  7 19  1  0  0  0  0
  8 20  1  0  0  0  0
  8 21  1  0  0  0  0
 10 22  1  0  0  0  0
 10 23  1  0  0  0  0
 11 24  1  0  0  0  0
M  END
> <id>
EN300-1963217

> <smiles>
NCCC(F)(F)C=1C=CC=C(Br)C1O

> <IUPAC Name>
2-(3-amino-1,1-difluoropropyl)-6-bromophenol

> <CAS>
2228735-20-2

> <URL>
https://www.enaminestore.com/catalog/EN300-1963217

> <ROCS_ShapeQuery>
_x1604L0AP1_x0771L0AP1

> <ROCS_TanimotoCombo>
0.967 

> <ROCS_ShapeTanimoto>
0.536 

> <ROCS_ColorTanimoto>
0.432 

> <ROCS_RefTversky>
0.485 

> <ROCS_RefColorTversky>
0.497 

> <ROCS_RefTverskyCombo>
0.982 

> <ROCS_FitTversky>
1.245 

> <ROCS_FitColorTversky>
0.765 

> <ROCS_FitTverskyCombo>
2.010 

> <ROCS_ColorScore>
-4.733

> <ROCS_Overlap>
813.437

> <ROCS_Rank>
265                 

$$$$
untitled-dbase-824_3
  -OEChem-06052310023D

 21 21  0     0  0  0  0  0  0999 V2000
   -4.6035   12.4858  -29.8407 C   0  0  0  0  0  0  0  0  0  0  0  0
   -5.5766   11.7816  -29.1316 C   0  0  0  0  0  0  0  0  0  0  0  0
   -4.3502   12.1725  -31.1761 C   0  0  0  0  0  0  0  0  0  0  0  0
   -6.2962   10.7639  -29.7578 C   0  0  0  0  0  0  0  0  0  0  0  0
   -5.0698   11.1549  -31.8024 C   0  0  0  0  0  0  0  0  0  0  0  0
   -6.0428   10.4505  -31.0932 C   0  0  0  0  0  0  0  0  0  0  0  0
   -2.7085   13.8928  -31.1405 C   0  0  0  0  0  0  0  0  0  0  0  0
   -5.5556   11.5730  -34.0925 C   0  0  0  0  0  0  0  0  0  0  0  0
   -7.2389   10.0966  -29.0337 O   0  0  0  0  0  0  0  0  0  0  0  0
   -3.3970   12.8690  -31.8560 O   0  0  0  0  0  0  0  0  0  0  0  0
   -4.8045   10.8656  -33.1095 O   0  0  0  0  0  0  0  0  0  0  0  0
   -7.0256    9.0628  -31.9447 Br  0  0  0  0  0  0  0  0  0  0  0  0
   -4.0465   13.2774  -29.3468 H   0  0  0  0  0  0  0  0  0  0  0  0
   -5.7685   12.0311  -28.0915 H   0  0  0  0  0  0  0  0  0  0  0  0
   -1.9769   14.3689  -31.7978 H   0  0  0  0  0  0  0  0  0  0  0  0
   -2.2060   13.4575  -30.2731 H   0  0  0  0  0  0  0  0  0  0  0  0
   -3.4320   14.6390  -30.8034 H   0  0  0  0  0  0  0  0  0  0  0  0
   -5.2476   11.2496  -35.0899 H   0  0  0  0  0  0  0  0  0  0  0  0
   -5.3873   12.6468  -33.9779 H   0  0  0  0  0  0  0  0  0  0  0  0
   -6.6172   11.3557  -33.9531 H   0  0  0  0  0  0  0  0  0  0  0  0
   -7.6636    9.4188  -29.5821 H   0  0  0  0  0  0  0  0  0  0  0  0
  1  2  1  0  0  0  0
  1  3  2  0  0  0  0
  2  4  2  0  0  0  0
  3  5  1  0  0  0  0
  3 10  1  0  0  0  0
  4  6  1  0  0  0  0
  4  9  1  0  0  0  0
  5  6  2  0  0  0  0
  5 11  1  0  0  0  0
  6 12  1  0  0  0  0
  7 10  1  0  0  0  0
  8 11  1  0  0  0  0
  1 13  1  0  0  0  0
  2 14  1  0  0  0  0
  7 15  1  0  0  0  0
  7 16  1  0  0  0  0
  7 17  1  0  0  0  0
  8 18  1  0  0  0  0
  8 19  1  0  0  0  0
  8 20  1  0  0  0  0
  9 21  1  0  0  0  0
M  END
> <id>
EN300-1895511

> <smiles>
COC=1C=CC(O)=C(Br)C1OC

> <MDLNUMBER>
MFCD27945703

> <IUPAC Name>
2-bromo-3,4-dimethoxyphenol

> <CAS>
16276-35-0

> <URL>
https://www.enaminestore.com/catalog/EN300-1895511

> <ROCS_ShapeQuery>
_x1604L0AP1_x0771L0AP1

> <ROCS_TanimotoCombo>
0.967 

> <ROCS_ShapeTanimoto>
0.516 

> <ROCS_ColorTanimoto>
0.451 

> <ROCS_RefTversky>
0.457 

> <ROCS_RefColorTversky>
0.513 

> <ROCS_RefTverskyCombo>
0.970 

> <ROCS_FitTversky>
1.336 

> <ROCS_FitColorTversky>
0.789 

> <ROCS_FitTverskyCombo>
2.125 

> <ROCS_ColorScore>
-4.882

> <ROCS_Overlap>
764.477

> <ROCS_Rank>
266                 

$$$$
untitled-dbase-2172_35
  -OEChem-06052310023D

 27 27  0     0  0  0  0  0  0999 V2000
   -4.3658   12.1656  -31.2275 C   0  0  0  0  0  0  0  0  0  0  0  0
   -4.6037   12.4931  -29.8927 C   0  0  0  0  0  0  0  0  0  0  0  0
   -5.0910   11.1399  -31.8339 C   0  0  0  0  0  0  0  0  0  0  0  0
   -5.5667   11.7949  -29.1642 C   0  0  0  0  0  0  0  0  0  0  0  0
   -6.2919   10.7691  -29.7706 C   0  0  0  0  0  0  0  0  0  0  0  0
   -6.0540   10.4417  -31.1054 C   0  0  0  0  0  0  0  0  0  0  0  0
   -5.0023   13.1871  -27.3206 C   0  0  0  0  0  0  0  0  0  0  0  0
   -4.7988   10.8292  -33.2668 C   0  0  0  0  0  0  0  0  0  0  0  0
   -5.8220   11.4068  -34.2617 C   0  0  0  0  0  0  0  0  0  0  0  0
   -5.4956   11.0463  -35.7106 C   0  0  0  0  0  0  0  0  0  0  0  0
   -7.2289   10.1009  -29.0371 O   0  0  0  0  0  0  0  0  0  0  0  0
   -5.7876   12.1265  -27.8613 O   0  0  0  0  0  0  0  0  0  0  0  0
   -5.4721    9.2430  -35.9311 S   0  0  0  0  0  0  0  0  0  0  0  0
   -7.0546    9.0467  -31.9277 Br  0  0  0  0  0  0  0  0  0  0  0  0
   -3.6134   12.7164  -31.7858 H   0  0  0  0  0  0  0  0  0  0  0  0
   -4.0360   13.2940  -29.4268 H   0  0  0  0  0  0  0  0  0  0  0  0
   -5.2780   13.3494  -26.2757 H   0  0  0  0  0  0  0  0  0  0  0  0
   -5.1718   14.0987  -27.8991 H   0  0  0  0  0  0  0  0  0  0  0  0
   -3.9464   12.9125  -27.3780 H   0  0  0  0  0  0  0  0  0  0  0  0
   -4.7198    9.7412  -33.4232 H   0  0  0  0  0  0  0  0  0  0  0  0
   -3.8031   11.2277  -33.5201 H   0  0  0  0  0  0  0  0  0  0  0  0
   -5.8267   12.4988  -34.1490 H   0  0  0  0  0  0  0  0  0  0  0  0
   -6.8288   11.0549  -34.0029 H   0  0  0  0  0  0  0  0  0  0  0  0
   -4.5135   11.4312  -35.9999 H   0  0  0  0  0  0  0  0  0  0  0  0
   -6.2419   11.4680  -36.3914 H   0  0  0  0  0  0  0  0  0  0  0  0
   -7.2618   10.4566  -28.1361 H   0  0  0  0  0  0  0  0  0  0  0  0
   -6.7436    9.0397  -35.5614 H   0  0  0  0  0  0  0  0  0  0  0  0
  1  2  1  0  0  0  0
  1  3  2  0  0  0  0
  2  4  2  0  0  0  0
  3  6  1  0  0  0  0
  3  8  1  0  0  0  0
  4  5  1  0  0  0  0
  4 12  1  0  0  0  0
  5  6  2  0  0  0  0
  5 11  1  0  0  0  0
  6 14  1  0  0  0  0
  7 12  1  0  0  0  0
  8  9  1  0  0  0  0
  9 10  1  0  0  0  0
 10 13  1  0  0  0  0
  1 15  1  0  0  0  0
  2 16  1  0  0  0  0
  7 17  1  0  0  0  0
  7 18  1  0  0  0  0
  7 19  1  0  0  0  0
  8 20  1  0  0  0  0
  8 21  1  0  0  0  0
  9 22  1  0  0  0  0
  9 23  1  0  0  0  0
 10 24  1  0  0  0  0
 10 25  1  0  0  0  0
 11 26  1  0  0  0  0
 13 27  1  0  0  0  0
M  END
> <id>
EN300-1936287

> <smiles>
COC=1C=CC(CCCS)=C(Br)C1O

> <IUPAC Name>
2-bromo-6-methoxy-3-(3-sulfanylpropyl)phenol

> <CAS>
2229626-77-9

> <URL>
https://www.enaminestore.com/catalog/EN300-1936287

> <ROCS_ShapeQuery>
_x1604L0AP1_x0771L0AP1

> <ROCS_TanimotoCombo>
0.967 

> <ROCS_ShapeTanimoto>
0.470 

> <ROCS_ColorTanimoto>
0.497 

> <ROCS_RefTversky>
0.440 

> <ROCS_RefColorTversky>
0.516 

> <ROCS_RefTverskyCombo>
0.956 

> <ROCS_FitTversky>
1.169 

> <ROCS_FitColorTversky>
0.932 

> <ROCS_FitTverskyCombo>
2.102 

> <ROCS_ColorScore>
-4.882

> <ROCS_Overlap>
737.620

> <ROCS_Rank>
267                 

$$$$
untitled-dbase-1958_43
  -OEChem-06052310023D

 22 22  0     0  0  0  0  0  0999 V2000
   -4.5886   12.4734  -29.8752 C   0  0  0  0  0  0  0  0  0  0  0  0
   -5.0719   11.1157  -31.8142 C   0  0  0  0  0  0  0  0  0  0  0  0
   -4.3421   12.1372  -31.2063 C   0  0  0  0  0  0  0  0  0  0  0  0
   -5.5648   11.7880  -29.1520 C   0  0  0  0  0  0  0  0  0  0  0  0
   -6.2946   10.7666  -29.7599 C   0  0  0  0  0  0  0  0  0  0  0  0
   -6.0482   10.4303  -31.0911 C   0  0  0  0  0  0  0  0  0  0  0  0
   -3.3261   12.8540  -31.9609 C   0  0  0  0  0  0  0  0  0  0  0  0
   -5.0032   13.1835  -27.3100 C   0  0  0  0  0  0  0  0  0  0  0  0
   -2.1107   13.4329  -31.2282 C   0  0  0  0  0  0  0  0  0  0  0  0
   -3.4396   12.9976  -33.1953 O   0  0  0  0  0  0  0  0  0  0  0  0
   -7.2459   10.1085  -29.0363 O   0  0  0  0  0  0  0  0  0  0  0  0
   -5.7940   12.1280  -27.8528 O   0  0  0  0  0  0  0  0  0  0  0  0
   -2.4208   15.0817  -30.6463 Cl  0  0  0  0  0  0  0  0  0  0  0  0
   -7.0218    9.0501  -31.9520 Br  0  0  0  0  0  0  0  0  0  0  0  0
   -4.0223   13.2698  -29.3976 H   0  0  0  0  0  0  0  0  0  0  0  0
   -4.8747   10.8600  -32.8532 H   0  0  0  0  0  0  0  0  0  0  0  0
   -5.2865   13.3534  -26.2683 H   0  0  0  0  0  0  0  0  0  0  0  0
   -5.1587   14.0940  -27.8942 H   0  0  0  0  0  0  0  0  0  0  0  0
   -3.9495   12.8984  -27.3567 H   0  0  0  0  0  0  0  0  0  0  0  0
   -1.8800   12.8169  -30.3556 H   0  0  0  0  0  0  0  0  0  0  0  0
   -1.2594   13.4822  -31.9114 H   0  0  0  0  0  0  0  0  0  0  0  0
   -7.2865   10.4664  -28.1364 H   0  0  0  0  0  0  0  0  0  0  0  0
  1  3  1  0  0  0  0
  1  4  2  0  0  0  0
  2  3  2  0  0  0  0
  2  6  1  0  0  0  0
  3  7  1  0  0  0  0
  4  5  1  0  0  0  0
  4 12  1  0  0  0  0
  5  6  2  0  0  0  0
  5 11  1  0  0  0  0
  6 14  1  0  0  0  0
  7  9  1  0  0  0  0
  7 10  2  0  0  0  0
  8 12  1  0  0  0  0
  9 13  1  0  0  0  0
  1 15  1  0  0  0  0
  2 16  1  0  0  0  0
  8 17  1  0  0  0  0
  8 18  1  0  0  0  0
  8 19  1  0  0  0  0
  9 20  1  0  0  0  0
  9 21  1  0  0  0  0
 11 22  1  0  0  0  0
M  END
> <id>
EN300-1925694

> <smiles>
COC=1C=C(C=C(Br)C1O)C(=O)CCl

> <IUPAC Name>
1-(3-bromo-4-hydroxy-5-methoxyphenyl)-2-chloroethan-1-one

> <CAS>
2229428-63-9

> <URL>
https://www.enaminestore.com/catalog/EN300-1925694

> <ROCS_ShapeQuery>
_x1604L0AP1_x0771L0AP1

> <ROCS_TanimotoCombo>
0.967 

> <ROCS_ShapeTanimoto>
0.515 

> <ROCS_ColorTanimoto>
0.451 

> <ROCS_RefTversky>
0.471 

> <ROCS_RefColorTversky>
0.513 

> <ROCS_RefTverskyCombo>
0.984 

> <ROCS_FitTversky>
1.225 

> <ROCS_FitColorTversky>
0.789 

> <ROCS_FitTverskyCombo>
2.014 

> <ROCS_ColorScore>
-4.881

> <ROCS_Overlap>
790.007

> <ROCS_Rank>
268                 

$$$$
untitled-dbase-657_40
  -OEChem-06052310023D

 25 26  0     0  0  0  0  0  0999 V2000
   -4.5999   12.4820  -29.8348 C   0  0  0  0  0  0  0  0  0  0  0  0
   -5.5767   11.7825  -29.1262 C   0  0  0  0  0  0  0  0  0  0  0  0
   -5.0647   11.1468  -31.7939 C   0  0  0  0  0  0  0  0  0  0  0  0
   -4.3439   12.1642  -31.1686 C   0  0  0  0  0  0  0  0  0  0  0  0
   -6.2975   10.7651  -29.7514 C   0  0  0  0  0  0  0  0  0  0  0  0
   -6.0415   10.4472  -31.0853 C   0  0  0  0  0  0  0  0  0  0  0  0
   -1.9365   12.3521  -31.8665 C   0  0  0  0  0  0  0  0  0  0  0  0
   -3.4298   14.4250  -32.0029 C   0  0  0  0  0  0  0  0  0  0  0  0
   -3.7174   13.6000  -33.2152 C   0  0  0  0  0  0  0  0  0  0  0  0
   -3.3003   12.9121  -31.9250 C   0  0  0  0  0  0  0  0  0  0  0  0
   -0.7981   13.3303  -31.9738 C   0  0  0  0  0  0  0  0  0  0  0  0
   -1.7398   11.1451  -31.7345 O   0  0  0  0  0  0  0  0  0  0  0  0
   -7.2450   10.1005  -29.0310 O   0  0  0  0  0  0  0  0  0  0  0  0
   -7.0014    9.0709  -31.9669 Br  0  0  0  0  0  0  0  0  0  0  0  0
   -4.0437   13.2730  -29.3386 H   0  0  0  0  0  0  0  0  0  0  0  0
   -5.7707   12.0355  -28.0873 H   0  0  0  0  0  0  0  0  0  0  0  0
   -4.8589   10.9052  -32.8344 H   0  0  0  0  0  0  0  0  0  0  0  0
   -2.5246   15.0214  -32.0037 H   0  0  0  0  0  0  0  0  0  0  0  0
   -4.2682   14.9039  -31.5100 H   0  0  0  0  0  0  0  0  0  0  0  0
   -4.7493   13.5241  -33.5384 H   0  0  0  0  0  0  0  0  0  0  0  0
   -3.0056   13.6409  -34.0319 H   0  0  0  0  0  0  0  0  0  0  0  0
   -0.5177   13.6806  -30.9765 H   0  0  0  0  0  0  0  0  0  0  0  0
   -1.1079   14.1883  -32.5755 H   0  0  0  0  0  0  0  0  0  0  0  0
    0.0644   12.8400  -32.4317 H   0  0  0  0  0  0  0  0  0  0  0  0
   -7.6686    9.4231  -29.5807 H   0  0  0  0  0  0  0  0  0  0  0  0
  1  2  1  0  0  0  0
  1  4  2  0  0  0  0
  2  5  2  0  0  0  0
  3  4  1  0  0  0  0
  3  6  2  0  0  0  0
  4 10  1  0  0  0  0
  5  6  1  0  0  0  0
  5 13  1  0  0  0  0
  6 14  1  0  0  0  0
  7 10  1  0  0  0  0
  7 11  1  0  0  0  0
  7 12  2  0  0  0  0
  8  9  1  0  0  0  0
  8 10  1  0  0  0  0
  9 10  1  0  0  0  0
  1 15  1  0  0  0  0
  2 16  1  0  0  0  0
  3 17  1  0  0  0  0
  8 18  1  0  0  0  0
  8 19  1  0  0  0  0
  9 20  1  0  0  0  0
  9 21  1  0  0  0  0
 11 22  1  0  0  0  0
 11 23  1  0  0  0  0
 11 24  1  0  0  0  0
 13 25  1  0  0  0  0
M  END
> <id>
EN300-1906675

> <smiles>
CC(=O)C1(CC1)C=2C=CC(O)=C(Br)C2

> <IUPAC Name>
1-[1-(3-bromo-4-hydroxyphenyl)cyclopropyl]ethan-1-one

> <CAS>
2229504-70-3

> <URL>
https://www.enaminestore.com/catalog/EN300-1906675

> <ROCS_ShapeQuery>
_x1604L0AP1_x0771L0AP1

> <ROCS_TanimotoCombo>
0.966 

> <ROCS_ShapeTanimoto>
0.470 

> <ROCS_ColorTanimoto>
0.497 

> <ROCS_RefTversky>
0.445 

> <ROCS_RefColorTversky>
0.515 

> <ROCS_RefTverskyCombo>
0.960 

> <ROCS_FitTversky>
1.134 

> <ROCS_FitColorTversky>
0.932 

> <ROCS_FitTverskyCombo>
2.066 

> <ROCS_ColorScore>
-4.878

> <ROCS_Overlap>
746.889

> <ROCS_Rank>
269                 

$$$$
untitled-dbase-262_44
  -OEChem-06052310023D

 24 24  0     0  0  0  0  0  0999 V2000
   -4.3003   12.2757  -31.0878 C   0  0  0  0  0  0  0  0  0  0  0  0
   -4.9781   11.2772  -31.7872 C   0  0  0  0  0  0  0  0  0  0  0  0
   -4.6015   12.5153  -29.7470 C   0  0  0  0  0  0  0  0  0  0  0  0
   -5.9572   10.5184  -31.1459 C   0  0  0  0  0  0  0  0  0  0  0  0
   -6.2584   10.7580  -29.8052 C   0  0  0  0  0  0  0  0  0  0  0  0
   -5.5806   11.7565  -29.1058 C   0  0  0  0  0  0  0  0  0  0  0  0
   -6.7110    8.0812  -34.0434 C   0  0  0  0  0  0  0  0  0  0  0  0
   -7.7910    8.5751  -34.9463 C   0  0  0  0  0  0  0  0  0  0  0  0
   -6.6779    9.4457  -31.9206 C   0  0  0  0  0  0  0  0  0  0  0  0
   -5.9895    9.1509  -33.2522 C   0  0  0  0  0  0  0  0  0  0  0  0
   -6.4663    6.8832  -33.9803 O   0  0  0  0  0  0  0  0  0  0  0  0
   -7.2200   10.0083  -29.1921 O   0  0  0  0  0  0  0  0  0  0  0  0
   -5.9601   12.1121  -27.2827 Br  0  0  0  0  0  0  0  0  0  0  0  0
   -3.5376   12.8663  -31.5869 H   0  0  0  0  0  0  0  0  0  0  0  0
   -4.7355   11.0956  -32.8309 H   0  0  0  0  0  0  0  0  0  0  0  0
   -4.0624   13.2974  -29.2183 H   0  0  0  0  0  0  0  0  0  0  0  0
   -7.4208    8.8161  -35.9552 H   0  0  0  0  0  0  0  0  0  0  0  0
   -8.5896    7.8315  -35.0946 H   0  0  0  0  0  0  0  0  0  0  0  0
   -8.2986    9.4862  -34.5933 H   0  0  0  0  0  0  0  0  0  0  0  0
   -6.7375    8.5331  -31.3134 H   0  0  0  0  0  0  0  0  0  0  0  0
   -7.7182    9.7527  -32.0901 H   0  0  0  0  0  0  0  0  0  0  0  0
   -4.9616    8.8104  -33.0794 H   0  0  0  0  0  0  0  0  0  0  0  0
   -5.9492   10.0579  -33.8671 H   0  0  0  0  0  0  0  0  0  0  0  0
   -7.3197   10.2857  -28.2688 H   0  0  0  0  0  0  0  0  0  0  0  0
  1  2  1  0  0  0  0
  1  3  2  0  0  0  0
  2  4  2  0  0  0  0
  3  6  1  0  0  0  0
  4  5  1  0  0  0  0
  4  9  1  0  0  0  0
  5  6  2  0  0  0  0
  5 12  1  0  0  0  0
  6 13  1  0  0  0  0
  7  8  1  0  0  0  0
  7 10  1  0  0  0  0
  7 11  2  0  0  0  0
  9 10  1  0  0  0  0
  1 14  1  0  0  0  0
  2 15  1  0  0  0  0
  3 16  1  0  0  0  0
  8 17  1  0  0  0  0
  8 18  1  0  0  0  0
  8 19  1  0  0  0  0
  9 20  1  0  0  0  0
  9 21  1  0  0  0  0
 10 22  1  0  0  0  0
 10 23  1  0  0  0  0
 12 24  1  0  0  0  0
M  END
> <id>
EN300-1897888

> <smiles>
CC(=O)CCC=1C=CC=C(Br)C1O

> <MDLNUMBER>
MFCD26654037

> <IUPAC Name>
4-(3-bromo-2-hydroxyphenyl)butan-2-one

> <CAS>
1542687-51-3

> <URL>
https://www.enaminestore.com/catalog/EN300-1897888

> <ROCS_ShapeQuery>
_x1604L0AP1_x0771L0AP1

> <ROCS_TanimotoCombo>
0.966 

> <ROCS_ShapeTanimoto>
0.532 

> <ROCS_ColorTanimoto>
0.434 

> <ROCS_RefTversky>
0.472 

> <ROCS_RefColorTversky>
0.470 

> <ROCS_RefTverskyCombo>
0.942 

> <ROCS_FitTversky>
1.316 

> <ROCS_FitColorTversky>
0.850 

> <ROCS_FitTverskyCombo>
2.167 

> <ROCS_ColorScore>
-4.452

> <ROCS_Overlap>
790.047

> <ROCS_Rank>
270                 

$$$$
untitled-dbase-2244_0
  -OEChem-06052310023D

 20 21  0     0  0  0  0  0  0999 V2000
   -4.6084   12.5202  -29.8045 C   0  0  0  0  0  0  0  0  0  0  0  0
   -5.5863   11.7974  -29.1179 C   0  0  0  0  0  0  0  0  0  0  0  0
   -4.3478   12.1832  -31.1221 C   0  0  0  0  0  0  0  0  0  0  0  0
   -5.0530   11.1543  -31.7575 C   0  0  0  0  0  0  0  0  0  0  0  0
   -6.2932   10.7651  -29.7550 C   0  0  0  0  0  0  0  0  0  0  0  0
   -6.0327   10.4408  -31.0883 C   0  0  0  0  0  0  0  0  0  0  0  0
   -3.3837   12.8301  -32.0656 C   0  0  0  0  0  0  0  0  0  0  0  0
   -4.6266   11.0188  -33.1851 C   0  0  0  0  0  0  0  0  0  0  0  0
   -3.2828   11.7626  -33.1657 C   0  0  0  0  0  0  0  0  0  0  0  0
   -7.2426   10.0984  -29.0358 O   0  0  0  0  0  0  0  0  0  0  0  0
   -7.0093    9.0691  -31.9567 Br  0  0  0  0  0  0  0  0  0  0  0  0
   -4.0714   13.3247  -29.3137 H   0  0  0  0  0  0  0  0  0  0  0  0
   -5.8022   12.0450  -28.0814 H   0  0  0  0  0  0  0  0  0  0  0  0
   -3.8061   13.7616  -32.4560 H   0  0  0  0  0  0  0  0  0  0  0  0
   -2.4107   13.0221  -31.6050 H   0  0  0  0  0  0  0  0  0  0  0  0
   -4.4861    9.9805  -33.4978 H   0  0  0  0  0  0  0  0  0  0  0  0
   -5.3440   11.5187  -33.8442 H   0  0  0  0  0  0  0  0  0  0  0  0
   -3.0280   12.1904  -34.1404 H   0  0  0  0  0  0  0  0  0  0  0  0
   -2.4838   11.0542  -32.9054 H   0  0  0  0  0  0  0  0  0  0  0  0
   -7.6559    9.4145  -29.5841 H   0  0  0  0  0  0  0  0  0  0  0  0
  1  2  1  0  0  0  0
  1  3  2  0  0  0  0
  2  5  2  0  0  0  0
  3  4  1  0  0  0  0
  3  7  1  0  0  0  0
  4  6  2  0  0  0  0
  4  8  1  0  0  0  0
  5  6  1  0  0  0  0
  5 10  1  0  0  0  0
  6 11  1  0  0  0  0
  7  9  1  0  0  0  0
  8  9  1  0  0  0  0
  1 12  1  0  0  0  0
  2 13  1  0  0  0  0
  7 14  1  0  0  0  0
  7 15  1  0  0  0  0
  8 16  1  0  0  0  0
  8 17  1  0  0  0  0
  9 18  1  0  0  0  0
  9 19  1  0  0  0  0
 10 20  1  0  0  0  0
M  END
> <id>
EN300-6777934

> <smiles>
OC=1C=CC=2CCCC2C1Br

> <MDLNUMBER>
MFCD22038629

> <IUPAC Name>
4-bromo-2,3-dihydro-1H-inden-5-ol

> <CAS>
32337-84-1

> <Purity>
95

> <URL>
https://www.enaminestore.com/catalog/EN300-6777934

> <MP>
73-74

> <ROCS_ShapeQuery>
_x1604L0AP1_x0771L0AP1

> <ROCS_TanimotoCombo>
0.966 

> <ROCS_ShapeTanimoto>
0.469 

> <ROCS_ColorTanimoto>
0.497 

> <ROCS_RefTversky>
0.422 

> <ROCS_RefColorTversky>
0.516 

> <ROCS_RefTverskyCombo>
0.939 

> <ROCS_FitTversky>
1.306 

> <ROCS_FitColorTversky>
0.931 

> <ROCS_FitTverskyCombo>
2.237 

> <ROCS_ColorScore>
-4.889

> <ROCS_Overlap>
706.075

> <ROCS_Rank>
271                 

$$$$
untitled-dbase-1071_1
  -OEChem-06052310023D

 19 19  0     0  0  0  0  0  0999 V2000
   -4.3188   12.1886  -31.1885 C   0  0  0  0  0  0  0  0  0  0  0  0
   -4.9698   11.1229  -31.8098 C   0  0  0  0  0  0  0  0  0  0  0  0
   -4.6438   12.5354  -29.8770 C   0  0  0  0  0  0  0  0  0  0  0  0
   -5.9459   10.4040  -31.1198 C   0  0  0  0  0  0  0  0  0  0  0  0
   -6.2709   10.7508  -29.8084 C   0  0  0  0  0  0  0  0  0  0  0  0
   -5.6198   11.8165  -29.1870 C   0  0  0  0  0  0  0  0  0  0  0  0
   -6.6084    9.2958  -31.7951 C   0  0  0  0  0  0  0  0  0  0  0  0
   -6.0616    8.5348  -32.7652 C   0  0  0  0  0  0  0  0  0  0  0  0
   -6.8599    7.4481  -33.3675 C   0  0  0  0  0  0  0  0  0  0  0  0
   -6.4108    6.7281  -34.2512 O   0  0  0  0  0  0  0  0  0  0  0  0
   -7.2283   10.0438  -29.1380 O   0  0  0  0  0  0  0  0  0  0  0  0
   -6.0302   12.3190  -27.4053 Br  0  0  0  0  0  0  0  0  0  0  0  0
   -3.5587   12.7488  -31.7248 H   0  0  0  0  0  0  0  0  0  0  0  0
   -4.7038   10.8644  -32.8321 H   0  0  0  0  0  0  0  0  0  0  0  0
   -4.1253   13.3685  -29.4093 H   0  0  0  0  0  0  0  0  0  0  0  0
   -7.6400    9.0912  -31.4892 H   0  0  0  0  0  0  0  0  0  0  0  0
   -5.0569    8.6827  -33.1417 H   0  0  0  0  0  0  0  0  0  0  0  0
   -7.8837    7.3188  -32.9786 H   0  0  0  0  0  0  0  0  0  0  0  0
   -7.3404   10.4020  -28.2448 H   0  0  0  0  0  0  0  0  0  0  0  0
  1  2  1  0  0  0  0
  1  3  2  0  0  0  0
  2  4  2  0  0  0  0
  3  6  1  0  0  0  0
  4  5  1  0  0  0  0
  4  7  1  0  0  0  0
  5  6  2  0  0  0  0
  5 11  1  0  0  0  0
  6 12  1  0  0  0  0
  7  8  2  3  0  0  0
  8  9  1  0  0  0  0
  9 10  2  0  0  0  0
  1 13  1  0  0  0  0
  2 14  1  0  0  0  0
  3 15  1  0  0  0  0
  7 16  1  0  0  0  0
  8 17  1  0  0  0  0
  9 18  1  0  0  0  0
 11 19  1  0  0  0  0
M  END
> <id>
EN300-1923159

> <smiles>
OC=1C(Br)=CC=CC1C=CC=O

> <IUPAC Name>
3-(3-bromo-2-hydroxyphenyl)prop-2-enal

> <CAS>
1606147-48-1

> <URL>
https://www.enaminestore.com/catalog/EN300-1923159

> <ROCS_ShapeQuery>
_x1604L0AP1_x0771L0AP1

> <ROCS_TanimotoCombo>
0.966 

> <ROCS_ShapeTanimoto>
0.490 

> <ROCS_ColorTanimoto>
0.476 

> <ROCS_RefTversky>
0.440 

> <ROCS_RefColorTversky>
0.501 

> <ROCS_RefTverskyCombo>
0.941 

> <ROCS_FitTversky>
1.303 

> <ROCS_FitColorTversky>
0.906 

> <ROCS_FitTverskyCombo>
2.209 

> <ROCS_ColorScore>
-4.741

> <ROCS_Overlap>
735.990

> <ROCS_Rank>
272                 

$$$$
untitled-dbase-827_28
  -OEChem-06052310023D

 18 18  0     0  0  0  0  0  0999 V2000
   -5.0467   11.2093  -31.7805 C   0  0  0  0  0  0  0  0  0  0  0  0
   -4.5383   12.4747  -29.7862 C   0  0  0  0  0  0  0  0  0  0  0  0
   -6.0314   10.5081  -31.0846 C   0  0  0  0  0  0  0  0  0  0  0  0
   -6.2697   10.7903  -29.7395 C   0  0  0  0  0  0  0  0  0  0  0  0
   -4.3000   12.1925  -31.1313 C   0  0  0  0  0  0  0  0  0  0  0  0
   -5.5231   11.7736  -29.0903 C   0  0  0  0  0  0  0  0  0  0  0  0
   -6.7968    9.4850  -31.7838 C   0  0  0  0  0  0  0  0  0  0  0  0
   -7.0573    9.6086  -33.2782 C   0  0  0  0  0  0  0  0  0  0  0  0
   -7.2674    8.5062  -31.1751 O   0  0  0  0  0  0  0  0  0  0  0  0
   -7.2351   10.0960  -29.0691 O   0  0  0  0  0  0  0  0  0  0  0  0
   -6.0821    9.0147  -34.0185 F   0  0  0  0  0  0  0  0  0  0  0  0
   -7.0875   10.9087  -33.6711 F   0  0  0  0  0  0  0  0  0  0  0  0
   -3.0849   13.0572  -31.9906 Cl  0  0  0  0  0  0  0  0  0  0  0  0
   -5.8169   12.1864  -27.2632 Br  0  0  0  0  0  0  0  0  0  0  0  0
   -4.8624   10.9873  -32.8296 H   0  0  0  0  0  0  0  0  0  0  0  0
   -3.9536   13.2422  -29.2834 H   0  0  0  0  0  0  0  0  0  0  0  0
   -8.0074    9.1311  -33.5334 H   0  0  0  0  0  0  0  0  0  0  0  0
   -7.6549    9.4542  -29.6616 H   0  0  0  0  0  0  0  0  0  0  0  0
  1  3  2  0  0  0  0
  1  5  1  0  0  0  0
  2  5  2  0  0  0  0
  2  6  1  0  0  0  0
  3  4  1  0  0  0  0
  3  7  1  0  0  0  0
  4  6  2  0  0  0  0
  4 10  1  0  0  0  0
  5 13  1  0  0  0  0
  6 14  1  0  0  0  0
  7  8  1  0  0  0  0
  7  9  2  0  0  0  0
  8 11  1  0  0  0  0
  8 12  1  0  0  0  0
  1 15  1  0  0  0  0
  2 16  1  0  0  0  0
  8 17  1  0  0  0  0
 10 18  1  0  0  0  0
M  END
> <id>
EN300-1942159

> <smiles>
OC=1C(Br)=CC(Cl)=CC1C(=O)C(F)F

> <IUPAC Name>
1-(3-bromo-5-chloro-2-hydroxyphenyl)-2,2-difluoroethan-1-one

> <CAS>
2229048-65-9

> <URL>
https://www.enaminestore.com/catalog/EN300-1942159

> <ROCS_ShapeQuery>
_x1604L0AP1_x0771L0AP1

> <ROCS_TanimotoCombo>
0.966 

> <ROCS_ShapeTanimoto>
0.606 

> <ROCS_ColorTanimoto>
0.360 

> <ROCS_RefTversky>
0.524 

> <ROCS_RefColorTversky>
0.411 

> <ROCS_RefTverskyCombo>
0.935 

> <ROCS_FitTversky>
1.348 

> <ROCS_FitColorTversky>
0.743 

> <ROCS_FitTverskyCombo>
2.090 

> <ROCS_ColorScore>
-3.888

> <ROCS_Overlap>
879.714

> <ROCS_Rank>
273                 

$$$$
untitled-dbase-1912_56
  -OEChem-06052310023D

 20 20  0     0  0  0  0  0  0999 V2000
   -4.3355   12.1432  -31.2061 C   0  0  0  0  0  0  0  0  0  0  0  0
   -4.5796   12.4762  -29.8737 C   0  0  0  0  0  0  0  0  0  0  0  0
   -5.0668   11.1235  -31.8154 C   0  0  0  0  0  0  0  0  0  0  0  0
   -5.5549   11.7895  -29.1507 C   0  0  0  0  0  0  0  0  0  0  0  0
   -6.2862   10.7697  -29.7599 C   0  0  0  0  0  0  0  0  0  0  0  0
   -6.0421   10.4368  -31.0923 C   0  0  0  0  0  0  0  0  0  0  0  0
   -5.7993   12.1613  -27.7251 C   0  0  0  0  0  0  0  0  0  0  0  0
   -7.2626   12.0507  -27.2682 C   0  0  0  0  0  0  0  0  0  0  0  0
   -7.2359   10.1060  -29.0389 O   0  0  0  0  0  0  0  0  0  0  0  0
   -8.3784   13.1079  -28.2418 S   0  0  0  0  0  0  0  0  0  0  0  0
   -7.0150    9.0582  -31.9565 Br  0  0  0  0  0  0  0  0  0  0  0  0
   -3.5764   12.6781  -31.7693 H   0  0  0  0  0  0  0  0  0  0  0  0
   -4.0070   13.2735  -29.4076 H   0  0  0  0  0  0  0  0  0  0  0  0
   -4.8628   10.8784  -32.8547 H   0  0  0  0  0  0  0  0  0  0  0  0
   -5.1588   11.5741  -27.0450 H   0  0  0  0  0  0  0  0  0  0  0  0
   -5.4760   13.2059  -27.5786 H   0  0  0  0  0  0  0  0  0  0  0  0
   -7.6080   11.0183  -27.3850 H   0  0  0  0  0  0  0  0  0  0  0  0
   -7.3677   12.3162  -26.2114 H   0  0  0  0  0  0  0  0  0  0  0  0
   -7.6590    9.4296  -29.5892 H   0  0  0  0  0  0  0  0  0  0  0  0
   -8.1133   12.5362  -29.4238 H   0  0  0  0  0  0  0  0  0  0  0  0
  1  2  1  0  0  0  0
  1  3  2  0  0  0  0
  2  4  2  0  0  0  0
  3  6  1  0  0  0  0
  4  5  1  0  0  0  0
  4  7  1  0  0  0  0
  5  6  2  0  0  0  0
  5  9  1  0  0  0  0
  6 11  1  0  0  0  0
  7  8  1  0  0  0  0
  8 10  1  0  0  0  0
  1 12  1  0  0  0  0
  2 13  1  0  0  0  0
  3 14  1  0  0  0  0
  7 15  1  0  0  0  0
  7 16  1  0  0  0  0
  8 17  1  0  0  0  0
  8 18  1  0  0  0  0
  9 19  1  0  0  0  0
 10 20  1  0  0  0  0
M  END
> <id>
EN300-1923470

> <smiles>
OC=1C(Br)=CC=CC1CCS

> <MDLNUMBER>
MFCD33499705

> <IUPAC Name>
2-bromo-6-(2-sulfanylethyl)phenol

> <CAS>
2229495-19-4

> <URL>
https://www.enaminestore.com/catalog/EN300-1923470

> <ROCS_ShapeQuery>
_x1604L0AP1_x0771L0AP1

> <ROCS_TanimotoCombo>
0.965 

> <ROCS_ShapeTanimoto>
0.412 

> <ROCS_ColorTanimoto>
0.553 

> <ROCS_RefTversky>
0.381 

> <ROCS_RefColorTversky>
0.518 

> <ROCS_RefTverskyCombo>
0.899 

> <ROCS_FitTversky>
1.249 

> <ROCS_FitColorTversky>
1.139 

> <ROCS_FitTverskyCombo>
2.388 

> <ROCS_ColorScore>
-4.880

> <ROCS_Overlap>
636.075

> <ROCS_Rank>
274                 

$$$$
untitled-dbase-523_57
  -OEChem-06052310023D

 21 21  0     0  0  0  0  0  0999 V2000
   -4.3508   12.1685  -31.2055 C   0  0  0  0  0  0  0  0  0  0  0  0
   -4.5998   12.4936  -29.8722 C   0  0  0  0  0  0  0  0  0  0  0  0
   -5.0712   11.1442  -31.8199 C   0  0  0  0  0  0  0  0  0  0  0  0
   -5.5691   11.7943  -29.1531 C   0  0  0  0  0  0  0  0  0  0  0  0
   -6.2895   10.7699  -29.7675 C   0  0  0  0  0  0  0  0  0  0  0  0
   -6.0405   10.4449  -31.1009 C   0  0  0  0  0  0  0  0  0  0  0  0
   -5.0198   13.1829  -27.3022 C   0  0  0  0  0  0  0  0  0  0  0  0
   -4.7670   10.8361  -33.2509 C   0  0  0  0  0  0  0  0  0  0  0  0
   -7.2327   10.1006  -29.0431 O   0  0  0  0  0  0  0  0  0  0  0  0
   -5.8008   12.1236  -27.8515 O   0  0  0  0  0  0  0  0  0  0  0  0
   -6.2254   11.0066  -34.3219 S   0  0  0  0  0  0  0  0  0  0  0  0
   -7.0344    9.0517  -31.9341 Br  0  0  0  0  0  0  0  0  0  0  0  0
   -3.5936   12.7202  -31.7565 H   0  0  0  0  0  0  0  0  0  0  0  0
   -4.0358   13.2935  -29.4001 H   0  0  0  0  0  0  0  0  0  0  0  0
   -5.3042   13.3434  -26.2594 H   0  0  0  0  0  0  0  0  0  0  0  0
   -5.1842   14.0957  -27.8804 H   0  0  0  0  0  0  0  0  0  0  0  0
   -3.9635   12.9081  -27.3513 H   0  0  0  0  0  0  0  0  0  0  0  0
   -3.9767   11.4980  -33.6311 H   0  0  0  0  0  0  0  0  0  0  0  0
   -4.3818    9.8120  -33.3512 H   0  0  0  0  0  0  0  0  0  0  0  0
   -7.2731   10.4546  -28.1417 H   0  0  0  0  0  0  0  0  0  0  0  0
   -6.4411   12.3025  -34.0591 H   0  0  0  0  0  0  0  0  0  0  0  0
  1  2  1  0  0  0  0
  1  3  2  0  0  0  0
  2  4  2  0  0  0  0
  3  6  1  0  0  0  0
  3  8  1  0  0  0  0
  4  5  1  0  0  0  0
  4 10  1  0  0  0  0
  5  6  2  0  0  0  0
  5  9  1  0  0  0  0
  6 12  1  0  0  0  0
  7 10  1  0  0  0  0
  8 11  1  0  0  0  0
  1 13  1  0  0  0  0
  2 14  1  0  0  0  0
  7 15  1  0  0  0  0
  7 16  1  0  0  0  0
  7 17  1  0  0  0  0
  8 18  1  0  0  0  0
  8 19  1  0  0  0  0
  9 20  1  0  0  0  0
 11 21  1  0  0  0  0
M  END
> <id>
EN300-1936285

> <smiles>
COC=1C=CC(CS)=C(Br)C1O

> <IUPAC Name>
2-bromo-6-methoxy-3-(sulfanylmethyl)phenol

> <CAS>
2228975-81-1

> <URL>
https://www.enaminestore.com/catalog/EN300-1936285

> <ROCS_ShapeQuery>
_x1604L0AP1_x0771L0AP1

> <ROCS_TanimotoCombo>
0.965 

> <ROCS_ShapeTanimoto>
0.468 

> <ROCS_ColorTanimoto>
0.498 

> <ROCS_RefTversky>
0.425 

> <ROCS_RefColorTversky>
0.516 

> <ROCS_RefTverskyCombo>
0.941 

> <ROCS_FitTversky>
1.273 

> <ROCS_FitColorTversky>
0.933 

> <ROCS_FitTverskyCombo>
2.206 

> <ROCS_ColorScore>
-4.884

> <ROCS_Overlap>
711.411

> <ROCS_Rank>
275                 

$$$$
untitled-dbase-1199_77
  -OEChem-06052310023D

 27 27  0     1  0  0  0  0  0999 V2000
   -5.1671   11.8450  -31.6435 C   0  0  0  0  0  0  0  0  0  0  0  0
   -4.2595   12.2639  -29.4439 C   0  0  0  0  0  0  0  0  0  0  0  0
   -6.1681   11.0540  -31.0798 C   0  0  0  0  0  0  0  0  0  0  0  0
   -6.2150   10.8680  -29.6982 C   0  0  0  0  0  0  0  0  0  0  0  0
   -4.2127   12.4499  -30.8255 C   0  0  0  0  0  0  0  0  0  0  0  0
   -5.2607   11.4730  -28.8802 C   0  0  0  0  0  0  0  0  0  0  0  0
   -7.2157    8.8848  -31.7801 C   0  0  0  0  0  0  0  0  0  0  0  0
   -6.9819   10.7351  -33.4837 C   0  0  0  0  0  0  0  0  0  0  0  0
   -5.9225    9.8784  -34.1798 C   0  0  0  0  0  0  0  0  0  0  0  0
   -7.1971   10.4047  -31.9889 C   0  0  2  0  0  0  0  0  0  0  0  0
   -5.7957   10.2473  -35.5689 N   0  0  0  0  0  0  0  0  0  0  0  0
   -7.2006   10.0912  -29.1618 O   0  0  0  0  0  0  0  0  0  0  0  0
   -2.9774   13.4257  -31.5217 Cl  0  0  0  0  0  0  0  0  0  0  0  0
   -5.2911   11.2438  -26.9984 Br  0  0  0  0  0  0  0  0  0  0  0  0
   -5.1343   11.9879  -32.7215 H   0  0  0  0  0  0  0  0  0  0  0  0
   -3.5132   12.7371  -28.8096 H   0  0  0  0  0  0  0  0  0  0  0  0
   -6.2492    8.4407  -32.0438 H   0  0  0  0  0  0  0  0  0  0  0  0
   -7.9847    8.3973  -32.3893 H   0  0  0  0  0  0  0  0  0  0  0  0
   -7.4192    8.6427  -30.7313 H   0  0  0  0  0  0  0  0  0  0  0  0
   -6.6920   11.7907  -33.5722 H   0  0  0  0  0  0  0  0  0  0  0  0
   -7.9263   10.6290  -34.0322 H   0  0  0  0  0  0  0  0  0  0  0  0
   -6.2182    8.8254  -34.1236 H   0  0  0  0  0  0  0  0  0  0  0  0
   -4.9502    9.9648  -33.6852 H   0  0  0  0  0  0  0  0  0  0  0  0
   -8.1938   10.7670  -31.7041 H   0  0  0  0  0  0  0  0  0  0  0  0
   -5.1015    9.6732  -35.9989 H   0  0  0  0  0  0  0  0  0  0  0  0
   -6.6736   10.1140  -36.0247 H   0  0  0  0  0  0  0  0  0  0  0  0
   -7.1069   10.0535  -28.1978 H   0  0  0  0  0  0  0  0  0  0  0  0
  1  3  2  0  0  0  0
  1  5  1  0  0  0  0
  2  5  2  0  0  0  0
  2  6  1  0  0  0  0
  3  4  1  0  0  0  0
  3 10  1  0  0  0  0
  4  6  2  0  0  0  0
  4 12  1  0  0  0  0
  5 13  1  0  0  0  0
  6 14  1  0  0  0  0
  7 10  1  0  0  0  0
  8  9  1  0  0  0  0
  8 10  1  0  0  0  0
  9 11  1  0  0  0  0
  1 15  1  0  0  0  0
  2 16  1  0  0  0  0
  7 17  1  0  0  0  0
  7 18  1  0  0  0  0
  7 19  1  0  0  0  0
  8 20  1  0  0  0  0
  8 21  1  0  0  0  0
  9 22  1  0  0  0  0
  9 23  1  0  0  0  0
 10 24  1  0  0  0  0
 11 25  1  0  0  0  0
 11 26  1  0  0  0  0
 12 27  1  0  0  0  0
M  END
> <id>
EN300-1922552

> <smiles>
CC(CCN)C=1C=C(Cl)C=C(Br)C1O

> <IUPAC Name>
2-(4-aminobutan-2-yl)-6-bromo-4-chlorophenol

> <CAS>
2228734-02-7

> <URL>
https://www.enaminestore.com/catalog/EN300-1922552

> <ROCS_ShapeQuery>
_x1604L0AP1_x0771L0AP1

> <ROCS_TanimotoCombo>
0.965 

> <ROCS_ShapeTanimoto>
0.573 

> <ROCS_ColorTanimoto>
0.393 

> <ROCS_RefTversky>
0.500 

> <ROCS_RefColorTversky>
0.492 

> <ROCS_RefTverskyCombo>
0.992 

> <ROCS_FitTversky>
1.338 

> <ROCS_FitColorTversky>
0.660 

> <ROCS_FitTverskyCombo>
1.998 

> <ROCS_ColorScore>
-4.709

> <ROCS_Overlap>
838.664

> <ROCS_Rank>
276                 

$$$$
untitled-dbase-655_55
  -OEChem-06052310023D

 24 24  0     1  0  0  0  0  0999 V2000
   -4.6044   12.4898  -29.8411 C   0  0  0  0  0  0  0  0  0  0  0  0
   -4.3474   12.1734  -31.1750 C   0  0  0  0  0  0  0  0  0  0  0  0
   -5.5781   11.7859  -29.1324 C   0  0  0  0  0  0  0  0  0  0  0  0
   -5.0642   11.1532  -31.8004 C   0  0  0  0  0  0  0  0  0  0  0  0
   -6.2949   10.7656  -29.7578 C   0  0  0  0  0  0  0  0  0  0  0  0
   -6.0379   10.4493  -31.0918 C   0  0  0  0  0  0  0  0  0  0  0  0
   -4.2570    9.3993  -33.5094 C   0  0  0  0  0  0  0  0  0  0  0  0
   -5.9925   11.0827  -34.1373 C   0  0  0  0  0  0  0  0  0  0  0  0
   -4.7427   10.8451  -33.2701 C   0  0  1  0  0  0  0  0  0  0  0  0
   -3.6699   11.7304  -33.7624 N   0  0  0  0  0  0  0  0  0  0  0  0
   -7.2392   10.1001  -29.0337 O   0  0  0  0  0  0  0  0  0  0  0  0
   -6.7961   12.0308  -33.5935 F   0  0  0  0  0  0  0  0  0  0  0  0
   -6.7327    9.9461  -34.2132 F   0  0  0  0  0  0  0  0  0  0  0  0
   -7.0218    9.0553  -31.9342 Br  0  0  0  0  0  0  0  0  0  0  0  0
   -4.0467   13.2845  -29.3543 H   0  0  0  0  0  0  0  0  0  0  0  0
   -3.5866   12.7285  -31.7178 H   0  0  0  0  0  0  0  0  0  0  0  0
   -5.7730   12.0386  -28.0936 H   0  0  0  0  0  0  0  0  0  0  0  0
   -4.0374    9.2158  -34.5682 H   0  0  0  0  0  0  0  0  0  0  0  0
   -3.3530    9.1726  -32.9326 H   0  0  0  0  0  0  0  0  0  0  0  0
   -5.0136    8.6675  -33.1991 H   0  0  0  0  0  0  0  0  0  0  0  0
   -5.7442   11.3931  -35.1577 H   0  0  0  0  0  0  0  0  0  0  0  0
   -2.9194   11.1548  -34.0476 H   0  0  0  0  0  0  0  0  0  0  0  0
   -4.0379   12.2467  -34.5200 H   0  0  0  0  0  0  0  0  0  0  0  0
   -7.6618    9.4203  -29.5810 H   0  0  0  0  0  0  0  0  0  0  0  0
  1  2  1  0  0  0  0
  1  3  2  0  0  0  0
  2  4  2  0  0  0  0
  3  5  1  0  0  0  0
  4  6  1  0  0  0  0
  4  9  1  0  0  0  0
  5  6  2  0  0  0  0
  5 11  1  0  0  0  0
  6 14  1  0  0  0  0
  7  9  1  0  0  0  0
  8  9  1  0  0  0  0
  8 12  1  0  0  0  0
  8 13  1  0  0  0  0
  9 10  1  0  0  0  0
  1 15  1  0  0  0  0
  2 16  1  0  0  0  0
  3 17  1  0  0  0  0
  7 18  1  0  0  0  0
  7 19  1  0  0  0  0
  7 20  1  0  0  0  0
  8 21  1  0  0  0  0
 10 22  1  0  0  0  0
 10 23  1  0  0  0  0
 11 24  1  0  0  0  0
M  END
> <id>
EN300-1951057

> <smiles>
CC(N)(C(F)F)C=1C=CC=C(O)C1Br

> <IUPAC Name>
3-(2-amino-1,1-difluoropropan-2-yl)-2-bromophenol

> <CAS>
2228926-30-3

> <URL>
https://www.enaminestore.com/catalog/EN300-1951057

> <ROCS_ShapeQuery>
_x1604L0AP1_x0771L0AP1

> <ROCS_TanimotoCombo>
0.965 

> <ROCS_ShapeTanimoto>
0.514 

> <ROCS_ColorTanimoto>
0.451 

> <ROCS_RefTversky>
0.472 

> <ROCS_RefColorTversky>
0.513 

> <ROCS_RefTverskyCombo>
0.985 

> <ROCS_FitTversky>
1.206 

> <ROCS_FitColorTversky>
0.789 

> <ROCS_FitTverskyCombo>
1.996 

> <ROCS_ColorScore>
-4.883

> <ROCS_Overlap>
792.574

> <ROCS_Rank>
277                 

$$$$
untitled-dbase-1953_85
  -OEChem-06052310023D

 22 22  0     0  0  0  0  0  0999 V2000
   -4.3548   12.1687  -31.2090 C   0  0  0  0  0  0  0  0  0  0  0  0
   -4.5999   12.4926  -29.8746 C   0  0  0  0  0  0  0  0  0  0  0  0
   -5.0781   11.1460  -31.8227 C   0  0  0  0  0  0  0  0  0  0  0  0
   -5.5682   11.7937  -29.1538 C   0  0  0  0  0  0  0  0  0  0  0  0
   -6.2916   10.7710  -29.7675 C   0  0  0  0  0  0  0  0  0  0  0  0
   -6.0465   10.4471  -31.1019 C   0  0  0  0  0  0  0  0  0  0  0  0
   -4.7780   10.8510  -33.2189 C   0  0  0  0  0  0  0  0  0  0  0  0
   -5.0125   13.1787  -27.3021 C   0  0  0  0  0  0  0  0  0  0  0  0
   -5.8690   10.9506  -34.2741 C   0  0  0  0  0  0  0  0  0  0  0  0
   -3.6381   10.4954  -33.5682 O   0  0  0  0  0  0  0  0  0  0  0  0
   -7.2327   10.1013  -29.0406 O   0  0  0  0  0  0  0  0  0  0  0  0
   -5.7960   12.1210  -27.8511 O   0  0  0  0  0  0  0  0  0  0  0  0
   -7.0620   11.3303  -33.7407 F   0  0  0  0  0  0  0  0  0  0  0  0
   -6.0909    9.7525  -34.8748 F   0  0  0  0  0  0  0  0  0  0  0  0
   -7.0407    9.0482  -31.9277 Br  0  0  0  0  0  0  0  0  0  0  0  0
   -3.5970   12.7214  -31.7587 H   0  0  0  0  0  0  0  0  0  0  0  0
   -4.0337   13.2908  -29.4023 H   0  0  0  0  0  0  0  0  0  0  0  0
   -5.2938   13.3376  -26.2582 H   0  0  0  0  0  0  0  0  0  0  0  0
   -5.1776   14.0926  -27.8782 H   0  0  0  0  0  0  0  0  0  0  0  0
   -3.9566   12.9030  -27.3546 H   0  0  0  0  0  0  0  0  0  0  0  0
   -5.5919   11.6893  -35.0312 H   0  0  0  0  0  0  0  0  0  0  0  0
   -7.2693   10.4539  -28.1385 H   0  0  0  0  0  0  0  0  0  0  0  0
  1  2  1  0  0  0  0
  1  3  2  0  0  0  0
  2  4  2  0  0  0  0
  3  6  1  0  0  0  0
  3  7  1  0  0  0  0
  4  5  1  0  0  0  0
  4 12  1  0  0  0  0
  5  6  2  0  0  0  0
  5 11  1  0  0  0  0
  6 15  1  0  0  0  0
  7  9  1  0  0  0  0
  7 10  2  0  0  0  0
  8 12  1  0  0  0  0
  9 13  1  0  0  0  0
  9 14  1  0  0  0  0
  1 16  1  0  0  0  0
  2 17  1  0  0  0  0
  8 18  1  0  0  0  0
  8 19  1  0  0  0  0
  8 20  1  0  0  0  0
  9 21  1  0  0  0  0
 11 22  1  0  0  0  0
M  END
> <id>
EN300-1965755

> <smiles>
COC=1C=CC(C(=O)C(F)F)=C(Br)C1O

> <IUPAC Name>
1-(2-bromo-3-hydroxy-4-methoxyphenyl)-2,2-difluoroethan-1-one

> <CAS>
2228503-13-5

> <URL>
https://www.enaminestore.com/catalog/EN300-1965755

> <ROCS_ShapeQuery>
_x1604L0AP1_x0771L0AP1

> <ROCS_TanimotoCombo>
0.965 

> <ROCS_ShapeTanimoto>
0.513 

> <ROCS_ColorTanimoto>
0.452 

> <ROCS_RefTversky>
0.481 

> <ROCS_RefColorTversky>
0.513 

> <ROCS_RefTverskyCombo>
0.995 

> <ROCS_FitTversky>
1.150 

> <ROCS_FitColorTversky>
0.790 

> <ROCS_FitTverskyCombo>
1.940 

> <ROCS_ColorScore>
-4.884

> <ROCS_Overlap>
808.804

> <ROCS_Rank>
278                 

$$$$
untitled-dbase-2315_0
  -OEChem-06052310023D

 21 21  0     0  0  0  0  0  0999 V2000
   -4.5842   12.4850  -29.8554 C   0  0  0  0  0  0  0  0  0  0  0  0
   -5.5597   11.7886  -29.1418 C   0  0  0  0  0  0  0  0  0  0  0  0
   -4.3338   12.1642  -31.1896 C   0  0  0  0  0  0  0  0  0  0  0  0
   -5.0589   11.1469  -31.8102 C   0  0  0  0  0  0  0  0  0  0  0  0
   -6.2847   10.7714  -29.7624 C   0  0  0  0  0  0  0  0  0  0  0  0
   -6.0343   10.4505  -31.0967 C   0  0  0  0  0  0  0  0  0  0  0  0
   -5.8033   12.1436  -27.7501 C   0  0  0  0  0  0  0  0  0  0  0  0
   -3.2844   12.9279  -31.9293 C   0  0  0  0  0  0  0  0  0  0  0  0
   -4.7699   10.8239  -33.2436 C   0  0  0  0  0  0  0  0  0  0  0  0
   -5.1845   13.0362  -27.1667 O   0  0  0  0  0  0  0  0  0  0  0  0
   -7.2360   10.1005  -29.0487 O   0  0  0  0  0  0  0  0  0  0  0  0
   -7.0279    9.0568  -31.9317 Br  0  0  0  0  0  0  0  0  0  0  0  0
   -4.0195   13.2808  -29.3745 H   0  0  0  0  0  0  0  0  0  0  0  0
   -6.5860   11.5714  -27.2084 H   0  0  0  0  0  0  0  0  0  0  0  0
   -2.3103   12.4376  -31.8199 H   0  0  0  0  0  0  0  0  0  0  0  0
   -3.5237   12.9965  -32.9976 H   0  0  0  0  0  0  0  0  0  0  0  0
   -3.2034   13.9552  -31.5533 H   0  0  0  0  0  0  0  0  0  0  0  0
   -3.9904   10.0578  -33.3065 H   0  0  0  0  0  0  0  0  0  0  0  0
   -5.6681   10.4560  -33.7517 H   0  0  0  0  0  0  0  0  0  0  0  0
   -4.4342   11.7144  -33.7865 H   0  0  0  0  0  0  0  0  0  0  0  0
   -7.6549    9.4268  -29.6052 H   0  0  0  0  0  0  0  0  0  0  0  0
  1  2  1  0  0  0  0
  1  3  2  0  0  0  0
  2  5  2  0  0  0  0
  2  7  1  0  0  0  0
  3  4  1  0  0  0  0
  3  8  1  0  0  0  0
  4  6  2  0  0  0  0
  4  9  1  0  0  0  0
  5  6  1  0  0  0  0
  5 11  1  0  0  0  0
  6 12  1  0  0  0  0
  7 10  2  0  0  0  0
  1 13  1  0  0  0  0
  7 14  1  0  0  0  0
  8 15  1  0  0  0  0
  8 16  1  0  0  0  0
  8 17  1  0  0  0  0
  9 18  1  0  0  0  0
  9 19  1  0  0  0  0
  9 20  1  0  0  0  0
 11 21  1  0  0  0  0
M  END
> <id>
EN300-3005928

> <smiles>
CC=1C=C(C=O)C(O)=C(Br)C1C

> <MDLNUMBER>
MFCD06740694

> <IUPAC Name>
3-bromo-2-hydroxy-4,5-dimethylbenzaldehyde

> <CAS>
886503-97-5

> <Purity>
95

> <URL>
https://www.enaminestore.com/catalog/EN300-3005928

> <ROCS_ShapeQuery>
_x1604L0AP1_x0771L0AP1

> <ROCS_TanimotoCombo>
0.965 

> <ROCS_ShapeTanimoto>
0.467 

> <ROCS_ColorTanimoto>
0.498 

> <ROCS_RefTversky>
0.427 

> <ROCS_RefColorTversky>
0.516 

> <ROCS_RefTverskyCombo>
0.943 

> <ROCS_FitTversky>
1.254 

> <ROCS_FitColorTversky>
0.933 

> <ROCS_FitTverskyCombo>
2.187 

> <ROCS_ColorScore>
-4.885

> <ROCS_Overlap>
714.352

> <ROCS_Rank>
279                 

$$$$
untitled-dbase-2112_93
  -OEChem-06052310023D

 25 25  0     0  0  0  0  0  0999 V2000
   -4.6000   12.4840  -29.8515 C   0  0  0  0  0  0  0  0  0  0  0  0
   -5.0757   11.1422  -31.8035 C   0  0  0  0  0  0  0  0  0  0  0  0
   -4.3516   12.1619  -31.1858 C   0  0  0  0  0  0  0  0  0  0  0  0
   -5.5723   11.7863  -29.1350 C   0  0  0  0  0  0  0  0  0  0  0  0
   -6.2964   10.7666  -29.7527 C   0  0  0  0  0  0  0  0  0  0  0  0
   -6.0481   10.4445  -31.0869 C   0  0  0  0  0  0  0  0  0  0  0  0
   -2.6085   13.9902  -31.1438 C   0  0  0  0  0  0  0  0  0  0  0  0
   -3.2619   15.3480  -31.1235 C   0  0  0  0  0  0  0  0  0  0  0  0
   -6.7894   13.1123  -27.5806 C   0  0  0  0  0  0  0  0  0  0  0  0
   -3.3126   12.9087  -31.9518 C   0  0  0  0  0  0  0  0  0  0  0  0
   -1.5604   13.7850  -30.5330 O   0  0  0  0  0  0  0  0  0  0  0  0
   -7.2441   10.0963  -29.0354 O   0  0  0  0  0  0  0  0  0  0  0  0
   -5.8038   12.1128  -27.8327 O   0  0  0  0  0  0  0  0  0  0  0  0
   -7.0117    9.0652  -31.9604 Br  0  0  0  0  0  0  0  0  0  0  0  0
   -4.0370   13.2787  -29.3678 H   0  0  0  0  0  0  0  0  0  0  0  0
   -4.8751   10.8986  -32.8445 H   0  0  0  0  0  0  0  0  0  0  0  0
   -3.9609   15.4086  -30.2848 H   0  0  0  0  0  0  0  0  0  0  0  0
   -2.4980   16.1200  -31.0029 H   0  0  0  0  0  0  0  0  0  0  0  0
   -3.8127   15.5038  -32.0543 H   0  0  0  0  0  0  0  0  0  0  0  0
   -6.8752   13.2772  -26.5038 H   0  0  0  0  0  0  0  0  0  0  0  0
   -7.7505   12.7886  -27.9881 H   0  0  0  0  0  0  0  0  0  0  0  0
   -6.4848   14.0425  -28.0662 H   0  0  0  0  0  0  0  0  0  0  0  0
   -2.5428   12.2164  -32.3275 H   0  0  0  0  0  0  0  0  0  0  0  0
   -3.7600   13.3891  -32.8362 H   0  0  0  0  0  0  0  0  0  0  0  0
   -7.2867   10.4454  -28.1321 H   0  0  0  0  0  0  0  0  0  0  0  0
  1  3  1  0  0  0  0
  1  4  2  0  0  0  0
  2  3  2  0  0  0  0
  2  6  1  0  0  0  0
  3 10  1  0  0  0  0
  4  5  1  0  0  0  0
  4 13  1  0  0  0  0
  5  6  2  0  0  0  0
  5 12  1  0  0  0  0
  6 14  1  0  0  0  0
  7  8  1  0  0  0  0
  7 10  1  0  0  0  0
  7 11  2  0  0  0  0
  9 13  1  0  0  0  0
  1 15  1  0  0  0  0
  2 16  1  0  0  0  0
  8 17  1  0  0  0  0
  8 18  1  0  0  0  0
  8 19  1  0  0  0  0
  9 20  1  0  0  0  0
  9 21  1  0  0  0  0
  9 22  1  0  0  0  0
 10 23  1  0  0  0  0
 10 24  1  0  0  0  0
 12 25  1  0  0  0  0
M  END
> <id>
EN300-1894704

> <smiles>
COC=1C=C(CC(=O)C)C=C(Br)C1O

> <MDLNUMBER>
MFCD00210396

> <IUPAC Name>
1-(3-bromo-4-hydroxy-5-methoxyphenyl)propan-2-one

> <CAS>
205826-79-5

> <URL>
https://www.enaminestore.com/catalog/EN300-1894704

> <ROCS_ShapeQuery>
_x1604L0AP1_x0771L0AP1

> <ROCS_TanimotoCombo>
0.965 

> <ROCS_ShapeTanimoto>
0.513 

> <ROCS_ColorTanimoto>
0.451 

> <ROCS_RefTversky>
0.470 

> <ROCS_RefColorTversky>
0.513 

> <ROCS_RefTverskyCombo>
0.983 

> <ROCS_FitTversky>
1.217 

> <ROCS_FitColorTversky>
0.789 

> <ROCS_FitTverskyCombo>
2.007 

> <ROCS_ColorScore>
-4.881

> <ROCS_Overlap>
789.137

> <ROCS_Rank>
280                 

$$$$
untitled-dbase-2080_146
  -OEChem-06052310023D

 27 27  0     0  0  0  0  0  0999 V2000
   -5.0524   11.1334  -31.7902 C   0  0  0  0  0  0  0  0  0  0  0  0
   -5.5666   11.7740  -29.1241 C   0  0  0  0  0  0  0  0  0  0  0  0
   -4.3262   12.1462  -31.1637 C   0  0  0  0  0  0  0  0  0  0  0  0
   -4.5833   12.4665  -29.8307 C   0  0  0  0  0  0  0  0  0  0  0  0
   -6.2928   10.7612  -29.7506 C   0  0  0  0  0  0  0  0  0  0  0  0
   -6.0357   10.4409  -31.0836 C   0  0  0  0  0  0  0  0  0  0  0  0
   -3.2939   12.8625  -31.9330 C   0  0  0  0  0  0  0  0  0  0  0  0
   -3.8215   13.5478  -29.1363 C   0  0  0  0  0  0  0  0  0  0  0  0
   -4.2133   12.8702  -34.8008 C   0  0  0  0  0  0  0  0  0  0  0  0
   -2.5745   12.1031  -33.0462 C   0  0  0  0  0  0  0  0  0  0  0  0
   -2.7469   12.7619  -34.4150 C   0  0  0  0  0  0  0  0  0  0  0  0
   -3.0029   14.0383  -31.7049 O   0  0  0  0  0  0  0  0  0  0  0  0
   -7.2471   10.1033  -29.0330 O   0  0  0  0  0  0  0  0  0  0  0  0
   -7.0032    9.0709  -31.9665 Br  0  0  0  0  0  0  0  0  0  0  0  0
   -4.8471   10.8879  -32.8301 H   0  0  0  0  0  0  0  0  0  0  0  0
   -5.7695   12.0214  -28.0847 H   0  0  0  0  0  0  0  0  0  0  0  0
   -2.9263   13.1342  -28.6580 H   0  0  0  0  0  0  0  0  0  0  0  0
   -3.5123   14.3295  -29.8409 H   0  0  0  0  0  0  0  0  0  0  0  0
   -4.4356   14.0343  -28.3685 H   0  0  0  0  0  0  0  0  0  0  0  0
   -4.7735   13.4448  -34.0562 H   0  0  0  0  0  0  0  0  0  0  0  0
   -4.6619   11.8743  -34.8690 H   0  0  0  0  0  0  0  0  0  0  0  0
   -4.3281   13.3616  -35.7721 H   0  0  0  0  0  0  0  0  0  0  0  0
   -2.9763   11.0842  -33.0862 H   0  0  0  0  0  0  0  0  0  0  0  0
   -1.5068   12.0597  -32.8024 H   0  0  0  0  0  0  0  0  0  0  0  0
   -2.2145   12.1824  -35.1786 H   0  0  0  0  0  0  0  0  0  0  0  0
   -2.3007   13.7635  -34.4074 H   0  0  0  0  0  0  0  0  0  0  0  0
   -7.6736    9.4286  -29.5838 H   0  0  0  0  0  0  0  0  0  0  0  0
  1  3  2  0  0  0  0
  1  6  1  0  0  0  0
  2  4  2  0  0  0  0
  2  5  1  0  0  0  0
  3  4  1  0  0  0  0
  3  7  1  0  0  0  0
  4  8  1  0  0  0  0
  5  6  2  0  0  0  0
  5 13  1  0  0  0  0
  6 14  1  0  0  0  0
  7 10  1  0  0  0  0
  7 12  2  0  0  0  0
  9 11  1  0  0  0  0
 10 11  1  0  0  0  0
  1 15  1  0  0  0  0
  2 16  1  0  0  0  0
  8 17  1  0  0  0  0
  8 18  1  0  0  0  0
  8 19  1  0  0  0  0
  9 20  1  0  0  0  0
  9 21  1  0  0  0  0
  9 22  1  0  0  0  0
 10 23  1  0  0  0  0
 10 24  1  0  0  0  0
 11 25  1  0  0  0  0
 11 26  1  0  0  0  0
 13 27  1  0  0  0  0
M  END
> <id>
EN300-1276715

> <smiles>
CCCC(=O)C=1C=C(Br)C(O)=CC1C

> <IUPAC Name>
1-(5-bromo-4-hydroxy-2-methylphenyl)butan-1-one

> <CAS>
2110466-13-0

> <URL>
https://www.enaminestore.com/catalog/EN300-1276715

> <ROCS_ShapeQuery>
_x1604L0AP1_x0771L0AP1

> <ROCS_TanimotoCombo>
0.965 

> <ROCS_ShapeTanimoto>
0.514 

> <ROCS_ColorTanimoto>
0.451 

> <ROCS_RefTversky>
0.469 

> <ROCS_RefColorTversky>
0.513 

> <ROCS_RefTverskyCombo>
0.982 

> <ROCS_FitTversky>
1.227 

> <ROCS_FitColorTversky>
0.789 

> <ROCS_FitTverskyCombo>
2.016 

> <ROCS_ColorScore>
-4.878

> <ROCS_Overlap>
786.871

> <ROCS_Rank>
281                 

$$$$
untitled-dbase-87_7
  -OEChem-06052310023D

 17 17  0     0  0  0  0  0  0999 V2000
   -4.6130   12.4933  -29.8680 C   0  0  0  0  0  0  0  0  0  0  0  0
   -5.5797   11.7908  -29.1486 C   0  0  0  0  0  0  0  0  0  0  0  0
   -4.3650   12.1708  -31.2022 C   0  0  0  0  0  0  0  0  0  0  0  0
   -6.2984   10.7656  -29.7635 C   0  0  0  0  0  0  0  0  0  0  0  0
   -5.0838   11.1456  -31.8171 C   0  0  0  0  0  0  0  0  0  0  0  0
   -6.0505   10.4430  -31.0977 C   0  0  0  0  0  0  0  0  0  0  0  0
   -5.5518   11.5428  -34.1270 C   0  0  0  0  0  0  0  0  0  0  0  0
   -7.2356   10.1006  -29.0298 O   0  0  0  0  0  0  0  0  0  0  0  0
   -4.8145   10.8577  -33.1223 O   0  0  0  0  0  0  0  0  0  0  0  0
   -5.9152   12.7740  -33.7095 F   0  0  0  0  0  0  0  0  0  0  0  0
   -6.6786   10.8431  -34.3912 F   0  0  0  0  0  0  0  0  0  0  0  0
   -4.8430   11.6368  -35.2720 F   0  0  0  0  0  0  0  0  0  0  0  0
   -7.0303    9.0454  -31.9360 Br  0  0  0  0  0  0  0  0  0  0  0  0
   -4.0533   13.2915  -29.3892 H   0  0  0  0  0  0  0  0  0  0  0  0
   -5.7674   12.0479  -28.1096 H   0  0  0  0  0  0  0  0  0  0  0  0
   -3.6102   12.7225  -31.7562 H   0  0  0  0  0  0  0  0  0  0  0  0
   -7.6602    9.4171  -29.5710 H   0  0  0  0  0  0  0  0  0  0  0  0
  1  2  1  0  0  0  0
  1  3  2  0  0  0  0
  2  4  2  0  0  0  0
  3  5  1  0  0  0  0
  4  6  1  0  0  0  0
  4  8  1  0  0  0  0
  5  6  2  0  0  0  0
  5  9  1  0  0  0  0
  6 13  1  0  0  0  0
  7  9  1  0  0  0  0
  7 10  1  0  0  0  0
  7 11  1  0  0  0  0
  7 12  1  0  0  0  0
  1 14  1  0  0  0  0
  2 15  1  0  0  0  0
  3 16  1  0  0  0  0
  8 17  1  0  0  0  0
M  END
> <id>
EN300-256632

> <smiles>
OC=1C=CC=C(OC(F)(F)F)C1Br

> <MDLNUMBER>
MFCD22208541

> <IUPAC Name>
2-bromo-3-(trifluoromethoxy)phenol

> <CAS>
1392059-76-5

> <Purity>
95

> <URL>
https://www.enaminestore.com/catalog/EN300-256632

> <ROCS_ShapeQuery>
_x1604L0AP1_x0771L0AP1

> <ROCS_TanimotoCombo>
0.964 

> <ROCS_ShapeTanimoto>
0.467 

> <ROCS_ColorTanimoto>
0.497 

> <ROCS_RefTversky>
0.438 

> <ROCS_RefColorTversky>
0.516 

> <ROCS_RefTverskyCombo>
0.954 

> <ROCS_FitTversky>
1.166 

> <ROCS_FitColorTversky>
0.932 

> <ROCS_FitTverskyCombo>
2.099 

> <ROCS_ColorScore>
-4.881

> <ROCS_Overlap>
734.869

> <ROCS_Rank>
282                 

$$$$
untitled-dbase-200_103
  -OEChem-06052310023D

 27 27  0     0  0  0  0  0  0999 V2000
   -4.5277   12.4788  -29.7206 C   0  0  0  0  0  0  0  0  0  0  0  0
   -6.0386   10.5699  -31.0829 C   0  0  0  0  0  0  0  0  0  0  0  0
   -6.2703   10.8054  -29.7277 C   0  0  0  0  0  0  0  0  0  0  0  0
   -5.0514   11.2889  -31.7569 C   0  0  0  0  0  0  0  0  0  0  0  0
   -4.2959   12.2433  -31.0758 C   0  0  0  0  0  0  0  0  0  0  0  0
   -5.5148   11.7599  -29.0466 C   0  0  0  0  0  0  0  0  0  0  0  0
   -6.8246    9.5638  -31.8202 C   0  0  0  0  0  0  0  0  0  0  0  0
   -6.7819    8.9675  -35.6778 C   0  0  0  0  0  0  0  0  0  0  0  0
   -7.0199    7.2895  -33.8377 C   0  0  0  0  0  0  0  0  0  0  0  0
   -7.0776    9.7703  -33.3137 C   0  0  0  0  0  0  0  0  0  0  0  0
   -6.4760    8.6719  -34.2078 C   0  0  0  0  0  0  0  0  0  0  0  0
   -7.2565    8.5632  -31.2469 O   0  0  0  0  0  0  0  0  0  0  0  0
   -7.2377   10.0943  -29.0782 O   0  0  0  0  0  0  0  0  0  0  0  0
   -4.8319   11.0609  -33.0610 F   0  0  0  0  0  0  0  0  0  0  0  0
   -3.0761   13.1338  -31.9014 Cl  0  0  0  0  0  0  0  0  0  0  0  0
   -5.7993   12.1085  -27.2047 Br  0  0  0  0  0  0  0  0  0  0  0  0
   -3.9372   13.2246  -29.1925 H   0  0  0  0  0  0  0  0  0  0  0  0
   -7.8626    8.9937  -35.8526 H   0  0  0  0  0  0  0  0  0  0  0  0
   -6.3503    8.2050  -36.3353 H   0  0  0  0  0  0  0  0  0  0  0  0
   -6.3738    9.9402  -35.9724 H   0  0  0  0  0  0  0  0  0  0  0  0
   -8.1086    7.2470  -33.9389 H   0  0  0  0  0  0  0  0  0  0  0  0
   -6.7757    7.0440  -32.7986 H   0  0  0  0  0  0  0  0  0  0  0  0
   -6.5914    6.5100  -34.4770 H   0  0  0  0  0  0  0  0  0  0  0  0
   -8.1584    9.8251  -33.4888 H   0  0  0  0  0  0  0  0  0  0  0  0
   -6.6326   10.7373  -33.5791 H   0  0  0  0  0  0  0  0  0  0  0  0
   -5.3855    8.6571  -34.0888 H   0  0  0  0  0  0  0  0  0  0  0  0
   -7.6641    9.4766  -29.6913 H   0  0  0  0  0  0  0  0  0  0  0  0
  1  5  1  0  0  0  0
  1  6  2  0  0  0  0
  2  3  2  0  0  0  0
  2  4  1  0  0  0  0
  2  7  1  0  0  0  0
  3  6  1  0  0  0  0
  3 13  1  0  0  0  0
  4  5  2  0  0  0  0
  4 14  1  0  0  0  0
  5 15  1  0  0  0  0
  6 16  1  0  0  0  0
  7 10  1  0  0  0  0
  7 12  2  0  0  0  0
  8 11  1  0  0  0  0
  9 11  1  0  0  0  0
 10 11  1  0  0  0  0
  1 17  1  0  0  0  0
  8 18  1  0  0  0  0
  8 19  1  0  0  0  0
  8 20  1  0  0  0  0
  9 21  1  0  0  0  0
  9 22  1  0  0  0  0
  9 23  1  0  0  0  0
 10 24  1  0  0  0  0
 10 25  1  0  0  0  0
 11 26  1  0  0  0  0
 13 27  1  0  0  0  0
M  END
> <id>
EN300-1276410

> <smiles>
CC(C)CC(=O)C=1C(O)=C(Br)C=C(Cl)C1F

> <IUPAC Name>
1-(3-bromo-5-chloro-6-fluoro-2-hydroxyphenyl)-3-methylbutan-1-one

> <CAS>
1698093-30-9

> <URL>
https://www.enaminestore.com/catalog/EN300-1276410

> <ROCS_ShapeQuery>
_x1604L0AP1_x0771L0AP1

> <ROCS_TanimotoCombo>
0.964 

> <ROCS_ShapeTanimoto>
0.636 

> <ROCS_ColorTanimoto>
0.329 

> <ROCS_RefTversky>
0.557 

> <ROCS_RefColorTversky>
0.408 

> <ROCS_RefTverskyCombo>
0.965 

> <ROCS_FitTversky>
1.288 

> <ROCS_FitColorTversky>
0.628 

> <ROCS_FitTverskyCombo>
1.915 

> <ROCS_ColorScore>
-3.883

> <ROCS_Overlap>
936.160

> <ROCS_Rank>
283                 

$$$$
untitled-dbase-826_42
  -OEChem-06052310023D

 25 26  0     1  0  0  0  0  0999 V2000
   -4.6106   12.4930  -29.8769 C   0  0  0  0  0  0  0  0  0  0  0  0
   -4.3620   12.1656  -31.2098 C   0  0  0  0  0  0  0  0  0  0  0  0
   -5.5774   11.7928  -29.1553 C   0  0  0  0  0  0  0  0  0  0  0  0
   -5.0804   11.1381  -31.8212 C   0  0  0  0  0  0  0  0  0  0  0  0
   -6.2957   10.7652  -29.7667 C   0  0  0  0  0  0  0  0  0  0  0  0
   -6.0472   10.4379  -31.0997 C   0  0  0  0  0  0  0  0  0  0  0  0
   -4.8526   11.9359  -34.2700 C   0  0  0  0  0  0  0  0  0  0  0  0
   -4.7804   10.8263  -33.2519 C   0  0  2  0  0  0  0  0  0  0  0  0
   -5.9054   10.8679  -34.2564 C   0  0  2  0  0  0  0  0  0  0  0  0
   -5.9605    9.8574  -35.3501 C   0  0  0  0  0  0  0  0  0  0  0  0
   -6.6896    8.6886  -34.9408 N   0  0  0  0  0  0  0  0  0  0  0  0
   -7.2344   10.1054  -29.0302 O   0  0  0  0  0  0  0  0  0  0  0  0
   -7.0396    9.0372  -31.9226 Br  0  0  0  0  0  0  0  0  0  0  0  0
   -4.0506   13.2929  -29.4014 H   0  0  0  0  0  0  0  0  0  0  0  0
   -3.6052   12.7174  -31.7616 H   0  0  0  0  0  0  0  0  0  0  0  0
   -5.7651   12.0543  -28.1175 H   0  0  0  0  0  0  0  0  0  0  0  0
   -5.1419   12.9298  -33.9488 H   0  0  0  0  0  0  0  0  0  0  0  0
   -4.1158   11.9279  -35.0647 H   0  0  0  0  0  0  0  0  0  0  0  0
   -4.0068   10.0856  -33.4019 H   0  0  0  0  0  0  0  0  0  0  0  0
   -6.8973   11.1490  -33.9213 H   0  0  0  0  0  0  0  0  0  0  0  0
   -6.4574   10.3015  -36.2256 H   0  0  0  0  0  0  0  0  0  0  0  0
   -4.9353    9.5639  -35.6208 H   0  0  0  0  0  0  0  0  0  0  0  0
   -7.6262    8.9456  -34.7026 H   0  0  0  0  0  0  0  0  0  0  0  0
   -6.7061    8.0266  -35.6902 H   0  0  0  0  0  0  0  0  0  0  0  0
   -7.2694   10.4682  -28.1316 H   0  0  0  0  0  0  0  0  0  0  0  0
  1  2  1  0  0  0  0
  1  3  2  0  0  0  0
  2  4  2  0  0  0  0
  3  5  1  0  0  0  0
  4  6  1  0  0  0  0
  4  8  1  0  0  0  0
  5  6  2  0  0  0  0
  5 12  1  0  0  0  0
  6 13  1  0  0  0  0
  7  8  1  0  0  0  0
  7  9  1  0  0  0  0
  8  9  1  0  0  0  0
  9 10  1  0  0  0  0
 10 11  1  0  0  0  0
  1 14  1  0  0  0  0
  2 15  1  0  0  0  0
  3 16  1  0  0  0  0
  7 17  1  0  0  0  0
  7 18  1  0  0  0  0
  8 19  1  0  0  0  0
  9 20  1  0  0  0  0
 10 21  1  0  0  0  0
 10 22  1  0  0  0  0
 11 23  1  0  0  0  0
 11 24  1  0  0  0  0
 12 25  1  0  0  0  0
M  END
> <id>
EN300-1904582

> <smiles>
NCC1CC1C=2C=CC=C(O)C2Br

> <IUPAC Name>
3-[2-(aminomethyl)cyclopropyl]-2-bromophenol

> <CAS>
2228647-56-9

> <URL>
https://www.enaminestore.com/catalog/EN300-1904582

> <ROCS_ShapeQuery>
_x1604L0AP1_x0771L0AP1

> <ROCS_TanimotoCombo>
0.964 

> <ROCS_ShapeTanimoto>
0.512 

> <ROCS_ColorTanimoto>
0.452 

> <ROCS_RefTversky>
0.462 

> <ROCS_RefColorTversky>
0.514 

> <ROCS_RefTverskyCombo>
0.975 

> <ROCS_FitTversky>
1.271 

> <ROCS_FitColorTversky>
0.790 

> <ROCS_FitTverskyCombo>
2.061 

> <ROCS_ColorScore>
-4.887

> <ROCS_Overlap>
773.696

> <ROCS_Rank>
284                 

$$$$
untitled-dbase-343_42
  -OEChem-06052310023D

 25 26  0     1  0  0  0  0  0999 V2000
   -4.6103   12.4924  -29.8766 C   0  0  0  0  0  0  0  0  0  0  0  0
   -4.3617   12.1652  -31.2095 C   0  0  0  0  0  0  0  0  0  0  0  0
   -5.5771   11.7920  -29.1551 C   0  0  0  0  0  0  0  0  0  0  0  0
   -5.0799   11.1377  -31.8211 C   0  0  0  0  0  0  0  0  0  0  0  0
   -6.2953   10.7645  -29.7666 C   0  0  0  0  0  0  0  0  0  0  0  0
   -6.0467   10.4373  -31.0996 C   0  0  0  0  0  0  0  0  0  0  0  0
   -4.8530   11.9357  -34.2695 C   0  0  0  0  0  0  0  0  0  0  0  0
   -4.7799   10.8261  -33.2518 C   0  0  2  0  0  0  0  0  0  0  0  0
   -5.9051   10.8669  -34.2559 C   0  0  2  0  0  0  0  0  0  0  0  0
   -5.9598    9.8568  -35.3499 C   0  0  0  0  0  0  0  0  0  0  0  0
   -6.6880    8.6873  -34.9408 N   0  0  0  0  0  0  0  0  0  0  0  0
   -7.2339   10.1044  -29.0302 O   0  0  0  0  0  0  0  0  0  0  0  0
   -7.0389    9.0365  -31.9227 Br  0  0  0  0  0  0  0  0  0  0  0  0
   -4.0504   13.2923  -29.4010 H   0  0  0  0  0  0  0  0  0  0  0  0
   -3.6050   12.7171  -31.7613 H   0  0  0  0  0  0  0  0  0  0  0  0
   -5.7648   12.0534  -28.1172 H   0  0  0  0  0  0  0  0  0  0  0  0
   -5.1426   12.9294  -33.9480 H   0  0  0  0  0  0  0  0  0  0  0  0
   -4.1171   11.9279  -35.0651 H   0  0  0  0  0  0  0  0  0  0  0  0
   -4.0062   10.0854  -33.4014 H   0  0  0  0  0  0  0  0  0  0  0  0
   -6.8973   11.1483  -33.9219 H   0  0  0  0  0  0  0  0  0  0  0  0
   -6.4572   10.3008  -36.2252 H   0  0  0  0  0  0  0  0  0  0  0  0
   -4.9344    9.5641  -35.6210 H   0  0  0  0  0  0  0  0  0  0  0  0
   -7.6247    8.9436  -34.7024 H   0  0  0  0  0  0  0  0  0  0  0  0
   -6.7042    8.0256  -35.6905 H   0  0  0  0  0  0  0  0  0  0  0  0
   -7.2690   10.4671  -28.1316 H   0  0  0  0  0  0  0  0  0  0  0  0
  1  2  1  0  0  0  0
  1  3  2  0  0  0  0
  2  4  2  0  0  0  0
  3  5  1  0  0  0  0
  4  6  1  0  0  0  0
  4  8  1  1  0  0  0
  5  6  2  0  0  0  0
  5 12  1  0  0  0  0
  6 13  1  0  0  0  0
  7  8  1  0  0  0  0
  7  9  1  0  0  0  0
  8  9  1  0  0  0  0
  9 10  1  6  0  0  0
 10 11  1  0  0  0  0
  1 14  1  0  0  0  0
  2 15  1  0  0  0  0
  3 16  1  0  0  0  0
  7 17  1  0  0  0  0
  7 18  1  0  0  0  0
  8 19  1  0  0  0  0
  9 20  1  0  0  0  0
 10 21  1  0  0  0  0
 10 22  1  0  0  0  0
 11 23  1  0  0  0  0
 11 24  1  0  0  0  0
 12 25  1  0  0  0  0
M  END
> <id>
EN300-1904579

> <smiles>
NC[C@@H]1C[C@H]1C=2C=CC=C(O)C2Br |&1:2,4,r|

> <IUPAC Name>
rac-3-[(1R,2R)-2-(aminomethyl)cyclopropyl]-2-bromophenol

> <CAS>
2227791-53-7

> <URL>
https://www.enaminestore.com/catalog/EN300-1904579

> <ROCS_ShapeQuery>
_x1604L0AP1_x0771L0AP1

> <ROCS_TanimotoCombo>
0.964 

> <ROCS_ShapeTanimoto>
0.512 

> <ROCS_ColorTanimoto>
0.452 

> <ROCS_RefTversky>
0.462 

> <ROCS_RefColorTversky>
0.514 

> <ROCS_RefTverskyCombo>
0.975 

> <ROCS_FitTversky>
1.271 

> <ROCS_FitColorTversky>
0.790 

> <ROCS_FitTverskyCombo>
2.061 

> <ROCS_ColorScore>
-4.888

> <ROCS_Overlap>
773.667

> <ROCS_Rank>
285                 

$$$$
untitled-dbase-1486_338
  -OEChem-06052310023D

 27 27  0     0  0  0  0  0  0999 V2000
   -6.2689    7.8204  -34.6928 C   0  0  0  0  0  0  0  0  0  0  0  0
   -4.3760   11.9284  -31.4401 C   0  0  0  0  0  0  0  0  0  0  0  0
   -4.4911   12.2892  -30.0976 C   0  0  0  0  0  0  0  0  0  0  0  0
   -6.1773   10.3415  -31.1681 C   0  0  0  0  0  0  0  0  0  0  0  0
   -5.2191   10.9546  -31.9754 C   0  0  0  0  0  0  0  0  0  0  0  0
   -6.2924   10.7022  -29.8256 C   0  0  0  0  0  0  0  0  0  0  0  0
   -5.4493   11.6761  -29.2904 C   0  0  0  0  0  0  0  0  0  0  0  0
   -5.0996   10.5794  -33.3754 C   0  0  0  0  0  0  0  0  0  0  0  0
   -7.9551   11.8245  -34.4709 C   0  0  0  0  0  0  0  0  0  0  0  0
   -6.1709    9.1982  -35.1714 C   0  0  0  0  0  0  0  0  0  0  0  0
   -7.5879   10.5963  -33.7098 C   0  0  0  0  0  0  0  0  0  0  0  0
   -6.3468    6.7256  -34.3164 N   0  0  0  0  0  0  0  0  0  0  0  0
   -6.2456   10.1391  -34.0626 N   0  0  0  0  0  0  0  0  0  0  0  0
   -3.9789   10.6843  -33.8912 O   0  0  0  0  0  0  0  0  0  0  0  0
   -7.2390   10.0846  -29.0634 O   0  0  0  0  0  0  0  0  0  0  0  0
   -5.5761   12.1912  -27.4709 Br  0  0  0  0  0  0  0  0  0  0  0  0
   -3.6261   12.4128  -32.0603 H   0  0  0  0  0  0  0  0  0  0  0  0
   -3.8255   13.0499  -29.6976 H   0  0  0  0  0  0  0  0  0  0  0  0
   -6.8365    9.5820  -31.5823 H   0  0  0  0  0  0  0  0  0  0  0  0
   -7.9252   11.6108  -35.5495 H   0  0  0  0  0  0  0  0  0  0  0  0
   -8.9698   12.1413  -34.1880 H   0  0  0  0  0  0  0  0  0  0  0  0
   -7.2414   12.6281  -34.2365 H   0  0  0  0  0  0  0  0  0  0  0  0
   -5.2219    9.3697  -35.6874 H   0  0  0  0  0  0  0  0  0  0  0  0
   -6.9861    9.4346  -35.8611 H   0  0  0  0  0  0  0  0  0  0  0  0
   -7.6202   10.8181  -32.6329 H   0  0  0  0  0  0  0  0  0  0  0  0
   -8.3109    9.8004  -33.9421 H   0  0  0  0  0  0  0  0  0  0  0  0
   -7.2123   10.4258  -28.1561 H   0  0  0  0  0  0  0  0  0  0  0  0
  1 10  1  0  0  0  0
  1 12  3  0  0  0  0
  2  3  1  0  0  0  0
  2  5  2  0  0  0  0
  3  7  2  0  0  0  0
  4  5  1  0  0  0  0
  4  6  2  0  0  0  0
  5  8  1  0  0  0  0
  6  7  1  0  0  0  0
  6 15  1  0  0  0  0
  7 16  1  0  0  0  0
  8 13  1  0  0  0  0
  8 14  2  0  0  0  0
  9 11  1  0  0  0  0
 10 13  1  0  0  0  0
 11 13  1  0  0  0  0
  2 17  1  0  0  0  0
  3 18  1  0  0  0  0
  4 19  1  0  0  0  0
  9 20  1  0  0  0  0
  9 21  1  0  0  0  0
  9 22  1  0  0  0  0
 10 23  1  0  0  0  0
 10 24  1  0  0  0  0
 11 25  1  0  0  0  0
 11 26  1  0  0  0  0
 15 27  1  0  0  0  0
M  END
> <id>
EN300-11474503

> <smiles>
CCN(CC#N)C(=O)C=1C=CC(Br)=C(O)C1

> <IUPAC Name>
4-bromo-N-(cyanomethyl)-N-ethyl-3-hydroxybenzamide

> <CAS>
1797305-85-1

> <URL>
https://www.enaminestore.com/catalog/EN300-11474503

> <ROCS_ShapeQuery>
_x1604L0AP1_x0771L0AP1

> <ROCS_TanimotoCombo>
0.964 

> <ROCS_ShapeTanimoto>
0.531 

> <ROCS_ColorTanimoto>
0.433 

> <ROCS_RefTversky>
0.498 

> <ROCS_RefColorTversky>
0.499 

> <ROCS_RefTverskyCombo>
0.996 

> <ROCS_FitTversky>
1.143 

> <ROCS_FitColorTversky>
0.767 

> <ROCS_FitTverskyCombo>
1.910 

> <ROCS_ColorScore>
-4.744

> <ROCS_Overlap>
837.270

> <ROCS_Rank>
286                 

$$$$
untitled-dbase-2149_3443
  -OEChem-06052310023D

 26 26  0     0  0  0  0  0  0999 V2000
   -4.5785   12.4650  -29.8563 C   0  0  0  0  0  0  0  0  0  0  0  0
   -5.0619   11.1225  -31.8059 C   0  0  0  0  0  0  0  0  0  0  0  0
   -4.3307   12.1379  -31.1894 C   0  0  0  0  0  0  0  0  0  0  0  0
   -5.5574   11.7766  -29.1396 C   0  0  0  0  0  0  0  0  0  0  0  0
   -6.2885   10.7612  -29.7561 C   0  0  0  0  0  0  0  0  0  0  0  0
   -6.0408   10.4342  -31.0893 C   0  0  0  0  0  0  0  0  0  0  0  0
   -6.8439   14.0674  -26.9564 C   0  0  0  0  0  0  0  0  0  0  0  0
   -3.2847   12.8748  -31.9556 C   0  0  0  0  0  0  0  0  0  0  0  0
   -5.5517   13.4633  -27.4631 C   0  0  0  0  0  0  0  0  0  0  0  0
   -2.4139   13.6385  -31.0985 N   0  0  0  0  0  0  0  0  0  0  0  0
   -7.2425   10.1001  -29.0388 O   0  0  0  0  0  0  0  0  0  0  0  0
   -3.2178   14.7341  -30.5785 O   0  0  0  0  0  0  0  0  0  0  0  0
   -5.7883   12.1079  -27.8385 O   0  0  0  0  0  0  0  0  0  0  0  0
   -7.0140    9.0605  -31.9611 Br  0  0  0  0  0  0  0  0  0  0  0  0
   -4.0100   13.2564  -29.3736 H   0  0  0  0  0  0  0  0  0  0  0  0
   -4.8616   10.8750  -32.8462 H   0  0  0  0  0  0  0  0  0  0  0  0
   -7.6138   14.0496  -27.7328 H   0  0  0  0  0  0  0  0  0  0  0  0
   -7.2102   13.5184  -26.0827 H   0  0  0  0  0  0  0  0  0  0  0  0
   -6.6869   15.1034  -26.6383 H   0  0  0  0  0  0  0  0  0  0  0  0
   -2.6555   12.1830  -32.5330 H   0  0  0  0  0  0  0  0  0  0  0  0
   -3.7306   13.5742  -32.6761 H   0  0  0  0  0  0  0  0  0  0  0  0
   -4.7860   13.4842  -26.6819 H   0  0  0  0  0  0  0  0  0  0  0  0
   -5.1876   14.0125  -28.3365 H   0  0  0  0  0  0  0  0  0  0  0  0
   -1.7013   14.1388  -31.6376 H   0  0  0  0  0  0  0  0  0  0  0  0
   -7.2838   10.4516  -28.1364 H   0  0  0  0  0  0  0  0  0  0  0  0
   -2.5685   15.1945  -30.0190 H   0  0  0  0  0  0  0  0  0  0  0  0
  1  3  1  0  0  0  0
  1  4  2  0  0  0  0
  2  3  2  0  0  0  0
  2  6  1  0  0  0  0
  3  8  1  0  0  0  0
  4  5  1  0  0  0  0
  4 13  1  0  0  0  0
  5  6  2  0  0  0  0
  5 11  1  0  0  0  0
  6 14  1  0  0  0  0
  7  9  1  0  0  0  0
  8 10  1  0  0  0  0
  9 13  1  0  0  0  0
 10 12  1  0  0  0  0
  1 15  1  0  0  0  0
  2 16  1  0  0  0  0
  7 17  1  0  0  0  0
  7 18  1  0  0  0  0
  7 19  1  0  0  0  0
  8 20  1  0  0  0  0
  8 21  1  0  0  0  0
  9 22  1  0  0  0  0
  9 23  1  0  0  0  0
 10 24  1  0  0  0  0
 11 25  1  0  0  0  0
 12 26  1  0  0  0  0
M  END
> <id>
EN300-1919829

> <smiles>
CCOC=1C=C(CNO)C=C(Br)C1O

> <IUPAC Name>
2-bromo-6-ethoxy-4-[(hydroxyamino)methyl]phenol

> <CAS>
2228526-03-0

> <URL>
https://www.enaminestore.com/catalog/EN300-1919829

> <ROCS_ShapeQuery>
_x1604L0AP1_x0771L0AP1

> <ROCS_TanimotoCombo>
0.964 

> <ROCS_ShapeTanimoto>
0.513 

> <ROCS_ColorTanimoto>
0.451 

> <ROCS_RefTversky>
0.469 

> <ROCS_RefColorTversky>
0.513 

> <ROCS_RefTverskyCombo>
0.982 

> <ROCS_FitTversky>
1.224 

> <ROCS_FitColorTversky>
0.789 

> <ROCS_FitTverskyCombo>
2.013 

> <ROCS_ColorScore>
-4.882

> <ROCS_Overlap>
786.228

> <ROCS_Rank>
287                 

$$$$
untitled-dbase-463_237
  -OEChem-06052310023D

 26 26  0     1  0  0  0  0  0999 V2000
   -4.6275   12.5090  -29.8505 C   0  0  0  0  0  0  0  0  0  0  0  0
   -5.0624   11.1433  -31.7954 C   0  0  0  0  0  0  0  0  0  0  0  0
   -4.3593   12.1782  -31.1788 C   0  0  0  0  0  0  0  0  0  0  0  0
   -5.5987   11.8048  -29.1388 C   0  0  0  0  0  0  0  0  0  0  0  0
   -6.3018   10.7699  -29.7554 C   0  0  0  0  0  0  0  0  0  0  0  0
   -6.0337   10.4391  -31.0837 C   0  0  0  0  0  0  0  0  0  0  0  0
   -1.2115   14.0679  -31.7332 C   0  0  0  0  0  0  0  0  0  0  0  0
   -5.0855   13.2101  -27.2901 C   0  0  0  0  0  0  0  0  0  0  0  0
   -3.3215   12.9320  -31.9396 C   0  0  0  0  0  0  0  0  0  0  0  0
   -2.4758   13.7200  -31.0793 N   0  0  2  0  0  0  0  0  0  0  0  0
   -7.2488   10.0935  -29.0430 O   0  0  0  0  0  0  0  0  0  0  0  0
   -3.1612   14.9981  -30.9337 O   0  0  0  0  0  0  0  0  0  0  0  0
   -5.8497   12.1400  -27.8424 O   0  0  0  0  0  0  0  0  0  0  0  0
   -6.9686    9.0391  -31.9554 Br  0  0  0  0  0  0  0  0  0  0  0  0
   -4.0809   13.3156  -29.3677 H   0  0  0  0  0  0  0  0  0  0  0  0
   -4.8464   10.8930  -32.8317 H   0  0  0  0  0  0  0  0  0  0  0  0
   -0.5957   14.6674  -31.0466 H   0  0  0  0  0  0  0  0  0  0  0  0
   -0.6718   13.1475  -32.0008 H   0  0  0  0  0  0  0  0  0  0  0  0
   -1.4177   14.6498  -32.6436 H   0  0  0  0  0  0  0  0  0  0  0  0
   -5.3844   13.3744  -26.2519 H   0  0  0  0  0  0  0  0  0  0  0  0
   -5.2512   14.1176  -27.8761 H   0  0  0  0  0  0  0  0  0  0  0  0
   -4.0262   12.9449  -27.3243 H   0  0  0  0  0  0  0  0  0  0  0  0
   -2.6719   12.2498  -32.5058 H   0  0  0  0  0  0  0  0  0  0  0  0
   -3.7748   13.6168  -32.6695 H   0  0  0  0  0  0  0  0  0  0  0  0
   -7.3066   10.4502  -28.1435 H   0  0  0  0  0  0  0  0  0  0  0  0
   -2.5149   15.4720  -30.3831 H   0  0  0  0  0  0  0  0  0  0  0  0
  1  3  1  0  0  0  0
  1  4  2  0  0  0  0
  2  3  2  0  0  0  0
  2  6  1  0  0  0  0
  3  9  1  0  0  0  0
  4  5  1  0  0  0  0
  4 13  1  0  0  0  0
  5  6  2  0  0  0  0
  5 11  1  0  0  0  0
  6 14  1  0  0  0  0
  7 10  1  0  0  0  0
  8 13  1  0  0  0  0
  9 10  1  0  0  0  0
 10 12  1  0  0  0  0
  1 15  1  0  0  0  0
  2 16  1  0  0  0  0
  7 17  1  0  0  0  0
  7 18  1  0  0  0  0
  7 19  1  0  0  0  0
  8 20  1  0  0  0  0
  8 21  1  0  0  0  0
  8 22  1  0  0  0  0
  9 23  1  0  0  0  0
  9 24  1  0  0  0  0
 11 25  1  0  0  0  0
 12 26  1  0  0  0  0
M  END
> <id>
EN300-1926974

> <smiles>
COC=1C=C(CN(C)O)C=C(Br)C1O

> <IUPAC Name>
2-bromo-4-{[hydroxy(methyl)amino]methyl}-6-methoxyphenol

> <CAS>
2229368-19-6

> <URL>
https://www.enaminestore.com/catalog/EN300-1926974

> <ROCS_ShapeQuery>
_x1604L0AP1_x0771L0AP1

> <ROCS_TanimotoCombo>
0.964 

> <ROCS_ShapeTanimoto>
0.513 

> <ROCS_ColorTanimoto>
0.451 

> <ROCS_RefTversky>
0.470 

> <ROCS_RefColorTversky>
0.513 

> <ROCS_RefTverskyCombo>
0.983 

> <ROCS_FitTversky>
1.215 

> <ROCS_FitColorTversky>
0.789 

> <ROCS_FitTverskyCombo>
2.004 

> <ROCS_ColorScore>
-4.878

> <ROCS_Overlap>
789.176

> <ROCS_Rank>
288                 

$$$$
untitled-dbase-577_255
  -OEChem-06052310023D

 22 22  0     0  0  0  0  0  0999 V2000
   -4.3941   12.1019  -30.3114 C   0  0  0  0  0  0  0  0  0  0  0  0
   -4.3254   11.5982  -31.6103 C   0  0  0  0  0  0  0  0  0  0  0  0
   -5.3710   11.6337  -29.4326 C   0  0  0  0  0  0  0  0  0  0  0  0
   -5.2336   10.6264  -32.0304 C   0  0  0  0  0  0  0  0  0  0  0  0
   -6.2792   10.6620  -29.8527 C   0  0  0  0  0  0  0  0  0  0  0  0
   -6.2105   10.1583  -31.1516 C   0  0  0  0  0  0  0  0  0  0  0  0
   -5.1180   10.1195  -33.4321 C   0  0  0  0  0  0  0  0  0  0  0  0
   -7.6098    8.6999  -35.1526 N   0  0  0  0  0  0  0  0  0  0  0  0
   -5.1709    8.6644  -35.9568 O   0  0  0  0  0  0  0  0  0  0  0  0
   -6.0963    6.6803  -34.7203 O   0  0  0  0  0  0  0  0  0  0  0  0
   -7.2204   10.2291  -28.9663 O   0  0  0  0  0  0  0  0  0  0  0  0
   -5.5647    8.7713  -33.4814 O   0  0  0  0  0  0  0  0  0  0  0  0
   -6.0155    8.1172  -34.9107 S   0  0  0  0  0  0  0  0  0  0  0  0
   -7.4546    8.8325  -31.7133 Br  0  0  0  0  0  0  0  0  0  0  0  0
   -3.6873   12.8589  -29.9845 H   0  0  0  0  0  0  0  0  0  0  0  0
   -3.5603   11.9703  -32.2869 H   0  0  0  0  0  0  0  0  0  0  0  0
   -5.4185   12.0315  -28.4224 H   0  0  0  0  0  0  0  0  0  0  0  0
   -5.7252   10.7184  -34.1225 H   0  0  0  0  0  0  0  0  0  0  0  0
   -4.0786   10.1625  -33.7813 H   0  0  0  0  0  0  0  0  0  0  0  0
   -8.3144    8.0090  -35.4409 H   0  0  0  0  0  0  0  0  0  0  0  0
   -7.9708    9.3621  -34.4540 H   0  0  0  0  0  0  0  0  0  0  0  0
   -7.7853    9.5584  -29.3800 H   0  0  0  0  0  0  0  0  0  0  0  0
  1  2  1  0  0  0  0
  1  3  2  0  0  0  0
  2  4  2  0  0  0  0
  3  5  1  0  0  0  0
  4  6  1  0  0  0  0
  4  7  1  0  0  0  0
  5  6  2  0  0  0  0
  5 11  1  0  0  0  0
  6 14  1  0  0  0  0
  7 12  1  0  0  0  0
  8 13  1  0  0  0  0
  9 13  2  0  0  0  0
 10 13  2  0  0  0  0
 12 13  1  0  0  0  0
  1 15  1  0  0  0  0
  2 16  1  0  0  0  0
  3 17  1  0  0  0  0
  7 18  1  0  0  0  0
  7 19  1  0  0  0  0
  8 20  1  0  0  0  0
  8 21  1  0  0  0  0
 11 22  1  0  0  0  0
M  END
> <id>
EN300-1991219

> <smiles>
NS(=O)(=O)OCC=1C=CC=C(O)C1Br

> <IUPAC Name>
(2-bromo-3-hydroxyphenyl)methyl sulfamate

> <CAS>
2228439-50-5

> <URL>
https://www.enaminestore.com/catalog/EN300-1991219

> <ROCS_ShapeQuery>
_x1604L0AP1_x0771L0AP1

> <ROCS_TanimotoCombo>
0.964 

> <ROCS_ShapeTanimoto>
0.501 

> <ROCS_ColorTanimoto>
0.462 

> <ROCS_RefTversky>
0.460 

> <ROCS_RefColorTversky>
0.552 

> <ROCS_RefTverskyCombo>
1.012 

> <ROCS_FitTversky>
1.220 

> <ROCS_FitColorTversky>
0.740 

> <ROCS_FitTverskyCombo>
1.959 

> <ROCS_ColorScore>
-5.281

> <ROCS_Overlap>
771.047

> <ROCS_Rank>
289                 

$$$$
untitled-dbase-1230_98
  -OEChem-06052310023D

 25 25  0     1  0  0  0  0  0999 V2000
   -5.0255   11.0752  -31.8616 C   0  0  0  0  0  0  0  0  0  0  0  0
   -4.5735   12.4396  -29.9196 C   0  0  0  0  0  0  0  0  0  0  0  0
   -6.0064   10.3857  -31.1489 C   0  0  0  0  0  0  0  0  0  0  0  0
   -6.2709   10.7232  -29.8215 C   0  0  0  0  0  0  0  0  0  0  0  0
   -4.3090   12.1022  -31.2469 C   0  0  0  0  0  0  0  0  0  0  0  0
   -5.5545   11.7501  -29.2069 C   0  0  0  0  0  0  0  0  0  0  0  0
   -6.7463    9.3064  -31.8239 C   0  0  0  0  0  0  0  0  0  0  0  0
   -6.5426    8.9005  -33.0876 C   0  0  0  0  0  0  0  0  0  0  0  0
   -8.3113    7.1644  -32.7536 C   0  0  0  0  0  0  0  0  0  0  0  0
   -7.3181    7.7830  -33.7292 C   0  0  2  0  0  0  0  0  0  0  0  0
   -6.3795    6.7920  -34.1963 N   0  0  0  0  0  0  0  0  0  0  0  0
   -7.2326   10.0444  -29.1284 O   0  0  0  0  0  0  0  0  0  0  0  0
   -3.0986   12.9529  -32.1264 Cl  0  0  0  0  0  0  0  0  0  0  0  0
   -5.8840   12.2392  -27.4047 Br  0  0  0  0  0  0  0  0  0  0  0  0
   -4.8172   10.8145  -32.8975 H   0  0  0  0  0  0  0  0  0  0  0  0
   -4.0120   13.2412  -29.4438 H   0  0  0  0  0  0  0  0  0  0  0  0
   -7.4990    8.8030  -31.2212 H   0  0  0  0  0  0  0  0  0  0  0  0
   -5.7764    9.3716  -33.6993 H   0  0  0  0  0  0  0  0  0  0  0  0
   -7.8121    6.7936  -31.8506 H   0  0  0  0  0  0  0  0  0  0  0  0
   -8.8259    6.3135  -33.2139 H   0  0  0  0  0  0  0  0  0  0  0  0
   -9.0697    7.8933  -32.4478 H   0  0  0  0  0  0  0  0  0  0  0  0
   -7.8588    8.1388  -34.6137 H   0  0  0  0  0  0  0  0  0  0  0  0
   -5.4526    7.0849  -33.9693 H   0  0  0  0  0  0  0  0  0  0  0  0
   -6.5759    5.9197  -33.7526 H   0  0  0  0  0  0  0  0  0  0  0  0
   -7.2985   10.3919  -28.2265 H   0  0  0  0  0  0  0  0  0  0  0  0
  1  3  2  0  0  0  0
  1  5  1  0  0  0  0
  2  5  2  0  0  0  0
  2  6  1  0  0  0  0
  3  4  1  0  0  0  0
  3  7  1  0  0  0  0
  4  6  2  0  0  0  0
  4 12  1  0  0  0  0
  5 13  1  0  0  0  0
  6 14  1  0  0  0  0
  7  8  2  3  0  0  0
  8 10  1  0  0  0  0
  9 10  1  0  0  0  0
 10 11  1  0  0  0  0
  1 15  1  0  0  0  0
  2 16  1  0  0  0  0
  7 17  1  0  0  0  0
  8 18  1  0  0  0  0
  9 19  1  0  0  0  0
  9 20  1  0  0  0  0
  9 21  1  0  0  0  0
 10 22  1  0  0  0  0
 11 23  1  0  0  0  0
 11 24  1  0  0  0  0
 12 25  1  0  0  0  0
M  END
> <id>
EN300-1922906

> <smiles>
CC(N)C=CC=1C=C(Cl)C=C(Br)C1O

> <IUPAC Name>
2-(3-aminobut-1-en-1-yl)-6-bromo-4-chlorophenol

> <CAS>
2229670-48-6

> <URL>
https://www.enaminestore.com/catalog/EN300-1922906

> <ROCS_ShapeQuery>
_x1604L0AP1_x0771L0AP1

> <ROCS_TanimotoCombo>
0.963 

> <ROCS_ShapeTanimoto>
0.538 

> <ROCS_ColorTanimoto>
0.425 

> <ROCS_RefTversky>
0.482 

> <ROCS_RefColorTversky>
0.492 

> <ROCS_RefTverskyCombo>
0.974 

> <ROCS_FitTversky>
1.277 

> <ROCS_FitColorTversky>
0.757 

> <ROCS_FitTverskyCombo>
2.034 

> <ROCS_ColorScore>
-4.682

> <ROCS_Overlap>
808.105

> <ROCS_Rank>
290                 

$$$$
untitled-dbase-1130_75
  -OEChem-06052310023D

 22 22  0     1  0  0  0  0  0999 V2000
   -4.6026   12.4835  -29.8253 C   0  0  0  0  0  0  0  0  0  0  0  0
   -5.5798   11.7811  -29.1202 C   0  0  0  0  0  0  0  0  0  0  0  0
   -5.0628   11.1530  -31.7887 C   0  0  0  0  0  0  0  0  0  0  0  0
   -4.3441   12.1695  -31.1596 C   0  0  0  0  0  0  0  0  0  0  0  0
   -6.2985   10.7646  -29.7492 C   0  0  0  0  0  0  0  0  0  0  0  0
   -6.0400   10.4505  -31.0835 C   0  0  0  0  0  0  0  0  0  0  0  0
   -1.3716   12.6661  -33.3286 C   0  0  0  0  0  0  0  0  0  0  0  0
   -3.2989   12.9210  -31.9124 C   0  0  0  0  0  0  0  0  0  0  0  0
   -2.6689   12.1153  -32.9274 N   0  0  1  0  0  0  0  0  0  0  0  0
   -7.2456   10.0961  -29.0320 O   0  0  0  0  0  0  0  0  0  0  0  0
   -3.5012   12.2723  -34.1136 O   0  0  0  0  0  0  0  0  0  0  0  0
   -6.9961    9.0744  -31.9695 Br  0  0  0  0  0  0  0  0  0  0  0  0
   -4.0479   13.2738  -29.3261 H   0  0  0  0  0  0  0  0  0  0  0  0
   -5.7756   12.0315  -28.0809 H   0  0  0  0  0  0  0  0  0  0  0  0
   -4.8548   10.9152  -32.8297 H   0  0  0  0  0  0  0  0  0  0  0  0
   -0.9239   12.0251  -34.1023 H   0  0  0  0  0  0  0  0  0  0  0  0
   -1.5124   13.6807  -33.7296 H   0  0  0  0  0  0  0  0  0  0  0  0
   -0.7045   12.7065  -32.4549 H   0  0  0  0  0  0  0  0  0  0  0  0
   -3.7260   13.8032  -32.4096 H   0  0  0  0  0  0  0  0  0  0  0  0
   -2.5058   13.2861  -31.2453 H   0  0  0  0  0  0  0  0  0  0  0  0
   -7.6676    9.4199  -29.5843 H   0  0  0  0  0  0  0  0  0  0  0  0
   -2.9913   11.7390  -34.7468 H   0  0  0  0  0  0  0  0  0  0  0  0
  1  2  1  0  0  0  0
  1  4  2  0  0  0  0
  2  5  2  0  0  0  0
  3  4  1  0  0  0  0
  3  6  2  0  0  0  0
  4  8  1  0  0  0  0
  5  6  1  0  0  0  0
  5 10  1  0  0  0  0
  6 12  1  0  0  0  0
  7  9  1  0  0  0  0
  8  9  1  0  0  0  0
  9 11  1  0  0  0  0
  1 13  1  0  0  0  0
  2 14  1  0  0  0  0
  3 15  1  0  0  0  0
  7 16  1  0  0  0  0
  7 17  1  0  0  0  0
  7 18  1  0  0  0  0
  8 19  1  0  0  0  0
  8 20  1  0  0  0  0
 10 21  1  0  0  0  0
 11 22  1  0  0  0  0
M  END
> <id>
EN300-1906300

> <smiles>
CN(O)CC=1C=CC(O)=C(Br)C1

> <IUPAC Name>
2-bromo-4-{[hydroxy(methyl)amino]methyl}phenol

> <CAS>
1519334-15-6

> <URL>
https://www.enaminestore.com/catalog/EN300-1906300

> <ROCS_ShapeQuery>
_x1604L0AP1_x0771L0AP1

> <ROCS_TanimotoCombo>
0.963 

> <ROCS_ShapeTanimoto>
0.466 

> <ROCS_ColorTanimoto>
0.496 

> <ROCS_RefTversky>
0.425 

> <ROCS_RefColorTversky>
0.515 

> <ROCS_RefTverskyCombo>
0.940 

> <ROCS_FitTversky>
1.263 

> <ROCS_FitColorTversky>
0.932 

> <ROCS_FitTverskyCombo>
2.194 

> <ROCS_ColorScore>
-4.877

> <ROCS_Overlap>
711.317

> <ROCS_Rank>
291                 

$$$$
untitled-dbase-1592_391
  -OEChem-06052310023D

 26 26  0     1  0  0  0  0  0999 V2000
   -6.6341   11.4939  -33.6314 C   0  0  0  0  0  0  0  0  0  0  0  0
   -6.5916   11.7789  -32.2667 C   0  0  0  0  0  0  0  0  0  0  0  0
   -6.6236   10.1691  -34.0680 C   0  0  0  0  0  0  0  0  0  0  0  0
   -6.5384   10.7391  -31.3384 C   0  0  0  0  0  0  0  0  0  0  0  0
   -6.5704    9.1293  -33.1398 C   0  0  0  0  0  0  0  0  0  0  0  0
   -6.5278    9.4143  -31.7750 C   0  0  0  0  0  0  0  0  0  0  0  0
   -4.2798   12.2499  -30.1070 C   0  0  0  0  0  0  0  0  0  0  0  0
   -3.6296   14.5211  -30.0361 C   0  0  0  0  0  0  0  0  0  0  0  0
   -5.0551   11.1925  -29.3583 C   0  0  0  0  0  0  0  0  0  0  0  0
   -6.4933   11.1013  -29.8718 C   0  0  2  0  0  0  0  0  0  0  0  0
   -3.6728   12.0390  -31.1490 O   0  0  0  0  0  0  0  0  0  0  0  0
   -6.5610    7.8472  -33.6036 O   0  0  0  0  0  0  0  0  0  0  0  0
   -7.2065   10.1023  -29.1417 O   0  0  0  0  0  0  0  0  0  0  0  0
   -4.3470   13.4367  -29.4386 O   0  0  0  0  0  0  0  0  0  0  0  0
   -6.4557    7.9874  -30.5180 Br  0  0  0  0  0  0  0  0  0  0  0  0
   -6.6751   12.3036  -34.3542 H   0  0  0  0  0  0  0  0  0  0  0  0
   -6.6001   12.8149  -31.9376 H   0  0  0  0  0  0  0  0  0  0  0  0
   -6.6564    9.9552  -35.1330 H   0  0  0  0  0  0  0  0  0  0  0  0
   -3.7488   15.4188  -29.4245 H   0  0  0  0  0  0  0  0  0  0  0  0
   -4.0120   14.7006  -31.0441 H   0  0  0  0  0  0  0  0  0  0  0  0
   -2.5704   14.2588  -30.0917 H   0  0  0  0  0  0  0  0  0  0  0  0
   -5.0234   11.4555  -28.2937 H   0  0  0  0  0  0  0  0  0  0  0  0
   -4.5214   10.2398  -29.4653 H   0  0  0  0  0  0  0  0  0  0  0  0
   -7.0224   12.0477  -29.7081 H   0  0  0  0  0  0  0  0  0  0  0  0
   -6.5226    7.2239  -32.8618 H   0  0  0  0  0  0  0  0  0  0  0  0
   -7.1604   10.3605  -28.2090 H   0  0  0  0  0  0  0  0  0  0  0  0
  1  2  1  0  0  0  0
  1  3  2  0  0  0  0
  2  4  2  0  0  0  0
  3  5  1  0  0  0  0
  4  6  1  0  0  0  0
  4 10  1  0  0  0  0
  5  6  2  0  0  0  0
  5 12  1  0  0  0  0
  6 15  1  0  0  0  0
  7  9  1  0  0  0  0
  7 11  2  0  0  0  0
  7 14  1  0  0  0  0
  8 14  1  0  0  0  0
  9 10  1  0  0  0  0
 10 13  1  6  0  0  0
  1 16  1  0  0  0  0
  2 17  1  0  0  0  0
  3 18  1  0  0  0  0
  8 19  1  0  0  0  0
  8 20  1  0  0  0  0
  8 21  1  0  0  0  0
  9 22  1  0  0  0  0
  9 23  1  0  0  0  0
 10 24  1  0  0  0  0
 12 25  1  0  0  0  0
 13 26  1  0  0  0  0
M  END
> <id>
EN300-1904577

> <smiles>
COC(=O)C[C@H](O)C=1C=CC=C(O)C1Br

> <IUPAC Name>
methyl (3S)-3-(2-bromo-3-hydroxyphenyl)-3-hydroxypropanoate

> <CAS>
2227708-99-6

> <URL>
https://www.enaminestore.com/catalog/EN300-1904577

> <ROCS_ShapeQuery>
_x1604L0AP1_x0771L0AP1

> <ROCS_TanimotoCombo>
0.963 

> <ROCS_ShapeTanimoto>
0.644 

> <ROCS_ColorTanimoto>
0.319 

> <ROCS_RefTversky>
0.552 

> <ROCS_RefColorTversky>
0.422 

> <ROCS_RefTverskyCombo>
0.975 

> <ROCS_FitTversky>
1.345 

> <ROCS_FitColorTversky>
0.566 

> <ROCS_FitTverskyCombo>
1.912 

> <ROCS_ColorScore>
-4.039

> <ROCS_Overlap>
928.028

> <ROCS_Rank>
292                 

$$$$
untitled-dbase-1256_391
  -OEChem-06052310023D

 26 26  0     1  0  0  0  0  0999 V2000
   -6.6341   11.4939  -33.6314 C   0  0  0  0  0  0  0  0  0  0  0  0
   -6.5916   11.7789  -32.2667 C   0  0  0  0  0  0  0  0  0  0  0  0
   -6.6236   10.1691  -34.0680 C   0  0  0  0  0  0  0  0  0  0  0  0
   -6.5384   10.7391  -31.3384 C   0  0  0  0  0  0  0  0  0  0  0  0
   -6.5704    9.1293  -33.1398 C   0  0  0  0  0  0  0  0  0  0  0  0
   -6.5278    9.4143  -31.7750 C   0  0  0  0  0  0  0  0  0  0  0  0
   -4.2798   12.2499  -30.1070 C   0  0  0  0  0  0  0  0  0  0  0  0
   -3.6296   14.5211  -30.0361 C   0  0  0  0  0  0  0  0  0  0  0  0
   -5.0551   11.1925  -29.3583 C   0  0  0  0  0  0  0  0  0  0  0  0
   -6.4933   11.1013  -29.8718 C   0  0  2  0  0  0  0  0  0  0  0  0
   -3.6728   12.0390  -31.1490 O   0  0  0  0  0  0  0  0  0  0  0  0
   -6.5610    7.8472  -33.6036 O   0  0  0  0  0  0  0  0  0  0  0  0
   -7.2065   10.1023  -29.1417 O   0  0  0  0  0  0  0  0  0  0  0  0
   -4.3470   13.4367  -29.4386 O   0  0  0  0  0  0  0  0  0  0  0  0
   -6.4557    7.9874  -30.5180 Br  0  0  0  0  0  0  0  0  0  0  0  0
   -6.6751   12.3036  -34.3542 H   0  0  0  0  0  0  0  0  0  0  0  0
   -6.6001   12.8149  -31.9376 H   0  0  0  0  0  0  0  0  0  0  0  0
   -6.6564    9.9552  -35.1330 H   0  0  0  0  0  0  0  0  0  0  0  0
   -3.7488   15.4188  -29.4245 H   0  0  0  0  0  0  0  0  0  0  0  0
   -4.0120   14.7006  -31.0441 H   0  0  0  0  0  0  0  0  0  0  0  0
   -2.5704   14.2588  -30.0917 H   0  0  0  0  0  0  0  0  0  0  0  0
   -5.0234   11.4555  -28.2937 H   0  0  0  0  0  0  0  0  0  0  0  0
   -4.5214   10.2398  -29.4653 H   0  0  0  0  0  0  0  0  0  0  0  0
   -7.0224   12.0477  -29.7081 H   0  0  0  0  0  0  0  0  0  0  0  0
   -6.5226    7.2239  -32.8618 H   0  0  0  0  0  0  0  0  0  0  0  0
   -7.1604   10.3605  -28.2090 H   0  0  0  0  0  0  0  0  0  0  0  0
  1  2  1  0  0  0  0
  1  3  2  0  0  0  0
  2  4  2  0  0  0  0
  3  5  1  0  0  0  0
  4  6  1  0  0  0  0
  4 10  1  0  0  0  0
  5  6  2  0  0  0  0
  5 12  1  0  0  0  0
  6 15  1  0  0  0  0
  7  9  1  0  0  0  0
  7 11  2  0  0  0  0
  7 14  1  0  0  0  0
  8 14  1  0  0  0  0
  9 10  1  0  0  0  0
 10 13  1  0  0  0  0
  1 16  1  0  0  0  0
  2 17  1  0  0  0  0
  3 18  1  0  0  0  0
  8 19  1  0  0  0  0
  8 20  1  0  0  0  0
  8 21  1  0  0  0  0
  9 22  1  0  0  0  0
  9 23  1  0  0  0  0
 10 24  1  0  0  0  0
 12 25  1  0  0  0  0
 13 26  1  0  0  0  0
M  END
> <id>
EN300-1904580

> <smiles>
COC(=O)CC(O)C=1C=CC=C(O)C1Br

> <IUPAC Name>
methyl 3-(2-bromo-3-hydroxyphenyl)-3-hydroxypropanoate

> <CAS>
2228507-67-1

> <URL>
https://www.enaminestore.com/catalog/EN300-1904580

> <ROCS_ShapeQuery>
_x1604L0AP1_x0771L0AP1

> <ROCS_TanimotoCombo>
0.963 

> <ROCS_ShapeTanimoto>
0.644 

> <ROCS_ColorTanimoto>
0.319 

> <ROCS_RefTversky>
0.552 

> <ROCS_RefColorTversky>
0.422 

> <ROCS_RefTverskyCombo>
0.975 

> <ROCS_FitTversky>
1.345 

> <ROCS_FitColorTversky>
0.566 

> <ROCS_FitTverskyCombo>
1.912 

> <ROCS_ColorScore>
-4.039

> <ROCS_Overlap>
928.028

> <ROCS_Rank>
293                 

$$$$
untitled-dbase-1160_35
  -OEChem-06052310023D

 30 30  0     0  0  0  0  0  0999 V2000
   -4.2595   12.3066  -31.0186 C   0  0  0  0  0  0  0  0  0  0  0  0
   -4.9379   11.3133  -31.7247 C   0  0  0  0  0  0  0  0  0  0  0  0
   -4.5750   12.5514  -29.6821 C   0  0  0  0  0  0  0  0  0  0  0  0
   -5.9320   10.5649  -31.0945 C   0  0  0  0  0  0  0  0  0  0  0  0
   -6.2476   10.8097  -29.7580 C   0  0  0  0  0  0  0  0  0  0  0  0
   -5.5691   11.8029  -29.0518 C   0  0  0  0  0  0  0  0  0  0  0  0
   -6.4337    8.1129  -31.1922 C   0  0  0  0  0  0  0  0  0  0  0  0
   -8.2025    9.6729  -31.9549 C   0  0  0  0  0  0  0  0  0  0  0  0
   -6.1182    9.3706  -33.3497 C   0  0  0  0  0  0  0  0  0  0  0  0
   -7.0741    8.7344  -34.3602 C   0  0  0  0  0  0  0  0  0  0  0  0
   -6.6689    9.4744  -31.8934 C   0  0  0  0  0  0  0  0  0  0  0  0
   -6.4717    8.6613  -35.6646 N   0  0  0  0  0  0  0  0  0  0  0  0
   -7.2238   10.0702  -29.1557 O   0  0  0  0  0  0  0  0  0  0  0  0
   -5.9680   12.1654  -27.2342 Br  0  0  0  0  0  0  0  0  0  0  0  0
   -3.4851   12.8891  -31.5091 H   0  0  0  0  0  0  0  0  0  0  0  0
   -4.6841   11.1276  -32.7650 H   0  0  0  0  0  0  0  0  0  0  0  0
   -4.0352   13.3292  -29.1479 H   0  0  0  0  0  0  0  0  0  0  0  0
   -6.9410    7.3008  -31.7261 H   0  0  0  0  0  0  0  0  0  0  0  0
   -6.8160    8.1253  -30.1646 H   0  0  0  0  0  0  0  0  0  0  0  0
   -5.3712    7.8506  -31.1435 H   0  0  0  0  0  0  0  0  0  0  0  0
   -8.6866    8.8759  -32.5321 H   0  0  0  0  0  0  0  0  0  0  0  0
   -8.4572   10.6220  -32.4416 H   0  0  0  0  0  0  0  0  0  0  0  0
   -8.6602    9.6844  -30.9601 H   0  0  0  0  0  0  0  0  0  0  0  0
   -5.1860    8.7878  -33.3410 H   0  0  0  0  0  0  0  0  0  0  0  0
   -5.8271   10.3631  -33.7187 H   0  0  0  0  0  0  0  0  0  0  0  0
   -7.3378    7.7120  -34.0767 H   0  0  0  0  0  0  0  0  0  0  0  0
   -7.9950    9.3144  -34.4672 H   0  0  0  0  0  0  0  0  0  0  0  0
   -7.0072    9.2062  -36.3091 H   0  0  0  0  0  0  0  0  0  0  0  0
   -5.5390    9.0177  -35.6197 H   0  0  0  0  0  0  0  0  0  0  0  0
   -7.3324   10.3501  -28.2341 H   0  0  0  0  0  0  0  0  0  0  0  0
  1  2  1  0  0  0  0
  1  3  2  0  0  0  0
  2  4  2  0  0  0  0
  3  6  1  0  0  0  0
  4  5  1  0  0  0  0
  4 11  1  0  0  0  0
  5  6  2  0  0  0  0
  5 13  1  0  0  0  0
  6 14  1  0  0  0  0
  7 11  1  0  0  0  0
  8 11  1  0  0  0  0
  9 10  1  0  0  0  0
  9 11  1  0  0  0  0
 10 12  1  0  0  0  0
  1 15  1  0  0  0  0
  2 16  1  0  0  0  0
  3 17  1  0  0  0  0
  7 18  1  0  0  0  0
  7 19  1  0  0  0  0
  7 20  1  0  0  0  0
  8 21  1  0  0  0  0
  8 22  1  0  0  0  0
  8 23  1  0  0  0  0
  9 24  1  0  0  0  0
  9 25  1  0  0  0  0
 10 26  1  0  0  0  0
 10 27  1  0  0  0  0
 12 28  1  0  0  0  0
 12 29  1  0  0  0  0
 13 30  1  0  0  0  0
M  END
> <id>
EN300-1923107

> <smiles>
CC(C)(CCN)C=1C=CC=C(Br)C1O

> <IUPAC Name>
2-(4-amino-2-methylbutan-2-yl)-6-bromophenol

> <CAS>
2228338-87-0

> <URL>
https://www.enaminestore.com/catalog/EN300-1923107

> <ROCS_ShapeQuery>
_x1604L0AP1_x0771L0AP1

> <ROCS_TanimotoCombo>
0.963 

> <ROCS_ShapeTanimoto>
0.560 

> <ROCS_ColorTanimoto>
0.403 

> <ROCS_RefTversky>
0.495 

> <ROCS_RefColorTversky>
0.502 

> <ROCS_RefTverskyCombo>
0.997 

> <ROCS_FitTversky>
1.303 

> <ROCS_FitColorTversky>
0.672 

> <ROCS_FitTverskyCombo>
1.976 

> <ROCS_ColorScore>
-4.798

> <ROCS_Overlap>
830.383

> <ROCS_Rank>
294                 

$$$$
untitled-dbase-1522_95
  -OEChem-06052310023D

 22 22  0     0  0  0  0  0  0999 V2000
   -4.5542   12.4425  -29.8351 C   0  0  0  0  0  0  0  0  0  0  0  0
   -5.0381   11.1087  -31.7905 C   0  0  0  0  0  0  0  0  0  0  0  0
   -4.3006   12.1152  -31.1671 C   0  0  0  0  0  0  0  0  0  0  0  0
   -5.5452   11.7632  -29.1265 C   0  0  0  0  0  0  0  0  0  0  0  0
   -6.2828   10.7567  -29.7500 C   0  0  0  0  0  0  0  0  0  0  0  0
   -6.0292   10.4294  -31.0820 C   0  0  0  0  0  0  0  0  0  0  0  0
   -3.0312   14.2702  -31.4712 C   0  0  0  0  0  0  0  0  0  0  0  0
   -5.0375   11.3923  -26.8330 C   0  0  0  0  0  0  0  0  0  0  0  0
   -3.2416   12.8423  -31.9246 C   0  0  0  0  0  0  0  0  0  0  0  0
   -3.6930   14.8295  -30.6032 O   0  0  0  0  0  0  0  0  0  0  0  0
   -7.2486   10.1044  -29.0405 O   0  0  0  0  0  0  0  0  0  0  0  0
   -5.7817   12.0946  -27.8264 O   0  0  0  0  0  0  0  0  0  0  0  0
   -7.0108    9.0677  -31.9631 Br  0  0  0  0  0  0  0  0  0  0  0  0
   -3.9808   13.2270  -29.3470 H   0  0  0  0  0  0  0  0  0  0  0  0
   -4.8333   10.8609  -32.8298 H   0  0  0  0  0  0  0  0  0  0  0  0
   -2.2158   14.8109  -31.9823 H   0  0  0  0  0  0  0  0  0  0  0  0
   -5.3217   11.7524  -25.8412 H   0  0  0  0  0  0  0  0  0  0  0  0
   -3.9686   11.5506  -26.9973 H   0  0  0  0  0  0  0  0  0  0  0  0
   -5.2617   10.3256  -26.9088 H   0  0  0  0  0  0  0  0  0  0  0  0
   -3.4798   12.8706  -32.9985 H   0  0  0  0  0  0  0  0  0  0  0  0
   -2.2745   12.3245  -31.8376 H   0  0  0  0  0  0  0  0  0  0  0  0
   -7.2925   10.4547  -28.1377 H   0  0  0  0  0  0  0  0  0  0  0  0
  1  3  1  0  0  0  0
  1  4  2  0  0  0  0
  2  3  2  0  0  0  0
  2  6  1  0  0  0  0
  3  9  1  0  0  0  0
  4  5  1  0  0  0  0
  4 12  1  0  0  0  0
  5  6  2  0  0  0  0
  5 11  1  0  0  0  0
  6 13  1  0  0  0  0
  7  9  1  0  0  0  0
  7 10  2  0  0  0  0
  8 12  1  0  0  0  0
  1 14  1  0  0  0  0
  2 15  1  0  0  0  0
  7 16  1  0  0  0  0
  8 17  1  0  0  0  0
  8 18  1  0  0  0  0
  8 19  1  0  0  0  0
  9 20  1  0  0  0  0
  9 21  1  0  0  0  0
 11 22  1  0  0  0  0
M  END
> <id>
EN300-1914051

> <smiles>
COC=1C=C(CC=O)C=C(Br)C1O

> <MDLNUMBER>
MFCD20432288

> <IUPAC Name>
2-(3-bromo-4-hydroxy-5-methoxyphenyl)acetaldehyde

> <CAS>
1343859-47-1

> <URL>
https://www.enaminestore.com/catalog/EN300-1914051

> <ROCS_ShapeQuery>
_x1604L0AP1_x0771L0AP1

> <ROCS_TanimotoCombo>
0.963 

> <ROCS_ShapeTanimoto>
0.512 

> <ROCS_ColorTanimoto>
0.451 

> <ROCS_RefTversky>
0.461 

> <ROCS_RefColorTversky>
0.513 

> <ROCS_RefTverskyCombo>
0.974 

> <ROCS_FitTversky>
1.271 

> <ROCS_FitColorTversky>
0.789 

> <ROCS_FitTverskyCombo>
2.060 

> <ROCS_ColorScore>
-4.881

> <ROCS_Overlap>
773.076

> <ROCS_Rank>
295                 

$$$$
untitled-dbase-975_20
  -OEChem-06052310023D

 27 27  0     1  0  0  0  0  0999 V2000
   -6.2497   10.8216  -33.1294 C   0  0  0  0  0  0  0  0  0  0  0  0
   -5.9876   11.8031  -32.1737 C   0  0  0  0  0  0  0  0  0  0  0  0
   -6.8304    9.6125  -32.7463 C   0  0  0  0  0  0  0  0  0  0  0  0
   -6.3059   11.5756  -30.8348 C   0  0  0  0  0  0  0  0  0  0  0  0
   -6.8866   10.3666  -30.4517 C   0  0  0  0  0  0  0  0  0  0  0  0
   -7.1487    9.3850  -31.4074 C   0  0  0  0  0  0  0  0  0  0  0  0
   -4.8326    8.2502  -34.9087 C   0  0  0  0  0  0  0  0  0  0  0  0
   -4.7644   12.5106  -29.2840 C   0  0  0  0  0  0  0  0  0  0  0  0
   -7.0920    8.5943  -33.8093 C   0  0  0  0  0  0  0  0  0  0  0  0
   -5.9061    7.6361  -34.0191 C   0  0  1  0  0  0  0  0  0  0  0  0
   -7.1891   10.1678  -29.1358 O   0  0  0  0  0  0  0  0  0  0  0  0
   -6.3627    6.4313  -34.6314 O   0  0  0  0  0  0  0  0  0  0  0  0
   -6.0438   12.5441  -29.9131 O   0  0  0  0  0  0  0  0  0  0  0  0
   -7.9496    7.7417  -30.8773 Br  0  0  0  0  0  0  0  0  0  0  0  0
   -5.9980   11.0095  -34.1699 H   0  0  0  0  0  0  0  0  0  0  0  0
   -5.5362   12.7432  -32.4792 H   0  0  0  0  0  0  0  0  0  0  0  0
   -5.2443    8.5357  -35.8830 H   0  0  0  0  0  0  0  0  0  0  0  0
   -4.3893    9.1354  -34.4427 H   0  0  0  0  0  0  0  0  0  0  0  0
   -4.0371    7.5229  -35.1041 H   0  0  0  0  0  0  0  0  0  0  0  0
   -4.6856   13.3363  -28.5725 H   0  0  0  0  0  0  0  0  0  0  0  0
   -3.9820   12.5935  -30.0427 H   0  0  0  0  0  0  0  0  0  0  0  0
   -4.6545   11.5626  -28.7522 H   0  0  0  0  0  0  0  0  0  0  0  0
   -7.9966    8.0158  -33.5574 H   0  0  0  0  0  0  0  0  0  0  0  0
   -7.3223    9.1102  -34.7560 H   0  0  0  0  0  0  0  0  0  0  0  0
   -5.4583    7.3642  -33.0569 H   0  0  0  0  0  0  0  0  0  0  0  0
   -6.9415   10.9475  -28.6161 H   0  0  0  0  0  0  0  0  0  0  0  0
   -7.0421    6.0651  -34.0448 H   0  0  0  0  0  0  0  0  0  0  0  0
  1  2  1  0  0  0  0
  1  3  2  0  0  0  0
  2  4  2  0  0  0  0
  3  6  1  0  0  0  0
  3  9  1  0  0  0  0
  4  5  1  0  0  0  0
  4 13  1  0  0  0  0
  5  6  2  0  0  0  0
  5 11  1  0  0  0  0
  6 14  1  0  0  0  0
  7 10  1  6  0  0  0
  8 13  1  0  0  0  0
  9 10  1  0  0  0  0
 10 12  1  0  0  0  0
  1 15  1  0  0  0  0
  2 16  1  0  0  0  0
  7 17  1  0  0  0  0
  7 18  1  0  0  0  0
  7 19  1  0  0  0  0
  8 20  1  0  0  0  0
  8 21  1  0  0  0  0
  8 22  1  0  0  0  0
  9 23  1  0  0  0  0
  9 24  1  0  0  0  0
 10 25  1  0  0  0  0
 11 26  1  0  0  0  0
 12 27  1  0  0  0  0
M  END
> <id>
EN300-1935917

> <smiles>
COC=1C=CC(C[C@H](C)O)=C(Br)C1O

> <IUPAC Name>
2-bromo-3-[(2S)-2-hydroxypropyl]-6-methoxyphenol

> <CAS>
2227869-69-2

> <URL>
https://www.enaminestore.com/catalog/EN300-1935917

> <ROCS_ShapeQuery>
_x1604L0AP1_x0771L0AP1

> <ROCS_TanimotoCombo>
0.963 

> <ROCS_ShapeTanimoto>
0.497 

> <ROCS_ColorTanimoto>
0.466 

> <ROCS_RefTversky>
0.459 

> <ROCS_RefColorTversky>
0.555 

> <ROCS_RefTverskyCombo>
1.014 

> <ROCS_FitTversky>
1.196 

> <ROCS_FitColorTversky>
0.744 

> <ROCS_FitTverskyCombo>
1.940 

> <ROCS_ColorScore>
-5.309

> <ROCS_Overlap>
770.432

> <ROCS_Rank>
296                 

$$$$
untitled-dbase-1124_20
  -OEChem-06052310023D

 27 27  0     1  0  0  0  0  0999 V2000
   -6.2497   10.8216  -33.1294 C   0  0  0  0  0  0  0  0  0  0  0  0
   -5.9876   11.8031  -32.1737 C   0  0  0  0  0  0  0  0  0  0  0  0
   -6.8304    9.6125  -32.7463 C   0  0  0  0  0  0  0  0  0  0  0  0
   -6.3059   11.5756  -30.8348 C   0  0  0  0  0  0  0  0  0  0  0  0
   -6.8866   10.3666  -30.4517 C   0  0  0  0  0  0  0  0  0  0  0  0
   -7.1487    9.3850  -31.4074 C   0  0  0  0  0  0  0  0  0  0  0  0
   -4.8326    8.2502  -34.9087 C   0  0  0  0  0  0  0  0  0  0  0  0
   -4.7644   12.5106  -29.2840 C   0  0  0  0  0  0  0  0  0  0  0  0
   -7.0920    8.5943  -33.8093 C   0  0  0  0  0  0  0  0  0  0  0  0
   -5.9061    7.6361  -34.0191 C   0  0  1  0  0  0  0  0  0  0  0  0
   -7.1891   10.1678  -29.1358 O   0  0  0  0  0  0  0  0  0  0  0  0
   -6.3627    6.4313  -34.6314 O   0  0  0  0  0  0  0  0  0  0  0  0
   -6.0438   12.5441  -29.9131 O   0  0  0  0  0  0  0  0  0  0  0  0
   -7.9496    7.7417  -30.8773 Br  0  0  0  0  0  0  0  0  0  0  0  0
   -5.9980   11.0095  -34.1699 H   0  0  0  0  0  0  0  0  0  0  0  0
   -5.5362   12.7432  -32.4792 H   0  0  0  0  0  0  0  0  0  0  0  0
   -5.2443    8.5357  -35.8830 H   0  0  0  0  0  0  0  0  0  0  0  0
   -4.3893    9.1354  -34.4427 H   0  0  0  0  0  0  0  0  0  0  0  0
   -4.0371    7.5229  -35.1041 H   0  0  0  0  0  0  0  0  0  0  0  0
   -4.6856   13.3363  -28.5725 H   0  0  0  0  0  0  0  0  0  0  0  0
   -3.9820   12.5935  -30.0427 H   0  0  0  0  0  0  0  0  0  0  0  0
   -4.6545   11.5626  -28.7522 H   0  0  0  0  0  0  0  0  0  0  0  0
   -7.9966    8.0158  -33.5574 H   0  0  0  0  0  0  0  0  0  0  0  0
   -7.3223    9.1102  -34.7560 H   0  0  0  0  0  0  0  0  0  0  0  0
   -5.4583    7.3642  -33.0569 H   0  0  0  0  0  0  0  0  0  0  0  0
   -6.9415   10.9475  -28.6161 H   0  0  0  0  0  0  0  0  0  0  0  0
   -7.0421    6.0651  -34.0448 H   0  0  0  0  0  0  0  0  0  0  0  0
  1  2  1  0  0  0  0
  1  3  2  0  0  0  0
  2  4  2  0  0  0  0
  3  6  1  0  0  0  0
  3  9  1  0  0  0  0
  4  5  1  0  0  0  0
  4 13  1  0  0  0  0
  5  6  2  0  0  0  0
  5 11  1  0  0  0  0
  6 14  1  0  0  0  0
  7 10  1  0  0  0  0
  8 13  1  0  0  0  0
  9 10  1  0  0  0  0
 10 12  1  0  0  0  0
  1 15  1  0  0  0  0
  2 16  1  0  0  0  0
  7 17  1  0  0  0  0
  7 18  1  0  0  0  0
  7 19  1  0  0  0  0
  8 20  1  0  0  0  0
  8 21  1  0  0  0  0
  8 22  1  0  0  0  0
  9 23  1  0  0  0  0
  9 24  1  0  0  0  0
 10 25  1  0  0  0  0
 11 26  1  0  0  0  0
 12 27  1  0  0  0  0
M  END
> <id>
EN300-1935617

> <smiles>
COC=1C=CC(CC(C)O)=C(Br)C1O

> <IUPAC Name>
2-bromo-3-(2-hydroxypropyl)-6-methoxyphenol

> <CAS>
2229586-79-0

> <URL>
https://www.enaminestore.com/catalog/EN300-1935617

> <ROCS_ShapeQuery>
_x1604L0AP1_x0771L0AP1

> <ROCS_TanimotoCombo>
0.963 

> <ROCS_ShapeTanimoto>
0.497 

> <ROCS_ColorTanimoto>
0.466 

> <ROCS_RefTversky>
0.459 

> <ROCS_RefColorTversky>
0.555 

> <ROCS_RefTverskyCombo>
1.014 

> <ROCS_FitTversky>
1.196 

> <ROCS_FitColorTversky>
0.744 

> <ROCS_FitTverskyCombo>
1.940 

> <ROCS_ColorScore>
-5.309

> <ROCS_Overlap>
770.432

> <ROCS_Rank>
297                 

$$$$
untitled-dbase-2282_14
  -OEChem-06052310023D

 17 17  0     0  0  0  0  0  0999 V2000
   -4.6147   12.4992  -29.8272 C   0  0  0  0  0  0  0  0  0  0  0  0
   -5.5869   11.7913  -29.1206 C   0  0  0  0  0  0  0  0  0  0  0  0
   -5.0710   11.1667  -31.7901 C   0  0  0  0  0  0  0  0  0  0  0  0
   -4.3568   12.1870  -31.1620 C   0  0  0  0  0  0  0  0  0  0  0  0
   -6.3011   10.7710  -29.7487 C   0  0  0  0  0  0  0  0  0  0  0  0
   -6.0431   10.4587  -31.0835 C   0  0  0  0  0  0  0  0  0  0  0  0
   -2.7095   12.2071  -32.8936 C   0  0  0  0  0  0  0  0  0  0  0  0
   -7.2442   10.0982  -29.0302 O   0  0  0  0  0  0  0  0  0  0  0  0
   -3.4081   12.8783  -31.8511 O   0  0  0  0  0  0  0  0  0  0  0  0
   -2.6097   10.8852  -32.6387 F   0  0  0  0  0  0  0  0  0  0  0  0
   -1.4572   12.7115  -32.9738 F   0  0  0  0  0  0  0  0  0  0  0  0
   -3.3126   12.4006  -34.0857 F   0  0  0  0  0  0  0  0  0  0  0  0
   -6.9940    9.0790  -31.9694 Br  0  0  0  0  0  0  0  0  0  0  0  0
   -4.0618   13.2930  -29.3324 H   0  0  0  0  0  0  0  0  0  0  0  0
   -5.7824   12.0400  -28.0810 H   0  0  0  0  0  0  0  0  0  0  0  0
   -4.8609   10.9325  -32.8312 H   0  0  0  0  0  0  0  0  0  0  0  0
   -7.2874   10.4469  -28.1263 H   0  0  0  0  0  0  0  0  0  0  0  0
  1  2  1  0  0  0  0
  1  4  2  0  0  0  0
  2  5  2  0  0  0  0
  3  4  1  0  0  0  0
  3  6  2  0  0  0  0
  4  9  1  0  0  0  0
  5  6  1  0  0  0  0
  5  8  1  0  0  0  0
  6 13  1  0  0  0  0
  7  9  1  0  0  0  0
  7 10  1  0  0  0  0
  7 11  1  0  0  0  0
  7 12  1  0  0  0  0
  1 14  1  0  0  0  0
  2 15  1  0  0  0  0
  3 16  1  0  0  0  0
  8 17  1  0  0  0  0
M  END
> <id>
EN300-125903

> <smiles>
OC=1C=CC(OC(F)(F)F)=CC1Br

> <MDLNUMBER>
MFCD07778431

> <IUPAC Name>
2-bromo-4-(trifluoromethoxy)phenol

> <CAS>
200956-13-4

> <Purity>
95

> <URL>
https://www.enaminestore.com/catalog/EN300-125903

> <ROCS_ShapeQuery>
_x1604L0AP1_x0771L0AP1

> <ROCS_TanimotoCombo>
0.962 

> <ROCS_ShapeTanimoto>
0.466 

> <ROCS_ColorTanimoto>
0.496 

> <ROCS_RefTversky>
0.437 

> <ROCS_RefColorTversky>
0.515 

> <ROCS_RefTverskyCombo>
0.952 

> <ROCS_FitTversky>
1.165 

> <ROCS_FitColorTversky>
0.931 

> <ROCS_FitTverskyCombo>
2.096 

> <ROCS_ColorScore>
-4.876

> <ROCS_Overlap>
732.906

> <ROCS_Rank>
298                 

$$$$
untitled-dbase-1550_77
  -OEChem-06052310023D

 23 23  0     1  0  0  0  0  0999 V2000
   -4.5923   12.4817  -29.8403 C   0  0  0  0  0  0  0  0  0  0  0  0
   -4.3241   12.1534  -31.1691 C   0  0  0  0  0  0  0  0  0  0  0  0
   -5.5748   11.7869  -29.1348 C   0  0  0  0  0  0  0  0  0  0  0  0
   -5.0384   11.1303  -31.7925 C   0  0  0  0  0  0  0  0  0  0  0  0
   -6.2891   10.7638  -29.7582 C   0  0  0  0  0  0  0  0  0  0  0  0
   -6.0209   10.4354  -31.0871 C   0  0  0  0  0  0  0  0  0  0  0  0
   -4.7133   10.8174  -33.2178 C   0  0  0  0  0  0  0  0  0  0  0  0
   -5.5566   11.6334  -34.2129 C   0  0  2  0  0  0  0  0  0  0  0  0
   -6.9254   11.0187  -34.4342 C   0  0  0  0  0  0  0  0  0  0  0  0
   -7.2422   10.1073  -29.0374 O   0  0  0  0  0  0  0  0  0  0  0  0
   -4.8740   11.6744  -35.4648 O   0  0  0  0  0  0  0  0  0  0  0  0
   -7.6233   11.7192  -35.3554 F   0  0  0  0  0  0  0  0  0  0  0  0
   -7.6485   11.0189  -33.2929 F   0  0  0  0  0  0  0  0  0  0  0  0
   -6.8345    9.7431  -34.8664 F   0  0  0  0  0  0  0  0  0  0  0  0
   -7.0016    9.0376  -31.9269 Br  0  0  0  0  0  0  0  0  0  0  0  0
   -4.0364   13.2787  -29.3550 H   0  0  0  0  0  0  0  0  0  0  0  0
   -3.5565   12.7015  -31.7094 H   0  0  0  0  0  0  0  0  0  0  0  0
   -5.7784   12.0489  -28.0999 H   0  0  0  0  0  0  0  0  0  0  0  0
   -4.8676    9.7403  -33.3943 H   0  0  0  0  0  0  0  0  0  0  0  0
   -3.6419   11.0007  -33.4051 H   0  0  0  0  0  0  0  0  0  0  0  0
   -5.6735   12.6643  -33.8596 H   0  0  0  0  0  0  0  0  0  0  0  0
   -7.6620    9.4243  -29.5828 H   0  0  0  0  0  0  0  0  0  0  0  0
   -5.4309   12.1938  -36.0647 H   0  0  0  0  0  0  0  0  0  0  0  0
  1  2  1  0  0  0  0
  1  3  2  0  0  0  0
  2  4  2  0  0  0  0
  3  5  1  0  0  0  0
  4  6  1  0  0  0  0
  4  7  1  0  0  0  0
  5  6  2  0  0  0  0
  5 10  1  0  0  0  0
  6 15  1  0  0  0  0
  7  8  1  0  0  0  0
  8  9  1  0  0  0  0
  8 11  1  0  0  0  0
  9 12  1  0  0  0  0
  9 13  1  0  0  0  0
  9 14  1  0  0  0  0
  1 16  1  0  0  0  0
  2 17  1  0  0  0  0
  3 18  1  0  0  0  0
  7 19  1  0  0  0  0
  7 20  1  0  0  0  0
  8 21  1  0  0  0  0
 10 22  1  0  0  0  0
 11 23  1  0  0  0  0
M  END
> <id>
EN300-1950767

> <smiles>
OC(CC=1C=CC=C(O)C1Br)C(F)(F)F

> <IUPAC Name>
2-bromo-3-(3,3,3-trifluoro-2-hydroxypropyl)phenol

> <CAS>
2228693-39-6

> <URL>
https://www.enaminestore.com/catalog/EN300-1950767

> <ROCS_ShapeQuery>
_x1604L0AP1_x0771L0AP1

> <ROCS_TanimotoCombo>
0.962 

> <ROCS_ShapeTanimoto>
0.511 

> <ROCS_ColorTanimoto>
0.451 

> <ROCS_RefTversky>
0.479 

> <ROCS_RefColorTversky>
0.513 

> <ROCS_RefTverskyCombo>
0.992 

> <ROCS_FitTversky>
1.148 

> <ROCS_FitColorTversky>
0.789 

> <ROCS_FitTverskyCombo>
1.938 

> <ROCS_ColorScore>
-4.883

> <ROCS_Overlap>
804.981

> <ROCS_Rank>
299                 

$$$$
untitled-dbase-527_1
  -OEChem-06052310023D

 25 26  0     1  0  0  0  0  0999 V2000
   -4.3128   12.2369  -31.1376 C   0  0  0  0  0  0  0  0  0  0  0  0
   -5.0922   11.3113  -31.8314 C   0  0  0  0  0  0  0  0  0  0  0  0
   -4.5094   12.4284  -29.7699 C   0  0  0  0  0  0  0  0  0  0  0  0
   -6.0683   10.5772  -31.1576 C   0  0  0  0  0  0  0  0  0  0  0  0
   -6.2650   10.7687  -29.7899 C   0  0  0  0  0  0  0  0  0  0  0  0
   -5.4855   11.6943  -29.0961 C   0  0  0  0  0  0  0  0  0  0  0  0
   -6.9507    8.1632  -31.4383 C   0  0  0  0  0  0  0  0  0  0  0  0
   -6.8921    9.5921  -31.9185 C   0  0  2  0  0  0  0  0  0  0  0  0
   -6.1931    8.4978  -32.6886 C   0  0  2  0  0  0  0  0  0  0  0  0
   -6.7174    8.0736  -34.0173 C   0  0  0  0  0  0  0  0  0  0  0  0
   -6.4126    6.6938  -34.2793 N   0  0  0  0  0  0  0  0  0  0  0  0
   -7.2250   10.0452  -29.1434 O   0  0  0  0  0  0  0  0  0  0  0  0
   -5.7231   11.9849  -27.2378 Br  0  0  0  0  0  0  0  0  0  0  0  0
   -3.5537   12.8101  -31.6618 H   0  0  0  0  0  0  0  0  0  0  0  0
   -4.9311   11.1708  -32.8970 H   0  0  0  0  0  0  0  0  0  0  0  0
   -3.8936   13.1553  -29.2461 H   0  0  0  0  0  0  0  0  0  0  0  0
   -6.3763    7.8763  -30.5651 H   0  0  0  0  0  0  0  0  0  0  0  0
   -7.8996    7.6475  -31.5289 H   0  0  0  0  0  0  0  0  0  0  0  0
   -7.8036    9.9925  -32.3433 H   0  0  0  0  0  0  0  0  0  0  0  0
   -5.1115    8.4382  -32.6479 H   0  0  0  0  0  0  0  0  0  0  0  0
   -7.8092    8.2088  -34.0332 H   0  0  0  0  0  0  0  0  0  0  0  0
   -6.2599    8.6967  -34.8003 H   0  0  0  0  0  0  0  0  0  0  0  0
   -6.8338    6.1196  -33.5772 H   0  0  0  0  0  0  0  0  0  0  0  0
   -6.7704    6.4381  -35.1775 H   0  0  0  0  0  0  0  0  0  0  0  0
   -7.2454   10.2843  -28.2044 H   0  0  0  0  0  0  0  0  0  0  0  0
  1  2  1  0  0  0  0
  1  3  2  0  0  0  0
  2  4  2  0  0  0  0
  3  6  1  0  0  0  0
  4  5  1  0  0  0  0
  4  8  1  0  0  0  0
  5  6  2  0  0  0  0
  5 12  1  0  0  0  0
  6 13  1  0  0  0  0
  7  8  1  0  0  0  0
  7  9  1  0  0  0  0
  8  9  1  0  0  0  0
  9 10  1  0  0  0  0
 10 11  1  0  0  0  0
  1 14  1  0  0  0  0
  2 15  1  0  0  0  0
  3 16  1  0  0  0  0
  7 17  1  0  0  0  0
  7 18  1  0  0  0  0
  8 19  1  0  0  0  0
  9 20  1  0  0  0  0
 10 21  1  0  0  0  0
 10 22  1  0  0  0  0
 11 23  1  0  0  0  0
 11 24  1  0  0  0  0
 12 25  1  0  0  0  0
M  END
> <id>
EN300-1923405

> <smiles>
NCC1CC1C=2C=CC=C(Br)C2O

> <IUPAC Name>
2-[2-(aminomethyl)cyclopropyl]-6-bromophenol

> <CAS>
2228879-65-8

> <URL>
https://www.enaminestore.com/catalog/EN300-1923405

> <ROCS_ShapeQuery>
_x1604L0AP1_x0771L0AP1

> <ROCS_TanimotoCombo>
0.962 

> <ROCS_ShapeTanimoto>
0.526 

> <ROCS_ColorTanimoto>
0.436 

> <ROCS_RefTversky>
0.470 

> <ROCS_RefColorTversky>
0.501 

> <ROCS_RefTverskyCombo>
0.971 

> <ROCS_FitTversky>
1.292 

> <ROCS_FitColorTversky>
0.770 

> <ROCS_FitTverskyCombo>
2.062 

> <ROCS_ColorScore>
-4.765

> <ROCS_Overlap>
787.810

> <ROCS_Rank>
300                 

$$$$
untitled-dbase-1270_1
  -OEChem-06052310023D

 25 26  0     1  0  0  0  0  0999 V2000
   -4.3128   12.2364  -31.1377 C   0  0  0  0  0  0  0  0  0  0  0  0
   -5.0923   11.3108  -31.8314 C   0  0  0  0  0  0  0  0  0  0  0  0
   -4.5093   12.4280  -29.7701 C   0  0  0  0  0  0  0  0  0  0  0  0
   -6.0684   10.5768  -31.1575 C   0  0  0  0  0  0  0  0  0  0  0  0
   -6.2650   10.7685  -29.7899 C   0  0  0  0  0  0  0  0  0  0  0  0
   -5.4855   11.6941  -29.0962 C   0  0  0  0  0  0  0  0  0  0  0  0
   -6.9503    8.1630  -31.4381 C   0  0  0  0  0  0  0  0  0  0  0  0
   -6.8924    9.5918  -31.9182 C   0  0  2  0  0  0  0  0  0  0  0  0
   -6.1934    8.4978  -32.6888 C   0  0  2  0  0  0  0  0  0  0  0  0
   -6.7179    8.0733  -34.0172 C   0  0  0  0  0  0  0  0  0  0  0  0
   -6.4126    6.6936  -34.2793 N   0  0  0  0  0  0  0  0  0  0  0  0
   -7.2251   10.0452  -29.1432 O   0  0  0  0  0  0  0  0  0  0  0  0
   -5.7230   11.9850  -27.2379 Br  0  0  0  0  0  0  0  0  0  0  0  0
   -3.5536   12.8094  -31.6620 H   0  0  0  0  0  0  0  0  0  0  0  0
   -4.9312   11.1701  -32.8970 H   0  0  0  0  0  0  0  0  0  0  0  0
   -3.8934   13.1549  -29.2464 H   0  0  0  0  0  0  0  0  0  0  0  0
   -6.3756    7.8763  -30.5650 H   0  0  0  0  0  0  0  0  0  0  0  0
   -7.8987    7.6465  -31.5293 H   0  0  0  0  0  0  0  0  0  0  0  0
   -7.8036    9.9925  -32.3429 H   0  0  0  0  0  0  0  0  0  0  0  0
   -5.1118    8.4370  -32.6483 H   0  0  0  0  0  0  0  0  0  0  0  0
   -7.8098    8.2080  -34.0328 H   0  0  0  0  0  0  0  0  0  0  0  0
   -6.2611    8.6966  -34.8004 H   0  0  0  0  0  0  0  0  0  0  0  0
   -6.8333    6.1193  -33.5770 H   0  0  0  0  0  0  0  0  0  0  0  0
   -6.7706    6.4378  -35.1773 H   0  0  0  0  0  0  0  0  0  0  0  0
   -7.2455   10.2844  -28.2042 H   0  0  0  0  0  0  0  0  0  0  0  0
  1  2  1  0  0  0  0
  1  3  2  0  0  0  0
  2  4  2  0  0  0  0
  3  6  1  0  0  0  0
  4  5  1  0  0  0  0
  4  8  1  1  0  0  0
  5  6  2  0  0  0  0
  5 12  1  0  0  0  0
  6 13  1  0  0  0  0
  7  8  1  0  0  0  0
  7  9  1  0  0  0  0
  8  9  1  0  0  0  0
  9 10  1  6  0  0  0
 10 11  1  0  0  0  0
  1 14  1  0  0  0  0
  2 15  1  0  0  0  0
  3 16  1  0  0  0  0
  7 17  1  0  0  0  0
  7 18  1  0  0  0  0
  8 19  1  0  0  0  0
  9 20  1  0  0  0  0
 10 21  1  0  0  0  0
 10 22  1  0  0  0  0
 11 23  1  0  0  0  0
 11 24  1  0  0  0  0
 12 25  1  0  0  0  0
M  END
> <id>
EN300-1923160

> <smiles>
NC[C@@H]1C[C@H]1C=2C=CC=C(Br)C2O |&1:2,4,r|

> <IUPAC Name>
rac-2-[(1R,2R)-2-(aminomethyl)cyclopropyl]-6-bromophenol

> <CAS>
2227893-46-9

> <URL>
https://www.enaminestore.com/catalog/EN300-1923160

> <ROCS_ShapeQuery>
_x1604L0AP1_x0771L0AP1

> <ROCS_TanimotoCombo>
0.962 

> <ROCS_ShapeTanimoto>
0.526 

> <ROCS_ColorTanimoto>
0.436 

> <ROCS_RefTversky>
0.470 

> <ROCS_RefColorTversky>
0.501 

> <ROCS_RefTverskyCombo>
0.971 

> <ROCS_FitTversky>
1.292 

> <ROCS_FitColorTversky>
0.770 

> <ROCS_FitTverskyCombo>
2.062 

> <ROCS_ColorScore>
-4.765

> <ROCS_Overlap>
787.784

> <ROCS_Rank>
301                 

$$$$
untitled-dbase-1738_14
  -OEChem-06052310023D

 25 25  0     0  0  0  0  0  0999 V2000
   -4.3563   12.1569  -31.2219 C   0  0  0  0  0  0  0  0  0  0  0  0
   -4.6005   12.4892  -29.8894 C   0  0  0  0  0  0  0  0  0  0  0  0
   -5.0798   11.1301  -31.8285 C   0  0  0  0  0  0  0  0  0  0  0  0
   -5.5681   11.7947  -29.1634 C   0  0  0  0  0  0  0  0  0  0  0  0
   -6.2916   10.7678  -29.7700 C   0  0  0  0  0  0  0  0  0  0  0  0
   -6.0474   10.4355  -31.1025 C   0  0  0  0  0  0  0  0  0  0  0  0
   -5.9830   10.9485  -34.1810 C   0  0  0  0  0  0  0  0  0  0  0  0
   -6.0361   10.0045  -35.3545 C   0  0  0  0  0  0  0  0  0  0  0  0
   -5.0112   13.1924  -27.3217 C   0  0  0  0  0  0  0  0  0  0  0  0
   -4.7808   10.8142  -33.2588 C   0  0  0  0  0  0  0  0  0  0  0  0
   -6.8743   11.7763  -33.9961 O   0  0  0  0  0  0  0  0  0  0  0  0
   -7.2331   10.1033  -29.0390 O   0  0  0  0  0  0  0  0  0  0  0  0
   -5.7951   12.1310  -27.8628 O   0  0  0  0  0  0  0  0  0  0  0  0
   -7.0456    9.0391  -31.9251 Br  0  0  0  0  0  0  0  0  0  0  0  0
   -3.6004   12.7049  -31.7783 H   0  0  0  0  0  0  0  0  0  0  0  0
   -4.0341   13.2910  -29.4234 H   0  0  0  0  0  0  0  0  0  0  0  0
   -6.5645    9.0907  -35.0694 H   0  0  0  0  0  0  0  0  0  0  0  0
   -6.5709   10.4783  -36.1813 H   0  0  0  0  0  0  0  0  0  0  0  0
   -5.0203    9.7440  -35.6617 H   0  0  0  0  0  0  0  0  0  0  0  0
   -5.2919   13.3586  -26.2788 H   0  0  0  0  0  0  0  0  0  0  0  0
   -5.1766   14.1023  -27.9041 H   0  0  0  0  0  0  0  0  0  0  0  0
   -3.9553   12.9163  -27.3729 H   0  0  0  0  0  0  0  0  0  0  0  0
   -3.9896   11.4788  -33.6363 H   0  0  0  0  0  0  0  0  0  0  0  0
   -4.3995    9.7862  -33.3487 H   0  0  0  0  0  0  0  0  0  0  0  0
   -7.2701   10.4621  -28.1393 H   0  0  0  0  0  0  0  0  0  0  0  0
  1  2  1  0  0  0  0
  1  3  2  0  0  0  0
  2  4  2  0  0  0  0
  3  6  1  0  0  0  0
  3 10  1  0  0  0  0
  4  5  1  0  0  0  0
  4 13  1  0  0  0  0
  5  6  2  0  0  0  0
  5 12  1  0  0  0  0
  6 14  1  0  0  0  0
  7  8  1  0  0  0  0
  7 10  1  0  0  0  0
  7 11  2  0  0  0  0
  9 13  1  0  0  0  0
  1 15  1  0  0  0  0
  2 16  1  0  0  0  0
  8 17  1  0  0  0  0
  8 18  1  0  0  0  0
  8 19  1  0  0  0  0
  9 20  1  0  0  0  0
  9 21  1  0  0  0  0
  9 22  1  0  0  0  0
 10 23  1  0  0  0  0
 10 24  1  0  0  0  0
 12 25  1  0  0  0  0
M  END
> <id>
EN300-1893165

> <smiles>
COC=1C=CC(CC(=O)C)=C(Br)C1O

> <MDLNUMBER>
MFCD07783673

> <IUPAC Name>
1-(2-bromo-3-hydroxy-4-methoxyphenyl)propan-2-one

> <CAS>
1379312-63-6

> <URL>
https://www.enaminestore.com/catalog/EN300-1893165

> <ROCS_ShapeQuery>
_x1604L0AP1_x0771L0AP1

> <ROCS_TanimotoCombo>
0.962 

> <ROCS_ShapeTanimoto>
0.510 

> <ROCS_ColorTanimoto>
0.451 

> <ROCS_RefTversky>
0.469 

> <ROCS_RefColorTversky>
0.513 

> <ROCS_RefTverskyCombo>
0.982 

> <ROCS_FitTversky>
1.210 

> <ROCS_FitColorTversky>
0.789 

> <ROCS_FitTverskyCombo>
1.999 

> <ROCS_ColorScore>
-4.883

> <ROCS_Overlap>
786.526

> <ROCS_Rank>
302                 

$$$$
untitled-dbase-2146_240
  -OEChem-06052310023D

 24 24  0     1  0  0  0  0  0999 V2000
   -4.5843   12.4748  -29.8345 C   0  0  0  0  0  0  0  0  0  0  0  0
   -4.3187   12.1525  -31.1653 C   0  0  0  0  0  0  0  0  0  0  0  0
   -5.5677   11.7790  -29.1311 C   0  0  0  0  0  0  0  0  0  0  0  0
   -5.0365   11.1343  -31.7929 C   0  0  0  0  0  0  0  0  0  0  0  0
   -6.2854   10.7609  -29.7588 C   0  0  0  0  0  0  0  0  0  0  0  0
   -6.0199   10.4385  -31.0896 C   0  0  0  0  0  0  0  0  0  0  0  0
   -4.7109   10.8248  -33.2342 C   0  0  0  0  0  0  0  0  0  0  0  0
   -5.5363   11.6316  -34.2553 C   0  0  1  0  0  0  0  0  0  0  0  0
   -7.0424   11.4238  -34.1146 C   0  0  0  0  0  0  0  0  0  0  0  0
   -5.2447   13.0554  -34.0672 N   0  0  0  0  0  0  0  0  0  0  0  0
   -7.2393   10.1033  -29.0399 O   0  0  0  0  0  0  0  0  0  0  0  0
   -7.4567   11.7681  -32.8700 F   0  0  0  0  0  0  0  0  0  0  0  0
   -7.3550   10.1151  -34.2843 F   0  0  0  0  0  0  0  0  0  0  0  0
   -7.0053    9.0474  -31.9351 Br  0  0  0  0  0  0  0  0  0  0  0  0
   -4.0258   13.2679  -29.3459 H   0  0  0  0  0  0  0  0  0  0  0  0
   -3.5504   12.7013  -31.7039 H   0  0  0  0  0  0  0  0  0  0  0  0
   -5.7692   12.0363  -28.0947 H   0  0  0  0  0  0  0  0  0  0  0  0
   -3.6378   10.9758  -33.4133 H   0  0  0  0  0  0  0  0  0  0  0  0
   -4.8822    9.7491  -33.3820 H   0  0  0  0  0  0  0  0  0  0  0  0
   -5.2399   11.3483  -35.2722 H   0  0  0  0  0  0  0  0  0  0  0  0
   -7.6156   12.0025  -34.8457 H   0  0  0  0  0  0  0  0  0  0  0  0
   -4.2716   13.1879  -34.1989 H   0  0  0  0  0  0  0  0  0  0  0  0
   -5.7660   13.5647  -34.7387 H   0  0  0  0  0  0  0  0  0  0  0  0
   -7.6616    9.4241  -29.5882 H   0  0  0  0  0  0  0  0  0  0  0  0
  1  2  1  0  0  0  0
  1  3  2  0  0  0  0
  2  4  2  0  0  0  0
  3  5  1  0  0  0  0
  4  6  1  0  0  0  0
  4  7  1  0  0  0  0
  5  6  2  0  0  0  0
  5 11  1  0  0  0  0
  6 14  1  0  0  0  0
  7  8  1  0  0  0  0
  8  9  1  0  0  0  0
  8 10  1  0  0  0  0
  9 12  1  0  0  0  0
  9 13  1  0  0  0  0
  1 15  1  0  0  0  0
  2 16  1  0  0  0  0
  3 17  1  0  0  0  0
  7 18  1  0  0  0  0
  7 19  1  0  0  0  0
  8 20  1  0  0  0  0
  9 21  1  0  0  0  0
 10 22  1  0  0  0  0
 10 23  1  0  0  0  0
 11 24  1  0  0  0  0
M  END
> <id>
EN300-1950769

> <smiles>
NC(CC=1C=CC=C(O)C1Br)C(F)F

> <IUPAC Name>
3-(2-amino-3,3-difluoropropyl)-2-bromophenol

> <CAS>
2229081-55-2

> <URL>
https://www.enaminestore.com/catalog/EN300-1950769

> <ROCS_ShapeQuery>
_x1604L0AP1_x0771L0AP1

> <ROCS_TanimotoCombo>
0.961 

> <ROCS_ShapeTanimoto>
0.510 

> <ROCS_ColorTanimoto>
0.451 

> <ROCS_RefTversky>
0.468 

> <ROCS_RefColorTversky>
0.513 

> <ROCS_RefTverskyCombo>
0.981 

> <ROCS_FitTversky>
1.214 

> <ROCS_FitColorTversky>
0.790 

> <ROCS_FitTverskyCombo>
2.003 

> <ROCS_ColorScore>
-4.884

> <ROCS_Overlap>
784.516

> <ROCS_Rank>
303                 

$$$$
untitled-dbase-458_147
  -OEChem-06052310023D

 29 29  0     1  0  0  0  0  0999 V2000
   -4.3482   12.1692  -31.1938 C   0  0  0  0  0  0  0  0  0  0  0  0
   -4.6051   12.4974  -29.8627 C   0  0  0  0  0  0  0  0  0  0  0  0
   -5.0633   11.1418  -31.8094 C   0  0  0  0  0  0  0  0  0  0  0  0
   -5.5770   11.7982  -29.1470 C   0  0  0  0  0  0  0  0  0  0  0  0
   -6.2921   10.7708  -29.7626 C   0  0  0  0  0  0  0  0  0  0  0  0
   -6.0353   10.4427  -31.0937 C   0  0  0  0  0  0  0  0  0  0  0  0
   -3.2665   11.0762  -33.5695 C   0  0  0  0  0  0  0  0  0  0  0  0
   -5.0404   13.1927  -27.2969 C   0  0  0  0  0  0  0  0  0  0  0  0
   -5.6412   11.6094  -34.2308 C   0  0  0  0  0  0  0  0  0  0  0  0
   -4.7508   10.8305  -33.2378 C   0  0  2  0  0  0  0  0  0  0  0  0
   -6.7047    9.8302  -35.2700 N   0  0  0  0  0  0  0  0  0  0  0  0
   -7.2382   10.1017  -29.0416 O   0  0  0  0  0  0  0  0  0  0  0  0
   -5.8165   12.1305  -27.8476 O   0  0  0  0  0  0  0  0  0  0  0  0
   -6.8939   10.9456  -34.3568 O   0  0  0  0  0  0  0  0  0  0  0  0
   -7.0221    9.0455  -31.9286 Br  0  0  0  0  0  0  0  0  0  0  0  0
   -3.5890   12.7208  -31.7421 H   0  0  0  0  0  0  0  0  0  0  0  0
   -4.0451   13.2995  -29.3896 H   0  0  0  0  0  0  0  0  0  0  0  0
   -2.9890   12.1239  -33.4104 H   0  0  0  0  0  0  0  0  0  0  0  0
   -2.6070   10.4605  -32.9484 H   0  0  0  0  0  0  0  0  0  0  0  0
   -3.0626   10.8320  -34.6181 H   0  0  0  0  0  0  0  0  0  0  0  0
   -5.3308   13.3555  -26.2561 H   0  0  0  0  0  0  0  0  0  0  0  0
   -5.2033   14.1036  -27.8784 H   0  0  0  0  0  0  0  0  0  0  0  0
   -3.9833   12.9198  -27.3395 H   0  0  0  0  0  0  0  0  0  0  0  0
   -5.1847   11.6476  -35.2258 H   0  0  0  0  0  0  0  0  0  0  0  0
   -5.8222   12.6361  -33.8961 H   0  0  0  0  0  0  0  0  0  0  0  0
   -4.9380    9.7561  -33.4262 H   0  0  0  0  0  0  0  0  0  0  0  0
   -7.4319   10.0277  -35.9558 H   0  0  0  0  0  0  0  0  0  0  0  0
   -7.0474    9.0613  -34.6962 H   0  0  0  0  0  0  0  0  0  0  0  0
   -7.2841   10.4580  -28.1414 H   0  0  0  0  0  0  0  0  0  0  0  0
  1  2  1  0  0  0  0
  1  3  2  0  0  0  0
  2  4  2  0  0  0  0
  3  6  1  0  0  0  0
  3 10  1  0  0  0  0
  4  5  1  0  0  0  0
  4 13  1  0  0  0  0
  5  6  2  0  0  0  0
  5 12  1  0  0  0  0
  6 15  1  0  0  0  0
  7 10  1  0  0  0  0
  8 13  1  0  0  0  0
  9 10  1  0  0  0  0
  9 14  1  0  0  0  0
 11 14  1  0  0  0  0
  1 16  1  0  0  0  0
  2 17  1  0  0  0  0
  7 18  1  0  0  0  0
  7 19  1  0  0  0  0
  7 20  1  0  0  0  0
  8 21  1  0  0  0  0
  8 22  1  0  0  0  0
  8 23  1  0  0  0  0
  9 24  1  0  0  0  0
  9 25  1  0  0  0  0
 10 26  1  0  0  0  0
 11 27  1  0  0  0  0
 11 28  1  0  0  0  0
 12 29  1  0  0  0  0
M  END
> <id>
EN300-1935611

> <smiles>
COC=1C=CC(C(C)CON)=C(Br)C1O

> <IUPAC Name>
3-[1-(aminooxy)propan-2-yl]-2-bromo-6-methoxyphenol

> <CAS>
2228167-06-2

> <URL>
https://www.enaminestore.com/catalog/EN300-1935611

> <ROCS_ShapeQuery>
_x1604L0AP1_x0771L0AP1

> <ROCS_TanimotoCombo>
0.960 

> <ROCS_ShapeTanimoto>
0.509 

> <ROCS_ColorTanimoto>
0.452 

> <ROCS_RefTversky>
0.475 

> <ROCS_RefColorTversky>
0.513 

> <ROCS_RefTverskyCombo>
0.988 

> <ROCS_FitTversky>
1.166 

> <ROCS_FitColorTversky>
0.790 

> <ROCS_FitTverskyCombo>
1.956 

> <ROCS_ColorScore>
-4.885

> <ROCS_Overlap>
797.024

> <ROCS_Rank>
304                 

$$$$
untitled-dbase-1448_38
  -OEChem-06052310023D

 18 18  0     0  0  0  0  0  0999 V2000
   -4.6038   12.4915  -29.8455 C   0  0  0  0  0  0  0  0  0  0  0  0
   -4.3479   12.1756  -31.1798 C   0  0  0  0  0  0  0  0  0  0  0  0
   -5.5767   11.7871  -29.1362 C   0  0  0  0  0  0  0  0  0  0  0  0
   -5.0648   11.1553  -31.8048 C   0  0  0  0  0  0  0  0  0  0  0  0
   -6.2936   10.7668  -29.7613 C   0  0  0  0  0  0  0  0  0  0  0  0
   -6.0377   10.4509  -31.0956 C   0  0  0  0  0  0  0  0  0  0  0  0
   -4.7559   10.8696  -33.2010 C   0  0  0  0  0  0  0  0  0  0  0  0
   -5.8560   11.0080  -34.2565 C   0  0  0  0  0  0  0  0  0  0  0  0
   -3.6073   10.5171  -33.5309 O   0  0  0  0  0  0  0  0  0  0  0  0
   -7.2368   10.1007  -29.0362 O   0  0  0  0  0  0  0  0  0  0  0  0
   -7.0217   12.2746  -33.8208 Cl  0  0  0  0  0  0  0  0  0  0  0  0
   -7.0253    9.0552  -31.9335 Br  0  0  0  0  0  0  0  0  0  0  0  0
   -4.0460   13.2864  -29.3591 H   0  0  0  0  0  0  0  0  0  0  0  0
   -3.5867   12.7327  -31.7207 H   0  0  0  0  0  0  0  0  0  0  0  0
   -5.7714   12.0401  -28.0974 H   0  0  0  0  0  0  0  0  0  0  0  0
   -5.4132   11.2880  -35.2155 H   0  0  0  0  0  0  0  0  0  0  0  0
   -6.4087   10.0689  -34.3374 H   0  0  0  0  0  0  0  0  0  0  0  0
   -7.2758   10.4542  -28.1342 H   0  0  0  0  0  0  0  0  0  0  0  0
  1  2  2  0  0  0  0
  1  3  1  0  0  0  0
  2  4  1  0  0  0  0
  3  5  2  0  0  0  0
  4  6  2  0  0  0  0
  4  7  1  0  0  0  0
  5  6  1  0  0  0  0
  5 10  1  0  0  0  0
  6 12  1  0  0  0  0
  7  8  1  0  0  0  0
  7  9  2  0  0  0  0
  8 11  1  0  0  0  0
  1 13  1  0  0  0  0
  2 14  1  0  0  0  0
  3 15  1  0  0  0  0
  8 16  1  0  0  0  0
  8 17  1  0  0  0  0
 10 18  1  0  0  0  0
M  END
> <id>
EN300-1914530

> <smiles>
OC=1C=CC=C(C(=O)CCl)C1Br

> <MDLNUMBER>
MFCD28741202

> <IUPAC Name>
1-(2-bromo-3-hydroxyphenyl)-2-chloroethan-1-one

> <CAS>
1804506-82-8

> <URL>
https://www.enaminestore.com/catalog/EN300-1914530

> <ROCS_ShapeQuery>
_x1604L0AP1_x0771L0AP1

> <ROCS_TanimotoCombo>
0.960 

> <ROCS_ShapeTanimoto>
0.463 

> <ROCS_ColorTanimoto>
0.497 

> <ROCS_RefTversky>
0.422 

> <ROCS_RefColorTversky>
0.516 

> <ROCS_RefTverskyCombo>
0.938 

> <ROCS_FitTversky>
1.264 

> <ROCS_FitColorTversky>
0.933 

> <ROCS_FitTverskyCombo>
2.197 

> <ROCS_ColorScore>
-4.883

> <ROCS_Overlap>
706.367

> <ROCS_Rank>
305                 

$$$$
untitled-dbase-395_91
  -OEChem-06052310023D

 20 20  0     0  0  0  0  0  0999 V2000
   -4.6072   12.4921  -29.8325 C   0  0  0  0  0  0  0  0  0  0  0  0
   -5.5813   11.7882  -29.1245 C   0  0  0  0  0  0  0  0  0  0  0  0
   -5.0687   11.1583  -31.7934 C   0  0  0  0  0  0  0  0  0  0  0  0
   -4.3509   12.1772  -31.1670 C   0  0  0  0  0  0  0  0  0  0  0  0
   -6.2991   10.7694  -29.7509 C   0  0  0  0  0  0  0  0  0  0  0  0
   -6.0428   10.4545  -31.0854 C   0  0  0  0  0  0  0  0  0  0  0  0
   -2.6425   12.0964  -33.0055 C   0  0  0  0  0  0  0  0  0  0  0  0
   -3.3091   12.9302  -31.9228 C   0  0  0  0  0  0  0  0  0  0  0  0
   -2.4967   10.7660  -32.7136 N   0  0  0  0  0  0  0  0  0  0  0  0
   -7.2432   10.0996  -29.0309 O   0  0  0  0  0  0  0  0  0  0  0  0
   -2.1008   12.7510  -34.4460 S   0  0  0  0  0  0  0  0  0  0  0  0
   -6.9977    9.0753  -31.9679 Br  0  0  0  0  0  0  0  0  0  0  0  0
   -4.0533   13.2841  -29.3353 H   0  0  0  0  0  0  0  0  0  0  0  0
   -5.7755   12.0393  -28.0851 H   0  0  0  0  0  0  0  0  0  0  0  0
   -4.8624   10.9200  -32.8347 H   0  0  0  0  0  0  0  0  0  0  0  0
   -2.5348   13.3238  -31.2413 H   0  0  0  0  0  0  0  0  0  0  0  0
   -3.7602   13.8236  -32.3887 H   0  0  0  0  0  0  0  0  0  0  0  0
   -2.8099   10.3648  -31.8356 H   0  0  0  0  0  0  0  0  0  0  0  0
   -2.0618   10.1305  -33.3741 H   0  0  0  0  0  0  0  0  0  0  0  0
   -7.6649    9.4218  -29.5816 H   0  0  0  0  0  0  0  0  0  0  0  0
  1  2  1  0  0  0  0
  1  4  2  0  0  0  0
  2  5  2  0  0  0  0
  3  4  1  0  0  0  0
  3  6  2  0  0  0  0
  4  8  1  0  0  0  0
  5  6  1  0  0  0  0
  5 10  1  0  0  0  0
  6 12  1  0  0  0  0
  7  8  1  0  0  0  0
  7  9  1  0  0  0  0
  7 11  2  0  0  0  0
  1 13  1  0  0  0  0
  2 14  1  0  0  0  0
  3 15  1  0  0  0  0
  8 16  1  0  0  0  0
  8 17  1  0  0  0  0
  9 18  1  0  0  0  0
  9 19  1  0  0  0  0
 10 20  1  0  0  0  0
M  END
> <id>
EN300-1904770

> <smiles>
NC(=S)CC=1C=CC(O)=C(Br)C1

> <IUPAC Name>
2-(3-bromo-4-hydroxyphenyl)ethanethioamide

> <CAS>
2229361-28-6

> <URL>
https://www.enaminestore.com/catalog/EN300-1904770

> <ROCS_ShapeQuery>
_x1604L0AP1_x0771L0AP1

> <ROCS_TanimotoCombo>
0.960 

> <ROCS_ShapeTanimoto>
0.463 

> <ROCS_ColorTanimoto>
0.497 

> <ROCS_RefTversky>
0.421 

> <ROCS_RefColorTversky>
0.515 

> <ROCS_RefTverskyCombo>
0.936 

> <ROCS_FitTversky>
1.275 

> <ROCS_FitColorTversky>
0.932 

> <ROCS_FitTverskyCombo>
2.206 

> <ROCS_ColorScore>
-4.877

> <ROCS_Overlap>
704.583

> <ROCS_Rank>
306                 

$$$$
untitled-dbase-1741_17
  -OEChem-06052310023D

 25 26  0     0  0  0  0  0  0999 V2000
   -6.7005   11.0536  -33.3874 C   0  0  0  0  0  0  0  0  0  0  0  0
   -7.0988   10.4954  -34.6020 C   0  0  0  0  0  0  0  0  0  0  0  0
   -5.3840   11.6827  -29.1515 C   0  0  0  0  0  0  0  0  0  0  0  0
   -6.2188   10.2331  -32.3674 C   0  0  0  0  0  0  0  0  0  0  0  0
   -6.2131   10.7655  -29.8200 C   0  0  0  0  0  0  0  0  0  0  0  0
   -7.0156    9.1167  -34.7966 C   0  0  0  0  0  0  0  0  0  0  0  0
   -6.5340    8.2962  -33.7765 C   0  0  0  0  0  0  0  0  0  0  0  0
   -6.1356    8.8544  -32.5619 C   0  0  0  0  0  0  0  0  0  0  0  0
   -5.8197   10.8644  -31.1283 C   0  0  0  0  0  0  0  0  0  0  0  0
   -6.4133    8.4699  -37.0044 C   0  0  0  0  0  0  0  0  0  0  0  0
   -4.5409   12.3031  -29.9816 N   0  0  0  0  0  0  0  0  0  0  0  0
   -7.1690    9.9761  -29.2943 N   0  0  0  0  0  0  0  0  0  0  0  0
   -4.8223   11.7789  -31.2376 O   0  0  0  0  0  0  0  0  0  0  0  0
   -6.4623    6.9507  -33.9936 O   0  0  0  0  0  0  0  0  0  0  0  0
   -7.4077    8.5866  -35.9888 O   0  0  0  0  0  0  0  0  0  0  0  0
   -5.4818    7.7065  -31.1846 Br  0  0  0  0  0  0  0  0  0  0  0  0
   -6.7727   12.1309  -33.2547 H   0  0  0  0  0  0  0  0  0  0  0  0
   -7.4726   11.1402  -35.3929 H   0  0  0  0  0  0  0  0  0  0  0  0
   -5.3536   11.9289  -28.0998 H   0  0  0  0  0  0  0  0  0  0  0  0
   -6.8577    8.0331  -37.9021 H   0  0  0  0  0  0  0  0  0  0  0  0
   -5.5965    7.8388  -36.6452 H   0  0  0  0  0  0  0  0  0  0  0  0
   -6.0265    9.4644  -37.2391 H   0  0  0  0  0  0  0  0  0  0  0  0
   -7.3593    9.9410  -28.2800 H   0  0  0  0  0  0  0  0  0  0  0  0
   -7.6973    9.2958  -29.8639 H   0  0  0  0  0  0  0  0  0  0  0  0
   -6.7772    6.7404  -34.8858 H   0  0  0  0  0  0  0  0  0  0  0  0
  1  2  1  0  0  0  0
  1  4  2  0  0  0  0
  2  6  2  0  0  0  0
  3  5  1  0  0  0  0
  3 11  2  0  0  0  0
  4  8  1  0  0  0  0
  4  9  1  0  0  0  0
  5  9  2  0  0  0  0
  5 12  1  0  0  0  0
  6  7  1  0  0  0  0
  6 15  1  0  0  0  0
  7  8  2  0  0  0  0
  7 14  1  0  0  0  0
  8 16  1  0  0  0  0
  9 13  1  0  0  0  0
 10 15  1  0  0  0  0
 11 13  1  0  0  0  0
  1 17  1  0  0  0  0
  2 18  1  0  0  0  0
  3 19  1  0  0  0  0
 10 20  1  0  0  0  0
 10 21  1  0  0  0  0
 10 22  1  0  0  0  0
 12 23  1  0  0  0  0
 12 24  1  0  0  0  0
 14 25  1  0  0  0  0
M  END
> <id>
EN300-1936331

> <smiles>
COC=1C=CC(C=2ON=CC2N)=C(Br)C1O

> <IUPAC Name>
3-(4-amino-1,2-oxazol-5-yl)-2-bromo-6-methoxyphenol

> <CAS>
2228637-27-0

> <URL>
https://www.enaminestore.com/catalog/EN300-1936331

> <ROCS_ShapeQuery>
_x1604L0AP1_x0771L0AP1

> <ROCS_TanimotoCombo>
0.960 

> <ROCS_ShapeTanimoto>
0.582 

> <ROCS_ColorTanimoto>
0.378 

> <ROCS_RefTversky>
0.536 

> <ROCS_RefColorTversky>
0.530 

> <ROCS_RefTverskyCombo>
1.067 

> <ROCS_FitTversky>
1.172 

> <ROCS_FitColorTversky>
0.567 

> <ROCS_FitTverskyCombo>
1.740 

> <ROCS_ColorScore>
-5.127

> <ROCS_Overlap>
902.876

> <ROCS_Rank>
307                 

$$$$
untitled-dbase-233_16
  -OEChem-06052310023D

 21 21  0     0  0  0  0  0  0999 V2000
   -4.6095   12.4940  -29.8317 C   0  0  0  0  0  0  0  0  0  0  0  0
   -5.5828   11.7889  -29.1239 C   0  0  0  0  0  0  0  0  0  0  0  0
   -5.0701   11.1608  -31.7932 C   0  0  0  0  0  0  0  0  0  0  0  0
   -4.3531   12.1800  -31.1664 C   0  0  0  0  0  0  0  0  0  0  0  0
   -6.2998   10.7698  -29.7507 C   0  0  0  0  0  0  0  0  0  0  0  0
   -6.0434   10.4557  -31.0854 C   0  0  0  0  0  0  0  0  0  0  0  0
   -2.6297   12.1203  -33.0129 C   0  0  0  0  0  0  0  0  0  0  0  0
   -2.7021   12.6754  -34.4121 C   0  0  0  0  0  0  0  0  0  0  0  0
   -3.3121   12.9344  -31.9221 C   0  0  0  0  0  0  0  0  0  0  0  0
   -2.0450   11.0624  -32.7831 O   0  0  0  0  0  0  0  0  0  0  0  0
   -7.2431   10.0987  -29.0309 O   0  0  0  0  0  0  0  0  0  0  0  0
   -6.9972    9.0761  -31.9684 Br  0  0  0  0  0  0  0  0  0  0  0  0
   -4.0562   13.2863  -29.3342 H   0  0  0  0  0  0  0  0  0  0  0  0
   -5.7771   12.0393  -28.0843 H   0  0  0  0  0  0  0  0  0  0  0  0
   -4.8637   10.9232  -32.8347 H   0  0  0  0  0  0  0  0  0  0  0  0
   -1.8451   13.3296  -34.5943 H   0  0  0  0  0  0  0  0  0  0  0  0
   -2.6794   11.8546  -35.1330 H   0  0  0  0  0  0  0  0  0  0  0  0
   -3.6207   13.2556  -34.5292 H   0  0  0  0  0  0  0  0  0  0  0  0
   -3.7533   13.8256  -32.3956 H   0  0  0  0  0  0  0  0  0  0  0  0
   -2.5301   13.2987  -31.2374 H   0  0  0  0  0  0  0  0  0  0  0  0
   -7.6642    9.4208  -29.5818 H   0  0  0  0  0  0  0  0  0  0  0  0
  1  2  1  0  0  0  0
  1  4  2  0  0  0  0
  2  5  2  0  0  0  0
  3  4  1  0  0  0  0
  3  6  2  0  0  0  0
  4  9  1  0  0  0  0
  5  6  1  0  0  0  0
  5 11  1  0  0  0  0
  6 12  1  0  0  0  0
  7  8  1  0  0  0  0
  7  9  1  0  0  0  0
  7 10  2  0  0  0  0
  1 13  1  0  0  0  0
  2 14  1  0  0  0  0
  3 15  1  0  0  0  0
  8 16  1  0  0  0  0
  8 17  1  0  0  0  0
  8 18  1  0  0  0  0
  9 19  1  0  0  0  0
  9 20  1  0  0  0  0
 11 21  1  0  0  0  0
M  END
> <id>
EN300-1581816

> <smiles>
CC(=O)CC=1C=CC(O)=C(Br)C1

> <MDLNUMBER>
MFCD04117998

> <IUPAC Name>
1-(3-bromo-4-hydroxyphenyl)propan-2-one

> <CAS>
655237-87-9

> <Purity>
95

> <URL>
https://www.enaminestore.com/catalog/EN300-1581816

> <ROCS_ShapeQuery>
_x1604L0AP1_x0771L0AP1

> <ROCS_TanimotoCombo>
0.959 

> <ROCS_ShapeTanimoto>
0.463 

> <ROCS_ColorTanimoto>
0.496 

> <ROCS_RefTversky>
0.423 

> <ROCS_RefColorTversky>
0.515 

> <ROCS_RefTverskyCombo>
0.938 

> <ROCS_FitTversky>
1.258 

> <ROCS_FitColorTversky>
0.932 

> <ROCS_FitTverskyCombo>
2.189 

> <ROCS_ColorScore>
-4.877

> <ROCS_Overlap>
707.056

> <ROCS_Rank>
308                 

$$$$
untitled-dbase-1258_86
  -OEChem-06052310023D

 22 22  0     0  0  0  0  0  0999 V2000
   -4.9082   11.7352  -31.5556 C   0  0  0  0  0  0  0  0  0  0  0  0
   -4.4298   12.4792  -29.3073 C   0  0  0  0  0  0  0  0  0  0  0  0
   -5.9267   10.9165  -31.0680 C   0  0  0  0  0  0  0  0  0  0  0  0
   -6.1969   10.8791  -29.7000 C   0  0  0  0  0  0  0  0  0  0  0  0
   -4.1596   12.5165  -30.6753 C   0  0  0  0  0  0  0  0  0  0  0  0
   -5.4484   11.6605  -28.8197 C   0  0  0  0  0  0  0  0  0  0  0  0
   -7.2289    8.9198  -31.6434 C   0  0  0  0  0  0  0  0  0  0  0  0
   -6.6919   10.1113  -32.0111 C   0  0  0  0  0  0  0  0  0  0  0  0
   -6.9416   10.6280  -33.4170 C   0  0  0  0  0  0  0  0  0  0  0  0
   -7.0756    9.5183  -34.3229 N   0  0  0  0  0  0  0  0  0  0  0  0
   -7.1954   10.0754  -29.2281 O   0  0  0  0  0  0  0  0  0  0  0  0
   -2.9028   13.5267  -31.2770 Cl  0  0  0  0  0  0  0  0  0  0  0  0
   -5.7842   11.6380  -26.9535 Br  0  0  0  0  0  0  0  0  0  0  0  0
   -4.6954   11.7668  -32.6225 H   0  0  0  0  0  0  0  0  0  0  0  0
   -3.8431   13.0900  -28.6240 H   0  0  0  0  0  0  0  0  0  0  0  0
   -7.8152    8.3169  -32.3300 H   0  0  0  0  0  0  0  0  0  0  0  0
   -7.1023    8.5259  -30.6401 H   0  0  0  0  0  0  0  0  0  0  0  0
   -7.8629   11.2148  -33.4983 H   0  0  0  0  0  0  0  0  0  0  0  0
   -6.1203   11.2601  -33.7666 H   0  0  0  0  0  0  0  0  0  0  0  0
   -7.8705    8.9711  -34.0627 H   0  0  0  0  0  0  0  0  0  0  0  0
   -7.1968    9.8626  -35.2534 H   0  0  0  0  0  0  0  0  0  0  0  0
   -7.2605   10.1584  -28.2650 H   0  0  0  0  0  0  0  0  0  0  0  0
  1  3  2  0  0  0  0
  1  5  1  0  0  0  0
  2  5  2  0  0  0  0
  2  6  1  0  0  0  0
  3  4  1  0  0  0  0
  3  8  1  0  0  0  0
  4  6  2  0  0  0  0
  4 11  1  0  0  0  0
  5 12  1  0  0  0  0
  6 13  1  0  0  0  0
  7  8  2  0  0  0  0
  8  9  1  0  0  0  0
  9 10  1  0  0  0  0
  1 14  1  0  0  0  0
  2 15  1  0  0  0  0
  7 16  1  0  0  0  0
  7 17  1  0  0  0  0
  9 18  1  0  0  0  0
  9 19  1  0  0  0  0
 10 20  1  0  0  0  0
 10 21  1  0  0  0  0
 11 22  1  0  0  0  0
M  END
> <id>
EN300-1922896

> <smiles>
NCC(=C)C=1C=C(Cl)C=C(Br)C1O

> <IUPAC Name>
2-(3-aminoprop-1-en-2-yl)-6-bromo-4-chlorophenol

> <CAS>
2229295-57-0

> <URL>
https://www.enaminestore.com/catalog/EN300-1922896

> <ROCS_ShapeQuery>
_x1604L0AP1_x0771L0AP1

> <ROCS_TanimotoCombo>
0.958 

> <ROCS_ShapeTanimoto>
0.582 

> <ROCS_ColorTanimoto>
0.377 

> <ROCS_RefTversky>
0.500 

> <ROCS_RefColorTversky>
0.478 

> <ROCS_RefTverskyCombo>
0.977 

> <ROCS_FitTversky>
1.395 

> <ROCS_FitColorTversky>
0.640 

> <ROCS_FitTverskyCombo>
2.035 

> <ROCS_ColorScore>
-4.568

> <ROCS_Overlap>
836.873

> <ROCS_Rank>
309                 

$$$$
untitled-dbase-588_844
  -OEChem-06052310023D

 25 25  0     0  0  0  0  0  0999 V2000
   -4.5597   12.4476  -29.8420 C   0  0  0  0  0  0  0  0  0  0  0  0
   -5.0445   11.1116  -31.7957 C   0  0  0  0  0  0  0  0  0  0  0  0
   -4.3082   12.1203  -31.1744 C   0  0  0  0  0  0  0  0  0  0  0  0
   -5.5474   11.7661  -29.1309 C   0  0  0  0  0  0  0  0  0  0  0  0
   -6.2836   10.7573  -29.7522 C   0  0  0  0  0  0  0  0  0  0  0  0
   -6.0322   10.4301  -31.0846 C   0  0  0  0  0  0  0  0  0  0  0  0
   -3.0452   14.2785  -31.4824 C   0  0  0  0  0  0  0  0  0  0  0  0
   -6.9989   13.9516  -26.9288 C   0  0  0  0  0  0  0  0  0  0  0  0
   -3.2528   12.8498  -31.9346 C   0  0  0  0  0  0  0  0  0  0  0  0
   -7.0927   12.5546  -27.5043 C   0  0  0  0  0  0  0  0  0  0  0  0
   -3.2780   14.6914  -30.3512 O   0  0  0  0  0  0  0  0  0  0  0  0
   -7.2462   10.1029  -29.0403 O   0  0  0  0  0  0  0  0  0  0  0  0
   -5.7818   12.0975  -27.8304 O   0  0  0  0  0  0  0  0  0  0  0  0
   -7.0121    9.0653  -31.9628 Br  0  0  0  0  0  0  0  0  0  0  0  0
   -3.9873   13.2338  -29.3555 H   0  0  0  0  0  0  0  0  0  0  0  0
   -4.8413   10.8638  -32.8353 H   0  0  0  0  0  0  0  0  0  0  0  0
   -2.6559   14.9646  -32.2545 H   0  0  0  0  0  0  0  0  0  0  0  0
   -6.3906   13.9592  -26.0200 H   0  0  0  0  0  0  0  0  0  0  0  0
   -6.5562   14.6399  -27.6563 H   0  0  0  0  0  0  0  0  0  0  0  0
   -7.9952   14.3384  -26.6902 H   0  0  0  0  0  0  0  0  0  0  0  0
   -3.4934   12.8769  -33.0080 H   0  0  0  0  0  0  0  0  0  0  0  0
   -2.2841   12.3346  -31.8496 H   0  0  0  0  0  0  0  0  0  0  0  0
   -7.7023   12.5541  -28.4129 H   0  0  0  0  0  0  0  0  0  0  0  0
   -7.5345   11.8681  -26.7759 H   0  0  0  0  0  0  0  0  0  0  0  0
   -7.6733    9.4328  -29.5955 H   0  0  0  0  0  0  0  0  0  0  0  0
  1  3  1  0  0  0  0
  1  4  2  0  0  0  0
  2  3  2  0  0  0  0
  2  6  1  0  0  0  0
  3  9  1  0  0  0  0
  4  5  1  0  0  0  0
  4 13  1  0  0  0  0
  5  6  2  0  0  0  0
  5 12  1  0  0  0  0
  6 14  1  0  0  0  0
  7  9  1  0  0  0  0
  7 11  2  0  0  0  0
  8 10  1  0  0  0  0
 10 13  1  0  0  0  0
  1 15  1  0  0  0  0
  2 16  1  0  0  0  0
  7 17  1  0  0  0  0
  8 18  1  0  0  0  0
  8 19  1  0  0  0  0
  8 20  1  0  0  0  0
  9 21  1  0  0  0  0
  9 22  1  0  0  0  0
 10 23  1  0  0  0  0
 10 24  1  0  0  0  0
 12 25  1  0  0  0  0
M  END
> <id>
EN300-1920250

> <smiles>
CCOC=1C=C(CC=O)C=C(Br)C1O

> <IUPAC Name>
2-(3-bromo-5-ethoxy-4-hydroxyphenyl)acetaldehyde

> <CAS>
2229233-69-4

> <URL>
https://www.enaminestore.com/catalog/EN300-1920250

> <ROCS_ShapeQuery>
_x1604L0AP1_x0771L0AP1

> <ROCS_TanimotoCombo>
0.958 

> <ROCS_ShapeTanimoto>
0.507 

> <ROCS_ColorTanimoto>
0.451 

> <ROCS_RefTversky>
0.466 

> <ROCS_RefColorTversky>
0.513 

> <ROCS_RefTverskyCombo>
0.979 

> <ROCS_FitTversky>
1.211 

> <ROCS_FitColorTversky>
0.789 

> <ROCS_FitTverskyCombo>
2.000 

> <ROCS_ColorScore>
-4.881

> <ROCS_Overlap>
781.804

> <ROCS_Rank>
310                 

$$$$
untitled-dbase-487_116
  -OEChem-06052310023D

 21 21  0     1  0  0  0  0  0999 V2000
   -6.2209    7.7753  -33.7798 C   0  0  0  0  0  0  0  0  0  0  0  0
   -4.8824   11.1815  -31.7293 C   0  0  0  0  0  0  0  0  0  0  0  0
   -4.6964   12.6126  -29.7917 C   0  0  0  0  0  0  0  0  0  0  0  0
   -5.8628   10.4308  -31.0808 C   0  0  0  0  0  0  0  0  0  0  0  0
   -6.2602   10.7709  -29.7877 C   0  0  0  0  0  0  0  0  0  0  0  0
   -4.2991   12.2724  -31.0847 C   0  0  0  0  0  0  0  0  0  0  0  0
   -5.6770   11.8619  -29.1431 C   0  0  0  0  0  0  0  0  0  0  0  0
   -5.9397    9.1103  -33.2271 C   0  0  0  0  0  0  0  0  0  0  0  0
   -6.4743    9.2667  -31.7891 C   0  0  2  0  0  0  0  0  0  0  0  0
   -6.4413    6.7229  -34.2160 N   0  0  0  0  0  0  0  0  0  0  0  0
   -7.2207   10.0265  -29.1665 O   0  0  0  0  0  0  0  0  0  0  0  0
   -7.8973    9.4438  -31.8265 O   0  0  0  0  0  0  0  0  0  0  0  0
   -3.0890   13.1984  -31.8854 Cl  0  0  0  0  0  0  0  0  0  0  0  0
   -6.1903   12.3552  -27.3859 Br  0  0  0  0  0  0  0  0  0  0  0  0
   -4.5755   10.9132  -32.7381 H   0  0  0  0  0  0  0  0  0  0  0  0
   -4.2388   13.4638  -29.2923 H   0  0  0  0  0  0  0  0  0  0  0  0
   -4.8543    9.2690  -33.2387 H   0  0  0  0  0  0  0  0  0  0  0  0
   -6.3894    9.8650  -33.8837 H   0  0  0  0  0  0  0  0  0  0  0  0
   -6.2968    8.3353  -31.2238 H   0  0  0  0  0  0  0  0  0  0  0  0
   -7.5170    9.3118  -29.7502 H   0  0  0  0  0  0  0  0  0  0  0  0
   -8.2502    8.6723  -32.2910 H   0  0  0  0  0  0  0  0  0  0  0  0
  1  8  1  0  0  0  0
  1 10  3  0  0  0  0
  2  4  2  0  0  0  0
  2  6  1  0  0  0  0
  3  6  2  0  0  0  0
  3  7  1  0  0  0  0
  4  5  1  0  0  0  0
  4  9  1  0  0  0  0
  5  7  2  0  0  0  0
  5 11  1  0  0  0  0
  6 13  1  0  0  0  0
  7 14  1  0  0  0  0
  8  9  1  0  0  0  0
  9 12  1  0  0  0  0
  2 15  1  0  0  0  0
  3 16  1  0  0  0  0
  8 17  1  0  0  0  0
  8 18  1  0  0  0  0
  9 19  1  0  0  0  0
 11 20  1  0  0  0  0
 12 21  1  0  0  0  0
M  END
> <id>
EN300-1922888

> <smiles>
OC(CC#N)C=1C=C(Cl)C=C(Br)C1O

> <IUPAC Name>
3-(3-bromo-5-chloro-2-hydroxyphenyl)-3-hydroxypropanenitrile

> <CAS>
2229214-93-9

> <URL>
https://www.enaminestore.com/catalog/EN300-1922888

> <ROCS_ShapeQuery>
_x1604L0AP1_x0771L0AP1

> <ROCS_TanimotoCombo>
0.958 

> <ROCS_ShapeTanimoto>
0.566 

> <ROCS_ColorTanimoto>
0.392 

> <ROCS_RefTversky>
0.499 

> <ROCS_RefColorTversky>
0.491 

> <ROCS_RefTverskyCombo>
0.991 

> <ROCS_FitTversky>
1.312 

> <ROCS_FitColorTversky>
0.659 

> <ROCS_FitTverskyCombo>
1.971 

> <ROCS_ColorScore>
-4.701

> <ROCS_Overlap>
837.240

> <ROCS_Rank>
311                 

$$$$
untitled-dbase-1276_72
  -OEChem-06052310023D

 27 27  0     0  0  0  0  0  0999 V2000
   -6.0716   11.1290  -33.0357 C   0  0  0  0  0  0  0  0  0  0  0  0
   -5.3415   11.6045  -31.9465 C   0  0  0  0  0  0  0  0  0  0  0  0
   -7.1836   10.3131  -32.8273 C   0  0  0  0  0  0  0  0  0  0  0  0
   -5.7233   11.2640  -30.6488 C   0  0  0  0  0  0  0  0  0  0  0  0
   -6.8353   10.4480  -30.4403 C   0  0  0  0  0  0  0  0  0  0  0  0
   -7.5654    9.9726  -31.5296 C   0  0  0  0  0  0  0  0  0  0  0  0
   -5.4009   12.9889  -29.0436 C   0  0  0  0  0  0  0  0  0  0  0  0
   -7.9326    9.8312  -34.0281 C   0  0  0  0  0  0  0  0  0  0  0  0
   -7.2028    8.6839  -34.7374 C   0  0  0  0  0  0  0  0  0  0  0  0
   -7.0529    7.4619  -33.8420 C   0  0  0  0  0  0  0  0  0  0  0  0
   -7.1890   10.1291  -29.1614 O   0  0  0  0  0  0  0  0  0  0  0  0
   -6.3576    6.4505  -34.5578 O   0  0  0  0  0  0  0  0  0  0  0  0
   -5.0000   11.7363  -29.5952 O   0  0  0  0  0  0  0  0  0  0  0  0
   -9.0869    8.8672  -31.2358 Br  0  0  0  0  0  0  0  0  0  0  0  0
   -5.7655   11.4009  -34.0425 H   0  0  0  0  0  0  0  0  0  0  0  0
   -4.4770   12.2406  -32.1159 H   0  0  0  0  0  0  0  0  0  0  0  0
   -4.7421   13.2490  -28.2115 H   0  0  0  0  0  0  0  0  0  0  0  0
   -6.4349   12.9208  -28.6962 H   0  0  0  0  0  0  0  0  0  0  0  0
   -5.3282   13.7573  -29.8169 H   0  0  0  0  0  0  0  0  0  0  0  0
   -8.0877   10.6576  -34.7406 H   0  0  0  0  0  0  0  0  0  0  0  0
   -8.9424    9.4959  -33.7410 H   0  0  0  0  0  0  0  0  0  0  0  0
   -6.2100    9.0127  -35.0716 H   0  0  0  0  0  0  0  0  0  0  0  0
   -7.7390    8.3997  -35.6525 H   0  0  0  0  0  0  0  0  0  0  0  0
   -6.4814    7.7057  -32.9407 H   0  0  0  0  0  0  0  0  0  0  0  0
   -8.0321    7.0703  -33.5486 H   0  0  0  0  0  0  0  0  0  0  0  0
   -6.5766   10.5422  -28.5340 H   0  0  0  0  0  0  0  0  0  0  0  0
   -6.2790    5.6883  -33.9614 H   0  0  0  0  0  0  0  0  0  0  0  0
  1  2  1  0  0  0  0
  1  3  2  0  0  0  0
  2  4  2  0  0  0  0
  3  6  1  0  0  0  0
  3  8  1  0  0  0  0
  4  5  1  0  0  0  0
  4 13  1  0  0  0  0
  5  6  2  0  0  0  0
  5 11  1  0  0  0  0
  6 14  1  0  0  0  0
  7 13  1  0  0  0  0
  8  9  1  0  0  0  0
  9 10  1  0  0  0  0
 10 12  1  0  0  0  0
  1 15  1  0  0  0  0
  2 16  1  0  0  0  0
  7 17  1  0  0  0  0
  7 18  1  0  0  0  0
  7 19  1  0  0  0  0
  8 20  1  0  0  0  0
  8 21  1  0  0  0  0
  9 22  1  0  0  0  0
  9 23  1  0  0  0  0
 10 24  1  0  0  0  0
 10 25  1  0  0  0  0
 11 26  1  0  0  0  0
 12 27  1  0  0  0  0
M  END
> <id>
EN300-1935979

> <smiles>
COC=1C=CC(CCCO)=C(Br)C1O

> <IUPAC Name>
2-bromo-3-(3-hydroxypropyl)-6-methoxyphenol

> <CAS>
2228635-82-1

> <URL>
https://www.enaminestore.com/catalog/EN300-1935979

> <ROCS_ShapeQuery>
_x1604L0AP1_x0771L0AP1

> <ROCS_TanimotoCombo>
0.958 

> <ROCS_ShapeTanimoto>
0.498 

> <ROCS_ColorTanimoto>
0.461 

> <ROCS_RefTversky>
0.459 

> <ROCS_RefColorTversky>
0.551 

> <ROCS_RefTverskyCombo>
1.010 

> <ROCS_FitTversky>
1.203 

> <ROCS_FitColorTversky>
0.738 

> <ROCS_FitTverskyCombo>
1.941 

> <ROCS_ColorScore>
-5.266

> <ROCS_Overlap>
770.114

> <ROCS_Rank>
312                 

$$$$
untitled-dbase-944_1018
  -OEChem-06052310023D

 29 29  0     1  0  0  0  0  0999 V2000
   -4.5431   11.1150  -32.0977 C   0  0  0  0  0  0  0  0  0  0  0  0
   -4.6250   11.9183  -30.9605 C   0  0  0  0  0  0  0  0  0  0  0  0
   -5.3637    9.9936  -32.2202 C   0  0  0  0  0  0  0  0  0  0  0  0
   -5.5274   11.6004  -29.9455 C   0  0  0  0  0  0  0  0  0  0  0  0
   -6.3480   10.4790  -30.0679 C   0  0  0  0  0  0  0  0  0  0  0  0
   -6.2661    9.6757  -31.2052 C   0  0  0  0  0  0  0  0  0  0  0  0
   -4.7408   12.0615  -27.7490 C   0  0  0  0  0  0  0  0  0  0  0  0
   -5.2365    9.1581  -33.4720 C   0  0  0  0  0  0  0  0  0  0  0  0
   -6.5101    7.8835  -35.2348 C   0  0  0  0  0  0  0  0  0  0  0  0
   -6.5431    9.0757  -34.2769 C   0  0  2  0  0  0  0  0  0  0  0  0
   -6.7664   10.2997  -35.0179 N   0  0  0  0  0  0  0  0  0  0  0  0
   -7.2230   10.1889  -29.0615 O   0  0  0  0  0  0  0  0  0  0  0  0
   -6.3165    6.6850  -34.4921 O   0  0  0  0  0  0  0  0  0  0  0  0
   -5.5957   12.3948  -28.8408 O   0  0  0  0  0  0  0  0  0  0  0  0
   -7.3960    8.1526  -31.3682 Br  0  0  0  0  0  0  0  0  0  0  0  0
   -3.8367   11.3722  -32.8827 H   0  0  0  0  0  0  0  0  0  0  0  0
   -3.9836   12.7910  -30.8721 H   0  0  0  0  0  0  0  0  0  0  0  0
   -4.8948   12.7731  -26.9342 H   0  0  0  0  0  0  0  0  0  0  0  0
   -3.6993   12.0889  -28.0791 H   0  0  0  0  0  0  0  0  0  0  0  0
   -4.9843   11.0547  -27.4014 H   0  0  0  0  0  0  0  0  0  0  0  0
   -4.4292    9.5577  -34.1003 H   0  0  0  0  0  0  0  0  0  0  0  0
   -4.9144    8.1514  -33.1747 H   0  0  0  0  0  0  0  0  0  0  0  0
   -5.6778    7.9761  -35.9401 H   0  0  0  0  0  0  0  0  0  0  0  0
   -7.4449    7.7957  -35.7990 H   0  0  0  0  0  0  0  0  0  0  0  0
   -7.4057    8.9727  -33.6075 H   0  0  0  0  0  0  0  0  0  0  0  0
   -7.6186   10.2176  -35.5276 H   0  0  0  0  0  0  0  0  0  0  0  0
   -6.8243   11.0593  -34.3756 H   0  0  0  0  0  0  0  0  0  0  0  0
   -7.1469   10.8473  -28.3543 H   0  0  0  0  0  0  0  0  0  0  0  0
   -7.0643    6.6145  -33.8778 H   0  0  0  0  0  0  0  0  0  0  0  0
  1  2  1  0  0  0  0
  1  3  2  0  0  0  0
  2  4  2  0  0  0  0
  3  6  1  0  0  0  0
  3  8  1  0  0  0  0
  4  5  1  0  0  0  0
  4 14  1  0  0  0  0
  5  6  2  0  0  0  0
  5 12  1  0  0  0  0
  6 15  1  0  0  0  0
  7 14  1  0  0  0  0
  8 10  1  0  0  0  0
  9 10  1  0  0  0  0
  9 13  1  0  0  0  0
 10 11  1  0  0  0  0
  1 16  1  0  0  0  0
  2 17  1  0  0  0  0
  7 18  1  0  0  0  0
  7 19  1  0  0  0  0
  7 20  1  0  0  0  0
  8 21  1  0  0  0  0
  8 22  1  0  0  0  0
  9 23  1  0  0  0  0
  9 24  1  0  0  0  0
 10 25  1  0  0  0  0
 11 26  1  0  0  0  0
 11 27  1  0  0  0  0
 12 28  1  0  0  0  0
 13 29  1  0  0  0  0
M  END
> <id>
EN300-1935588

> <smiles>
COC=1C=CC(CC(N)CO)=C(Br)C1O

> <IUPAC Name>
3-(2-amino-3-hydroxypropyl)-2-bromo-6-methoxyphenol

> <CAS>
1380151-57-4

> <URL>
https://www.enaminestore.com/catalog/EN300-1935588

> <ROCS_ShapeQuery>
_x1604L0AP1_x0771L0AP1

> <ROCS_TanimotoCombo>
0.958 

> <ROCS_ShapeTanimoto>
0.537 

> <ROCS_ColorTanimoto>
0.420 

> <ROCS_RefTversky>
0.492 

> <ROCS_RefColorTversky>
0.573 

> <ROCS_RefTverskyCombo>
1.065 

> <ROCS_FitTversky>
1.208 

> <ROCS_FitColorTversky>
0.613 

> <ROCS_FitTverskyCombo>
1.821 

> <ROCS_ColorScore>
-5.536

> <ROCS_Overlap>
826.143

> <ROCS_Rank>
313                 

$$$$
untitled-dbase-2073_11
  -OEChem-06052310023D

 21 21  0     0  0  0  0  0  0999 V2000
   -5.0733   11.1426  -31.8084 C   0  0  0  0  0  0  0  0  0  0  0  0
   -5.5738   11.7880  -29.1408 C   0  0  0  0  0  0  0  0  0  0  0  0
   -4.3511   12.1635  -31.1905 C   0  0  0  0  0  0  0  0  0  0  0  0
   -6.2961   10.7671  -29.7588 C   0  0  0  0  0  0  0  0  0  0  0  0
   -4.6013   12.4862  -29.8567 C   0  0  0  0  0  0  0  0  0  0  0  0
   -6.0458   10.4444  -31.0925 C   0  0  0  0  0  0  0  0  0  0  0  0
   -3.3440   12.8652  -31.9774 C   0  0  0  0  0  0  0  0  0  0  0  0
   -1.6580   11.2970  -33.0745 C   0  0  0  0  0  0  0  0  0  0  0  0
   -1.9097   12.3224  -31.9801 C   0  0  0  0  0  0  0  0  0  0  0  0
   -3.5985   13.8812  -32.6425 O   0  0  0  0  0  0  0  0  0  0  0  0
   -7.2394   10.1031  -29.0323 O   0  0  0  0  0  0  0  0  0  0  0  0
   -3.7299   13.7428  -29.0549 Cl  0  0  0  0  0  0  0  0  0  0  0  0
   -7.0084    9.0625  -31.9632 Br  0  0  0  0  0  0  0  0  0  0  0  0
   -4.8742   10.8943  -32.8489 H   0  0  0  0  0  0  0  0  0  0  0  0
   -5.7756   12.0325  -28.1003 H   0  0  0  0  0  0  0  0  0  0  0  0
   -2.3284   10.4374  -32.9700 H   0  0  0  0  0  0  0  0  0  0  0  0
   -1.8259   11.7431  -34.0596 H   0  0  0  0  0  0  0  0  0  0  0  0
   -0.6281   10.9269  -33.0380 H   0  0  0  0  0  0  0  0  0  0  0  0
   -1.2207   13.1620  -32.1217 H   0  0  0  0  0  0  0  0  0  0  0  0
   -1.7137   11.8541  -31.0095 H   0  0  0  0  0  0  0  0  0  0  0  0
   -7.6640    9.4232  -29.5780 H   0  0  0  0  0  0  0  0  0  0  0  0
  1  3  2  0  0  0  0
  1  6  1  0  0  0  0
  2  4  1  0  0  0  0
  2  5  2  0  0  0  0
  3  5  1  0  0  0  0
  3  7  1  0  0  0  0
  4  6  2  0  0  0  0
  4 11  1  0  0  0  0
  5 12  1  0  0  0  0
  6 13  1  0  0  0  0
  7  9  1  0  0  0  0
  7 10  2  0  0  0  0
  8  9  1  0  0  0  0
  1 14  1  0  0  0  0
  2 15  1  0  0  0  0
  8 16  1  0  0  0  0
  8 17  1  0  0  0  0
  8 18  1  0  0  0  0
  9 19  1  0  0  0  0
  9 20  1  0  0  0  0
 11 21  1  0  0  0  0
M  END
> <id>
EN300-1276919

> <smiles>
CCC(=O)C=1C=C(Br)C(O)=CC1Cl

> <MDLNUMBER>
MFCD30661256

> <IUPAC Name>
1-(5-bromo-2-chloro-4-hydroxyphenyl)propan-1-one

> <CAS>
2172026-81-0

> <URL>
https://www.enaminestore.com/catalog/EN300-1276919

> <ROCS_ShapeQuery>
_x1604L0AP1_x0771L0AP1

> <ROCS_TanimotoCombo>
0.958 

> <ROCS_ShapeTanimoto>
0.507 

> <ROCS_ColorTanimoto>
0.451 

> <ROCS_RefTversky>
0.457 

> <ROCS_RefColorTversky>
0.513 

> <ROCS_RefTverskyCombo>
0.969 

> <ROCS_FitTversky>
1.278 

> <ROCS_FitColorTversky>
0.789 

> <ROCS_FitTverskyCombo>
2.067 

> <ROCS_ColorScore>
-4.879

> <ROCS_Overlap>
764.899

> <ROCS_Rank>
314                 

$$$$
untitled-dbase-478_92
  -OEChem-06052310023D

 20 20  0     0  0  0  0  0  0999 V2000
   -4.5862   12.4658  -29.8340 C   0  0  0  0  0  0  0  0  0  0  0  0
   -5.5682   11.7727  -29.1263 C   0  0  0  0  0  0  0  0  0  0  0  0
   -5.0575   11.1332  -31.7933 C   0  0  0  0  0  0  0  0  0  0  0  0
   -4.3308   12.1461  -31.1675 C   0  0  0  0  0  0  0  0  0  0  0  0
   -6.2949   10.7598  -29.7521 C   0  0  0  0  0  0  0  0  0  0  0  0
   -6.0395   10.4400  -31.0857 C   0  0  0  0  0  0  0  0  0  0  0  0
   -3.2805   12.8876  -31.9230 C   0  0  0  0  0  0  0  0  0  0  0  0
   -3.0642   14.8769  -30.7138 N   0  0  0  0  0  0  0  0  0  0  0  0
   -2.4149   13.6466  -31.0563 N   0  0  0  0  0  0  0  0  0  0  0  0
   -7.2466   10.1005  -29.0325 O   0  0  0  0  0  0  0  0  0  0  0  0
   -7.0063    9.0687  -31.9673 Br  0  0  0  0  0  0  0  0  0  0  0  0
   -4.0254   13.2533  -29.3373 H   0  0  0  0  0  0  0  0  0  0  0  0
   -5.7616   12.0275  -28.0876 H   0  0  0  0  0  0  0  0  0  0  0  0
   -4.8518   10.8910  -32.8338 H   0  0  0  0  0  0  0  0  0  0  0  0
   -2.6476   12.1994  -32.5007 H   0  0  0  0  0  0  0  0  0  0  0  0
   -3.7222   13.5912  -32.6421 H   0  0  0  0  0  0  0  0  0  0  0  0
   -2.4424   15.4337  -30.1281 H   0  0  0  0  0  0  0  0  0  0  0  0
   -3.2158   15.4258  -31.5592 H   0  0  0  0  0  0  0  0  0  0  0  0
   -1.5354   13.8654  -31.5342 H   0  0  0  0  0  0  0  0  0  0  0  0
   -7.6739    9.4258  -29.5826 H   0  0  0  0  0  0  0  0  0  0  0  0
  1  2  1  0  0  0  0
  1  4  2  0  0  0  0
  2  5  2  0  0  0  0
  3  4  1  0  0  0  0
  3  6  2  0  0  0  0
  4  7  1  0  0  0  0
  5  6  1  0  0  0  0
  5 10  1  0  0  0  0
  6 11  1  0  0  0  0
  7  9  1  0  0  0  0
  8  9  1  0  0  0  0
  1 12  1  0  0  0  0
  2 13  1  0  0  0  0
  3 14  1  0  0  0  0
  7 15  1  0  0  0  0
  7 16  1  0  0  0  0
  8 17  1  0  0  0  0
  8 18  1  0  0  0  0
  9 19  1  0  0  0  0
 10 20  1  0  0  0  0
M  END
> <id>
EN300-1910076

> <smiles>
NNCC=1C=CC(O)=C(Br)C1

> <MDLNUMBER>
MFCD07786471

> <IUPAC Name>
2-bromo-4-(hydrazinylmethyl)phenol

> <CAS>
805181-43-5

> <URL>
https://www.enaminestore.com/catalog/EN300-1910076

> <ROCS_ShapeQuery>
_x1604L0AP1_x0771L0AP1

> <ROCS_TanimotoCombo>
0.958 

> <ROCS_ShapeTanimoto>
0.517 

> <ROCS_ColorTanimoto>
0.440 

> <ROCS_RefTversky>
0.447 

> <ROCS_RefColorTversky>
0.512 

> <ROCS_RefTverskyCombo>
0.959 

> <ROCS_FitTversky>
1.438 

> <ROCS_FitColorTversky>
0.759 

> <ROCS_FitTverskyCombo>
2.197 

> <ROCS_ColorScore>
-4.878

> <ROCS_Overlap>
746.831

> <ROCS_Rank>
315                 

$$$$
untitled-dbase-957_1
  -OEChem-06052310023D

 23 23  0     0  0  0  0  0  0999 V2000
   -5.1158   11.1771  -31.8709 C   0  0  0  0  0  0  0  0  0  0  0  0
   -4.4804   12.3687  -29.8675 C   0  0  0  0  0  0  0  0  0  0  0  0
   -6.0977   10.4942  -31.1533 C   0  0  0  0  0  0  0  0  0  0  0  0
   -6.2711   10.7485  -29.7928 C   0  0  0  0  0  0  0  0  0  0  0  0
   -4.3071   12.1144  -31.2280 C   0  0  0  0  0  0  0  0  0  0  0  0
   -5.4624   11.6858  -29.1499 C   0  0  0  0  0  0  0  0  0  0  0  0
   -6.9287    9.5192  -31.8463 C   0  0  0  0  0  0  0  0  0  0  0  0
   -6.3591    8.7445  -33.0504 C   0  0  0  0  0  0  0  0  0  0  0  0
   -6.9478    7.3502  -33.2364 C   0  0  0  0  0  0  0  0  0  0  0  0
   -6.3673    6.6645  -34.3594 N   0  0  0  0  0  0  0  0  0  0  0  0
   -8.0963    9.2987  -31.4691 O   0  0  0  0  0  0  0  0  0  0  0  0
   -7.2345   10.0724  -29.1012 O   0  0  0  0  0  0  0  0  0  0  0  0
   -3.0955   12.9566  -32.1141 Cl  0  0  0  0  0  0  0  0  0  0  0  0
   -5.6670   12.0596  -27.3024 Br  0  0  0  0  0  0  0  0  0  0  0  0
   -4.9822   10.9769  -32.9319 H   0  0  0  0  0  0  0  0  0  0  0  0
   -3.8474   13.1003  -29.3697 H   0  0  0  0  0  0  0  0  0  0  0  0
   -5.2795    8.6444  -32.8907 H   0  0  0  0  0  0  0  0  0  0  0  0
   -6.5394    9.3365  -33.9548 H   0  0  0  0  0  0  0  0  0  0  0  0
   -8.0307    7.3847  -33.3922 H   0  0  0  0  0  0  0  0  0  0  0  0
   -6.7485    6.7377  -32.3514 H   0  0  0  0  0  0  0  0  0  0  0  0
   -6.7413    5.7390  -34.4139 H   0  0  0  0  0  0  0  0  0  0  0  0
   -6.5823    7.1616  -35.1996 H   0  0  0  0  0  0  0  0  0  0  0  0
   -7.7017    9.4627  -29.6922 H   0  0  0  0  0  0  0  0  0  0  0  0
  1  3  2  0  0  0  0
  1  5  1  0  0  0  0
  2  5  2  0  0  0  0
  2  6  1  0  0  0  0
  3  4  1  0  0  0  0
  3  7  1  0  0  0  0
  4  6  2  0  0  0  0
  4 12  1  0  0  0  0
  5 13  1  0  0  0  0
  6 14  1  0  0  0  0
  7  8  1  0  0  0  0
  7 11  2  0  0  0  0
  8  9  1  0  0  0  0
  9 10  1  0  0  0  0
  1 15  1  0  0  0  0
  2 16  1  0  0  0  0
  8 17  1  0  0  0  0
  8 18  1  0  0  0  0
  9 19  1  0  0  0  0
  9 20  1  0  0  0  0
 10 21  1  0  0  0  0
 10 22  1  0  0  0  0
 12 23  1  0  0  0  0
M  END
> <id>
EN300-1922549

> <smiles>
NCCC(=O)C=1C=C(Cl)C=C(Br)C1O

> <IUPAC Name>
3-amino-1-(3-bromo-5-chloro-2-hydroxyphenyl)propan-1-one

> <CAS>
2229527-97-1

> <URL>
https://www.enaminestore.com/catalog/EN300-1922549

> <ROCS_ShapeQuery>
_x1604L0AP1_x0771L0AP1

> <ROCS_TanimotoCombo>
0.958 

> <ROCS_ShapeTanimoto>
0.551 

> <ROCS_ColorTanimoto>
0.406 

> <ROCS_RefTversky>
0.491 

> <ROCS_RefColorTversky>
0.504 

> <ROCS_RefTverskyCombo>
0.996 

> <ROCS_FitTversky>
1.286 

> <ROCS_FitColorTversky>
0.676 

> <ROCS_FitTverskyCombo>
1.962 

> <ROCS_ColorScore>
-4.826

> <ROCS_Overlap>
823.688

> <ROCS_Rank>
316                 

$$$$
untitled-dbase-289_17
  -OEChem-06052310023D

 20 20  0     0  0  0  0  0  0999 V2000
   -6.4956   12.3845  -34.1887 C   0  0  0  0  0  0  0  0  0  0  0  0
   -4.6125   12.4916  -29.8478 C   0  0  0  0  0  0  0  0  0  0  0  0
   -4.3587   12.1777  -31.1829 C   0  0  0  0  0  0  0  0  0  0  0  0
   -5.5821   11.7841  -29.1371 C   0  0  0  0  0  0  0  0  0  0  0  0
   -5.0747   11.1564  -31.8075 C   0  0  0  0  0  0  0  0  0  0  0  0
   -6.2980   10.7628  -29.7616 C   0  0  0  0  0  0  0  0  0  0  0  0
   -6.0443   10.4489  -31.0968 C   0  0  0  0  0  0  0  0  0  0  0  0
   -5.9688   11.0118  -34.1798 C   0  0  0  0  0  0  0  0  0  0  0  0
   -4.7653   10.8592  -33.2396 C   0  0  0  0  0  0  0  0  0  0  0  0
   -6.9109   13.4679  -34.1978 N   0  0  0  0  0  0  0  0  0  0  0  0
   -7.2384   10.0938  -29.0356 O   0  0  0  0  0  0  0  0  0  0  0  0
   -7.0271    9.0534  -31.9381 Br  0  0  0  0  0  0  0  0  0  0  0  0
   -4.0554   13.2871  -29.3616 H   0  0  0  0  0  0  0  0  0  0  0  0
   -3.6010   12.7355  -31.7273 H   0  0  0  0  0  0  0  0  0  0  0  0
   -5.7745   12.0350  -28.0973 H   0  0  0  0  0  0  0  0  0  0  0  0
   -6.7646   10.3321  -33.8521 H   0  0  0  0  0  0  0  0  0  0  0  0
   -5.6976   10.7139  -35.1994 H   0  0  0  0  0  0  0  0  0  0  0  0
   -3.9724   11.5412  -33.5833 H   0  0  0  0  0  0  0  0  0  0  0  0
   -4.3448    9.8468  -33.3413 H   0  0  0  0  0  0  0  0  0  0  0  0
   -7.6609    9.4136  -29.5824 H   0  0  0  0  0  0  0  0  0  0  0  0
  1  8  1  0  0  0  0
  1 10  3  0  0  0  0
  2  3  2  0  0  0  0
  2  4  1  0  0  0  0
  3  5  1  0  0  0  0
  4  6  2  0  0  0  0
  5  7  2  0  0  0  0
  5  9  1  0  0  0  0
  6  7  1  0  0  0  0
  6 11  1  0  0  0  0
  7 12  1  0  0  0  0
  8  9  1  0  0  0  0
  2 13  1  0  0  0  0
  3 14  1  0  0  0  0
  4 15  1  0  0  0  0
  8 16  1  0  0  0  0
  8 17  1  0  0  0  0
  9 18  1  0  0  0  0
  9 19  1  0  0  0  0
 11 20  1  0  0  0  0
M  END
> <id>
EN300-1897836

> <smiles>
OC=1C=CC=C(CCC#N)C1Br

> <MDLNUMBER>
MFCD28816990

> <IUPAC Name>
3-(2-bromo-3-hydroxyphenyl)propanenitrile

> <CAS>
1806443-04-8

> <URL>
https://www.enaminestore.com/catalog/EN300-1897836

> <ROCS_ShapeQuery>
_x1604L0AP1_x0771L0AP1

> <ROCS_TanimotoCombo>
0.957 

> <ROCS_ShapeTanimoto>
0.460 

> <ROCS_ColorTanimoto>
0.497 

> <ROCS_RefTversky>
0.420 

> <ROCS_RefColorTversky>
0.516 

> <ROCS_RefTverskyCombo>
0.936 

> <ROCS_FitTversky>
1.259 

> <ROCS_FitColorTversky>
0.933 

> <ROCS_FitTverskyCombo>
2.192 

> <ROCS_ColorScore>
-4.882

> <ROCS_Overlap>
703.244

> <ROCS_Rank>
317                 

$$$$
untitled-dbase-1614_8
  -OEChem-06052310023D

 22 22  0     1  0  0  0  0  0999 V2000
   -4.3377   12.1461  -31.2080 C   0  0  0  0  0  0  0  0  0  0  0  0
   -4.5828   12.4796  -29.8761 C   0  0  0  0  0  0  0  0  0  0  0  0
   -5.0672   11.1250  -31.8170 C   0  0  0  0  0  0  0  0  0  0  0  0
   -5.5575   11.7920  -29.1529 C   0  0  0  0  0  0  0  0  0  0  0  0
   -6.2870   10.7709  -29.7618 C   0  0  0  0  0  0  0  0  0  0  0  0
   -6.0419   10.4373  -31.0939 C   0  0  0  0  0  0  0  0  0  0  0  0
   -4.9718   11.3405  -26.7442 C   0  0  0  0  0  0  0  0  0  0  0  0
   -5.8030   12.1645  -27.7277 C   0  0  2  0  0  0  0  0  0  0  0  0
   -7.9095   13.1095  -27.9427 N   0  0  0  0  0  0  0  0  0  0  0  0
   -7.2361   10.1062  -29.0407 O   0  0  0  0  0  0  0  0  0  0  0  0
   -7.1874   11.9618  -27.4250 O   0  0  0  0  0  0  0  0  0  0  0  0
   -7.0125    9.0568  -31.9575 Br  0  0  0  0  0  0  0  0  0  0  0  0
   -3.5792   12.6818  -31.7713 H   0  0  0  0  0  0  0  0  0  0  0  0
   -4.0115   13.2781  -29.4102 H   0  0  0  0  0  0  0  0  0  0  0  0
   -4.8624   10.8795  -32.8560 H   0  0  0  0  0  0  0  0  0  0  0  0
   -5.1407   10.2683  -26.8859 H   0  0  0  0  0  0  0  0  0  0  0  0
   -5.2138   11.5945  -25.7060 H   0  0  0  0  0  0  0  0  0  0  0  0
   -3.9031   11.5452  -26.8715 H   0  0  0  0  0  0  0  0  0  0  0  0
   -5.5940   13.2308  -27.5403 H   0  0  0  0  0  0  0  0  0  0  0  0
   -8.3988   13.4106  -27.1012 H   0  0  0  0  0  0  0  0  0  0  0  0
   -8.5992   12.6413  -28.5283 H   0  0  0  0  0  0  0  0  0  0  0  0
   -7.6580    9.4288  -29.5907 H   0  0  0  0  0  0  0  0  0  0  0  0
  1  2  1  0  0  0  0
  1  3  2  0  0  0  0
  2  4  2  0  0  0  0
  3  6  1  0  0  0  0
  4  5  1  0  0  0  0
  4  8  1  0  0  0  0
  5  6  2  0  0  0  0
  5 10  1  0  0  0  0
  6 12  1  0  0  0  0
  7  8  1  0  0  0  0
  8 11  1  0  0  0  0
  9 11  1  0  0  0  0
  1 13  1  0  0  0  0
  2 14  1  0  0  0  0
  3 15  1  0  0  0  0
  7 16  1  0  0  0  0
  7 17  1  0  0  0  0
  7 18  1  0  0  0  0
  8 19  1  0  0  0  0
  9 20  1  0  0  0  0
  9 21  1  0  0  0  0
 10 22  1  0  0  0  0
M  END
> <id>
EN300-1923136

> <smiles>
CC(ON)C=1C=CC=C(Br)C1O

> <IUPAC Name>
2-[1-(aminooxy)ethyl]-6-bromophenol

> <CAS>
2228580-01-4

> <URL>
https://www.enaminestore.com/catalog/EN300-1923136

> <ROCS_ShapeQuery>
_x1604L0AP1_x0771L0AP1

> <ROCS_TanimotoCombo>
0.957 

> <ROCS_ShapeTanimoto>
0.404 

> <ROCS_ColorTanimoto>
0.553 

> <ROCS_RefTversky>
0.385 

> <ROCS_RefColorTversky>
0.518 

> <ROCS_RefTverskyCombo>
0.903 

> <ROCS_FitTversky>
1.141 

> <ROCS_FitColorTversky>
1.139 

> <ROCS_FitTverskyCombo>
2.280 

> <ROCS_ColorScore>
-4.880

> <ROCS_Overlap>
643.609

> <ROCS_Rank>
318                 

$$$$
untitled-dbase-1098_111
  -OEChem-06052310023D

 26 27  0     0  0  0  0  0  0999 V2000
   -4.3064   12.1989  -31.1393 C   0  0  0  0  0  0  0  0  0  0  0  0
   -5.0589   11.2201  -31.7884 C   0  0  0  0  0  0  0  0  0  0  0  0
   -4.5353   12.4748  -29.7913 C   0  0  0  0  0  0  0  0  0  0  0  0
   -6.0403   10.5172  -31.0895 C   0  0  0  0  0  0  0  0  0  0  0  0
   -6.2692   10.7932  -29.7415 C   0  0  0  0  0  0  0  0  0  0  0  0
   -5.5167   11.7720  -29.0924 C   0  0  0  0  0  0  0  0  0  0  0  0
   -7.3490    8.2990  -30.9928 C   0  0  0  0  0  0  0  0  0  0  0  0
   -6.2196    8.0960  -31.9537 C   0  0  0  0  0  0  0  0  0  0  0  0
   -6.8350    9.4742  -31.8026 C   0  0  0  0  0  0  0  0  0  0  0  0
   -7.6953    9.9883  -32.9220 C   0  0  0  0  0  0  0  0  0  0  0  0
   -6.2850    9.5827  -34.7173 N   0  0  0  0  0  0  0  0  0  0  0  0
   -7.2341   10.0995  -29.0701 O   0  0  0  0  0  0  0  0  0  0  0  0
   -6.8754   10.6262  -33.8951 O   0  0  0  0  0  0  0  0  0  0  0  0
   -5.7985   12.1777  -27.2620 Br  0  0  0  0  0  0  0  0  0  0  0  0
   -3.5432   12.7477  -31.6832 H   0  0  0  0  0  0  0  0  0  0  0  0
   -4.8727   11.0138  -32.8392 H   0  0  0  0  0  0  0  0  0  0  0  0
   -3.9401   13.2422  -29.3025 H   0  0  0  0  0  0  0  0  0  0  0  0
   -8.3124    7.8751  -31.2514 H   0  0  0  0  0  0  0  0  0  0  0  0
   -7.1223    8.2547  -29.9337 H   0  0  0  0  0  0  0  0  0  0  0  0
   -5.2346    7.9141  -31.5392 H   0  0  0  0  0  0  0  0  0  0  0  0
   -6.4227    7.5363  -32.8595 H   0  0  0  0  0  0  0  0  0  0  0  0
   -8.4266   10.7202  -32.5541 H   0  0  0  0  0  0  0  0  0  0  0  0
   -8.2378    9.1689  -33.4120 H   0  0  0  0  0  0  0  0  0  0  0  0
   -5.2965    9.8118  -34.6246 H   0  0  0  0  0  0  0  0  0  0  0  0
   -6.5700    9.8945  -35.6444 H   0  0  0  0  0  0  0  0  0  0  0  0
   -7.2781   10.3978  -28.1490 H   0  0  0  0  0  0  0  0  0  0  0  0
  1  2  1  0  0  0  0
  1  3  2  0  0  0  0
  2  4  2  0  0  0  0
  3  6  1  0  0  0  0
  4  5  1  0  0  0  0
  4  9  1  0  0  0  0
  5  6  2  0  0  0  0
  5 12  1  0  0  0  0
  6 14  1  0  0  0  0
  7  8  1  0  0  0  0
  7  9  1  0  0  0  0
  8  9  1  0  0  0  0
  9 10  1  0  0  0  0
 10 13  1  0  0  0  0
 11 13  1  0  0  0  0
  1 15  1  0  0  0  0
  2 16  1  0  0  0  0
  3 17  1  0  0  0  0
  7 18  1  0  0  0  0
  7 19  1  0  0  0  0
  8 20  1  0  0  0  0
  8 21  1  0  0  0  0
 10 22  1  0  0  0  0
 10 23  1  0  0  0  0
 11 24  1  0  0  0  0
 11 25  1  0  0  0  0
 12 26  1  0  0  0  0
M  END
> <id>
EN300-1923142

> <smiles>
NOCC1(CC1)C=2C=CC=C(Br)C2O

> <IUPAC Name>
2-{1-[(aminooxy)methyl]cyclopropyl}-6-bromophenol

> <CAS>
2228188-50-7

> <URL>
https://www.enaminestore.com/catalog/EN300-1923142

> <ROCS_ShapeQuery>
_x1604L0AP1_x0771L0AP1

> <ROCS_TanimotoCombo>
0.957 

> <ROCS_ShapeTanimoto>
0.561 

> <ROCS_ColorTanimoto>
0.396 

> <ROCS_RefTversky>
0.500 

> <ROCS_RefColorTversky>
0.413 

> <ROCS_RefTverskyCombo>
0.912 

> <ROCS_FitTversky>
1.282 

> <ROCS_FitColorTversky>
0.907 

> <ROCS_FitTverskyCombo>
2.189 

> <ROCS_ColorScore>
-3.886

> <ROCS_Overlap>
838.307

> <ROCS_Rank>
319                 

$$$$
untitled-dbase-2287_0
  -OEChem-06052310023D

 16 16  0     0  0  0  0  0  0999 V2000
   -4.5776   12.4733  -29.8575 C   0  0  0  0  0  0  0  0  0  0  0  0
   -5.0592   11.1260  -31.8042 C   0  0  0  0  0  0  0  0  0  0  0  0
   -5.5562   11.7859  -29.1396 C   0  0  0  0  0  0  0  0  0  0  0  0
   -6.2863   10.7685  -29.7540 C   0  0  0  0  0  0  0  0  0  0  0  0
   -4.3291   12.1434  -31.1898 C   0  0  0  0  0  0  0  0  0  0  0  0
   -6.0378   10.4385  -31.0863 C   0  0  0  0  0  0  0  0  0  0  0  0
   -5.8062   12.1552  -27.7142 C   0  0  0  0  0  0  0  0  0  0  0  0
   -7.2406   10.1055  -29.0382 O   0  0  0  0  0  0  0  0  0  0  0  0
   -3.0033   13.0752  -32.1625 Br  0  0  0  0  0  0  0  0  0  0  0  0
   -7.0093    9.0620  -31.9560 Br  0  0  0  0  0  0  0  0  0  0  0  0
   -4.0117   13.2656  -29.3728 H   0  0  0  0  0  0  0  0  0  0  0  0
   -4.8640   10.8702  -32.8437 H   0  0  0  0  0  0  0  0  0  0  0  0
   -6.5732   12.9358  -27.6530 H   0  0  0  0  0  0  0  0  0  0  0  0
   -6.1430   11.2877  -27.1333 H   0  0  0  0  0  0  0  0  0  0  0  0
   -4.8916   12.5251  -27.2344 H   0  0  0  0  0  0  0  0  0  0  0  0
   -7.6624    9.4307  -29.5915 H   0  0  0  0  0  0  0  0  0  0  0  0
  1  3  2  0  0  0  0
  1  5  1  0  0  0  0
  2  5  2  0  0  0  0
  2  6  1  0  0  0  0
  3  4  1  0  0  0  0
  3  7  1  0  0  0  0
  4  6  2  0  0  0  0
  4  8  1  0  0  0  0
  5  9  1  0  0  0  0
  6 10  1  0  0  0  0
  1 11  1  0  0  0  0
  2 12  1  0  0  0  0
  7 13  1  0  0  0  0
  7 14  1  0  0  0  0
  7 15  1  0  0  0  0
  8 16  1  0  0  0  0
M  END
> <id>
EN300-18142

> <smiles>
CC=1C=C(Br)C=C(Br)C1O

> <MDLNUMBER>
MFCD00152390

> <IUPAC Name>
2,4-dibromo-6-methylphenol

> <CAS>
609-22-3

> <Purity>
95

> <URL>
https://www.enaminestore.com/catalog/EN300-18142

> <MP>
56-58

> <ROCS_ShapeQuery>
_x1604L0AP1_x0771L0AP1

> <ROCS_TanimotoCombo>
0.957 

> <ROCS_ShapeTanimoto>
0.460 

> <ROCS_ColorTanimoto>
0.497 

> <ROCS_RefTversky>
0.404 

> <ROCS_RefColorTversky>
0.516 

> <ROCS_RefTverskyCombo>
0.920 

> <ROCS_FitTversky>
1.428 

> <ROCS_FitColorTversky>
0.932 

> <ROCS_FitTverskyCombo>
2.360 

> <ROCS_ColorScore>
-4.881

> <ROCS_Overlap>
674.726

> <ROCS_Rank>
320                 

$$$$
untitled-dbase-133_0
  -OEChem-06052310023D

 23 24  0     0  0  0  0  0  0999 V2000
   -5.5074   11.2793  -33.3985 C   0  0  0  0  0  0  0  0  0  0  0  0
   -4.4694   12.1569  -31.3601 C   0  0  0  0  0  0  0  0  0  0  0  0
   -6.4850   10.4989  -34.0163 C   0  0  0  0  0  0  0  0  0  0  0  0
   -4.4239   12.2418  -29.9683 C   0  0  0  0  0  0  0  0  0  0  0  0
   -7.3680    9.8908  -31.8534 C   0  0  0  0  0  0  0  0  0  0  0  0
   -5.4466   11.3762  -31.9988 C   0  0  0  0  0  0  0  0  0  0  0  0
   -6.3909   10.6716  -31.2147 C   0  0  0  0  0  0  0  0  0  0  0  0
   -7.4135    9.8060  -33.2452 C   0  0  0  0  0  0  0  0  0  0  0  0
   -6.3302   10.7685  -29.8149 C   0  0  0  0  0  0  0  0  0  0  0  0
   -5.3525   11.5489  -29.1972 C   0  0  0  0  0  0  0  0  0  0  0  0
   -8.3561    9.0035  -35.2758 C   0  0  0  0  0  0  0  0  0  0  0  0
   -7.2353   10.0926  -29.0430 O   0  0  0  0  0  0  0  0  0  0  0  0
   -8.3670    9.0453  -33.8498 O   0  0  0  0  0  0  0  0  0  0  0  0
   -5.2520   11.6949  -27.3087 Br  0  0  0  0  0  0  0  0  0  0  0  0
   -4.7923   11.8127  -34.0212 H   0  0  0  0  0  0  0  0  0  0  0  0
   -3.7338   12.7072  -31.9436 H   0  0  0  0  0  0  0  0  0  0  0  0
   -6.5158   10.4367  -35.1006 H   0  0  0  0  0  0  0  0  0  0  0  0
   -3.6552   12.8547  -29.5046 H   0  0  0  0  0  0  0  0  0  0  0  0
   -8.1074    9.3385  -31.2767 H   0  0  0  0  0  0  0  0  0  0  0  0
   -9.1674    8.3619  -35.6284 H   0  0  0  0  0  0  0  0  0  0  0  0
   -7.3945    8.6168  -35.6226 H   0  0  0  0  0  0  0  0  0  0  0  0
   -8.5005   10.0152  -35.6622 H   0  0  0  0  0  0  0  0  0  0  0  0
   -7.0604   10.2618  -28.1061 H   0  0  0  0  0  0  0  0  0  0  0  0
  1  3  1  0  0  0  0
  1  6  2  0  0  0  0
  2  4  2  0  0  0  0
  2  6  1  0  0  0  0
  3  8  2  0  0  0  0
  4 10  1  0  0  0  0
  5  7  2  0  0  0  0
  5  8  1  0  0  0  0
  6  7  1  0  0  0  0
  7  9  1  0  0  0  0
  8 13  1  0  0  0  0
  9 10  2  0  0  0  0
  9 12  1  0  0  0  0
 10 14  1  0  0  0  0
 11 13  1  0  0  0  0
  1 15  1  0  0  0  0
  2 16  1  0  0  0  0
  3 17  1  0  0  0  0
  4 18  1  0  0  0  0
  5 19  1  0  0  0  0
 11 20  1  0  0  0  0
 11 21  1  0  0  0  0
 11 22  1  0  0  0  0
 12 23  1  0  0  0  0
M  END
> <id>
EN300-1144192

> <smiles>
COC=1C=CC=2C=CC(Br)=C(O)C2C1

> <MDLNUMBER>
MFCD21875091

> <IUPAC Name>
2-bromo-7-methoxynaphthalen-1-ol

> <CAS>
857091-21-5

> <URL>
https://www.enaminestore.com/catalog/EN300-1144192

> <ROCS_ShapeQuery>
_x1604L0AP1_x0771L0AP1

> <ROCS_TanimotoCombo>
0.957 

> <ROCS_ShapeTanimoto>
0.513 

> <ROCS_ColorTanimoto>
0.444 

> <ROCS_RefTversky>
0.476 

> <ROCS_RefColorTversky>
0.508 

> <ROCS_RefTverskyCombo>
0.983 

> <ROCS_FitTversky>
1.179 

> <ROCS_FitColorTversky>
0.780 

> <ROCS_FitTverskyCombo>
1.959 

> <ROCS_ColorScore>
-4.830

> <ROCS_Overlap>
799.210

> <ROCS_Rank>
321                 

$$$$
untitled-dbase-761_55
  -OEChem-06052310023D

 29 31  0     0  0  0  0  0  0999 V2000
   -4.6127   12.4955  -29.8583 C   0  0  0  0  0  0  0  0  0  0  0  0
   -4.3598   12.1754  -31.1922 C   0  0  0  0  0  0  0  0  0  0  0  0
   -5.5807   11.7903  -29.1433 C   0  0  0  0  0  0  0  0  0  0  0  0
   -5.0751   11.1502  -31.8111 C   0  0  0  0  0  0  0  0  0  0  0  0
   -6.2960   10.7651  -29.7622 C   0  0  0  0  0  0  0  0  0  0  0  0
   -6.0432   10.4450  -31.0961 C   0  0  0  0  0  0  0  0  0  0  0  0
   -3.6877    9.8132  -33.5027 C   0  0  0  0  0  0  0  0  0  0  0  0
   -3.4000   11.2611  -33.7495 C   0  0  0  0  0  0  0  0  0  0  0  0
   -6.4370    9.7121  -34.9533 C   0  0  0  0  0  0  0  0  0  0  0  0
   -5.8106   10.8696  -35.6748 C   0  0  0  0  0  0  0  0  0  0  0  0
   -4.7701   10.8459  -33.2444 C   0  0  0  0  0  0  0  0  0  0  0  0
   -5.9978   10.9326  -34.1752 C   0  0  0  0  0  0  0  0  0  0  0  0
   -7.0693   11.8288  -33.6635 N   0  0  0  0  0  0  0  0  0  0  0  0
   -7.2360   10.1003  -29.0318 O   0  0  0  0  0  0  0  0  0  0  0  0
   -7.0314    9.0474  -31.9293 Br  0  0  0  0  0  0  0  0  0  0  0  0
   -4.0551   13.2936  -29.3770 H   0  0  0  0  0  0  0  0  0  0  0  0
   -3.6021   12.7310  -31.7389 H   0  0  0  0  0  0  0  0  0  0  0  0
   -5.7718   12.0461  -28.1047 H   0  0  0  0  0  0  0  0  0  0  0  0
   -3.7913    9.1667  -34.3665 H   0  0  0  0  0  0  0  0  0  0  0  0
   -3.2004    9.3406  -32.6577 H   0  0  0  0  0  0  0  0  0  0  0  0
   -2.7205   11.7627  -33.0703 H   0  0  0  0  0  0  0  0  0  0  0  0
   -3.3102   11.5860  -34.7796 H   0  0  0  0  0  0  0  0  0  0  0  0
   -7.4964    9.5400  -35.1030 H   0  0  0  0  0  0  0  0  0  0  0  0
   -5.8530    8.8042  -34.8586 H   0  0  0  0  0  0  0  0  0  0  0  0
   -4.8075   10.7361  -36.0626 H   0  0  0  0  0  0  0  0  0  0  0  0
   -6.4502   11.4738  -36.3074 H   0  0  0  0  0  0  0  0  0  0  0  0
   -7.5706   12.1479  -34.4482 H   0  0  0  0  0  0  0  0  0  0  0  0
   -7.6288   11.2861  -33.0624 H   0  0  0  0  0  0  0  0  0  0  0  0
   -7.6584    9.4165  -29.5744 H   0  0  0  0  0  0  0  0  0  0  0  0
  1  2  1  0  0  0  0
  1  3  2  0  0  0  0
  2  4  2  0  0  0  0
  3  5  1  0  0  0  0
  4  6  1  0  0  0  0
  4 11  1  0  0  0  0
  5  6  2  0  0  0  0
  5 14  1  0  0  0  0
  6 15  1  0  0  0  0
  7  8  1  0  0  0  0
  7 11  1  0  0  0  0
  8 11  1  0  0  0  0
  9 10  1  0  0  0  0
  9 12  1  0  0  0  0
 10 12  1  0  0  0  0
 11 12  1  0  0  0  0
 12 13  1  0  0  0  0
  1 16  1  0  0  0  0
  2 17  1  0  0  0  0
  3 18  1  0  0  0  0
  7 19  1  0  0  0  0
  7 20  1  0  0  0  0
  8 21  1  0  0  0  0
  8 22  1  0  0  0  0
  9 23  1  0  0  0  0
  9 24  1  0  0  0  0
 10 25  1  0  0  0  0
 10 26  1  0  0  0  0
 13 27  1  0  0  0  0
 13 28  1  0  0  0  0
 14 29  1  0  0  0  0
M  END
> <id>
EN300-1904815

> <smiles>
NC1(CC1)C2(CC2)C=3C=CC=C(O)C3Br

> <IUPAC Name>
3-[1-(1-aminocyclopropyl)cyclopropyl]-2-bromophenol

> <CAS>
2229596-95-4

> <URL>
https://www.enaminestore.com/catalog/EN300-1904815

> <ROCS_ShapeQuery>
_x1604L0AP1_x0771L0AP1

> <ROCS_TanimotoCombo>
0.957 

> <ROCS_ShapeTanimoto>
0.506 

> <ROCS_ColorTanimoto>
0.451 

> <ROCS_RefTversky>
0.476 

> <ROCS_RefColorTversky>
0.513 

> <ROCS_RefTverskyCombo>
0.990 

> <ROCS_FitTversky>
1.138 

> <ROCS_FitColorTversky>
0.789 

> <ROCS_FitTverskyCombo>
1.927 

> <ROCS_ColorScore>
-4.882

> <ROCS_Overlap>
800.810

> <ROCS_Rank>
322                 

$$$$
untitled-dbase-279_2
  -OEChem-06052310023D

 17 17  0     0  0  0  0  0  0999 V2000
   -4.5795   12.4716  -29.8687 C   0  0  0  0  0  0  0  0  0  0  0  0
   -5.0660   11.1239  -31.8140 C   0  0  0  0  0  0  0  0  0  0  0  0
   -5.5561   11.7841  -29.1482 C   0  0  0  0  0  0  0  0  0  0  0  0
   -6.2876   10.7664  -29.7605 C   0  0  0  0  0  0  0  0  0  0  0  0
   -4.3345   12.1415  -31.2017 C   0  0  0  0  0  0  0  0  0  0  0  0
   -6.0426   10.4363  -31.0935 C   0  0  0  0  0  0  0  0  0  0  0  0
   -4.9913   13.1694  -27.2995 C   0  0  0  0  0  0  0  0  0  0  0  0
   -7.2385   10.1057  -29.0389 O   0  0  0  0  0  0  0  0  0  0  0  0
   -5.7837   12.1176  -27.8469 O   0  0  0  0  0  0  0  0  0  0  0  0
   -3.1290   12.9901  -32.0903 Cl  0  0  0  0  0  0  0  0  0  0  0  0
   -7.0167    9.0597  -31.9595 Br  0  0  0  0  0  0  0  0  0  0  0  0
   -4.0129   13.2636  -29.3846 H   0  0  0  0  0  0  0  0  0  0  0  0
   -4.8721   10.8699  -32.8540 H   0  0  0  0  0  0  0  0  0  0  0  0
   -5.2734   13.3344  -26.2568 H   0  0  0  0  0  0  0  0  0  0  0  0
   -5.1463   14.0830  -27.8790 H   0  0  0  0  0  0  0  0  0  0  0  0
   -3.9380   12.8835  -27.3487 H   0  0  0  0  0  0  0  0  0  0  0  0
   -7.2776   10.4590  -28.1371 H   0  0  0  0  0  0  0  0  0  0  0  0
  1  3  2  0  0  0  0
  1  5  1  0  0  0  0
  2  5  2  0  0  0  0
  2  6  1  0  0  0  0
  3  4  1  0  0  0  0
  3  9  1  0  0  0  0
  4  6  2  0  0  0  0
  4  8  1  0  0  0  0
  5 10  1  0  0  0  0
  6 11  1  0  0  0  0
  7  9  1  0  0  0  0
  1 12  1  0  0  0  0
  2 13  1  0  0  0  0
  7 14  1  0  0  0  0
  7 15  1  0  0  0  0
  7 16  1  0  0  0  0
  8 17  1  0  0  0  0
M  END
> <id>
EN300-1897198

> <smiles>
COC=1C=C(Cl)C=C(Br)C1O

> <MDLNUMBER>
MFCD22414703

> <IUPAC Name>
2-bromo-4-chloro-6-methoxyphenol

> <CAS>
1430807-43-4

> <Purity>
95

> <URL>
https://www.enaminestore.com/catalog/EN300-1897198

> <ROCS_ShapeQuery>
_x1604L0AP1_x0771L0AP1

> <ROCS_TanimotoCombo>
0.957 

> <ROCS_ShapeTanimoto>
0.460 

> <ROCS_ColorTanimoto>
0.497 

> <ROCS_RefTversky>
0.413 

> <ROCS_RefColorTversky>
0.516 

> <ROCS_RefTverskyCombo>
0.929 

> <ROCS_FitTversky>
1.325 

> <ROCS_FitColorTversky>
0.932 

> <ROCS_FitTverskyCombo>
2.257 

> <ROCS_ColorScore>
-4.881

> <ROCS_Overlap>
690.100

> <ROCS_Rank>
323                 

$$$$
untitled-dbase-294_428
  -OEChem-06052310023D

 22 22  0     0  0  0  0  0  0999 V2000
   -4.2849   12.4088  -30.9323 C   0  0  0  0  0  0  0  0  0  0  0  0
   -4.9807   11.4900  -31.7179 C   0  0  0  0  0  0  0  0  0  0  0  0
   -4.5683   12.5182  -29.5709 C   0  0  0  0  0  0  0  0  0  0  0  0
   -5.9600   10.6806  -31.1422 C   0  0  0  0  0  0  0  0  0  0  0  0
   -6.2435   10.7900  -29.7808 C   0  0  0  0  0  0  0  0  0  0  0  0
   -5.5476   11.7088  -28.9951 C   0  0  0  0  0  0  0  0  0  0  0  0
   -6.3148    8.0089  -33.8627 C   0  0  0  0  0  0  0  0  0  0  0  0
   -5.7321    8.6926  -32.6445 C   0  0  0  0  0  0  0  0  0  0  0  0
   -6.6938    9.7045  -32.0018 C   0  0  0  0  0  0  0  0  0  0  0  0
   -6.5066    6.8070  -33.9820 O   0  0  0  0  0  0  0  0  0  0  0  0
   -7.2055    9.9923  -29.2324 O   0  0  0  0  0  0  0  0  0  0  0  0
   -6.6104    8.9065  -34.8397 O   0  0  0  0  0  0  0  0  0  0  0  0
   -7.6393    8.9973  -31.3040 F   0  0  0  0  0  0  0  0  0  0  0  0
   -7.3933   10.3151  -33.0112 F   0  0  0  0  0  0  0  0  0  0  0  0
   -5.9026   11.8869  -27.1414 Br  0  0  0  0  0  0  0  0  0  0  0  0
   -3.5220   13.0388  -31.3804 H   0  0  0  0  0  0  0  0  0  0  0  0
   -4.7519   11.4097  -32.7773 H   0  0  0  0  0  0  0  0  0  0  0  0
   -4.0153   13.2396  -28.9746 H   0  0  0  0  0  0  0  0  0  0  0  0
   -4.8163    9.2058  -32.9606 H   0  0  0  0  0  0  0  0  0  0  0  0
   -5.4800    7.9121  -31.9171 H   0  0  0  0  0  0  0  0  0  0  0  0
   -7.2918   10.1785  -28.2851 H   0  0  0  0  0  0  0  0  0  0  0  0
   -6.9924    8.5188  -35.6562 H   0  0  0  0  0  0  0  0  0  0  0  0
  1  2  1  0  0  0  0
  1  3  2  0  0  0  0
  2  4  2  0  0  0  0
  3  6  1  0  0  0  0
  4  5  1  0  0  0  0
  4  9  1  0  0  0  0
  5  6  2  0  0  0  0
  5 11  1  0  0  0  0
  6 15  1  0  0  0  0
  7  8  1  0  0  0  0
  7 10  2  0  0  0  0
  7 12  1  0  0  0  0
  8  9  1  0  0  0  0
  9 13  1  0  0  0  0
  9 14  1  0  0  0  0
  1 16  1  0  0  0  0
  2 17  1  0  0  0  0
  3 18  1  0  0  0  0
  8 19  1  0  0  0  0
  8 20  1  0  0  0  0
 11 21  1  0  0  0  0
 12 22  1  0  0  0  0
M  END
> <id>
EN300-1963221

> <smiles>
OC(=O)CC(F)(F)C=1C=CC=C(Br)C1O

> <IUPAC Name>
3-(3-bromo-2-hydroxyphenyl)-3,3-difluoropropanoic acid

> <CAS>
2228657-71-2

> <URL>
https://www.enaminestore.com/catalog/EN300-1963221

> <ROCS_ShapeQuery>
_x1604L0AP1_x0771L0AP1

> <ROCS_TanimotoCombo>
0.956 

> <ROCS_ShapeTanimoto>
0.597 

> <ROCS_ColorTanimoto>
0.359 

> <ROCS_RefTversky>
0.532 

> <ROCS_RefColorTversky>
0.462 

> <ROCS_RefTverskyCombo>
0.994 

> <ROCS_FitTversky>
1.259 

> <ROCS_FitColorTversky>
0.618 

> <ROCS_FitTverskyCombo>
1.878 

> <ROCS_ColorScore>
-4.417

> <ROCS_Overlap>
893.864

> <ROCS_Rank>
324                 

$$$$
untitled-dbase-1159_58
  -OEChem-06052310023D

 28 29  0     0  0  0  0  0  0999 V2000
   -6.2089   11.1123  -33.1862 C   0  0  0  0  0  0  0  0  0  0  0  0
   -5.9966   12.0171  -32.1461 C   0  0  0  0  0  0  0  0  0  0  0  0
   -6.7433    9.8524  -32.9165 C   0  0  0  0  0  0  0  0  0  0  0  0
   -6.3187   11.6619  -30.8362 C   0  0  0  0  0  0  0  0  0  0  0  0
   -6.8530   10.4020  -30.5664 C   0  0  0  0  0  0  0  0  0  0  0  0
   -7.0653    9.4972  -31.6066 C   0  0  0  0  0  0  0  0  0  0  0  0
   -4.5661    8.2043  -34.8138 C   0  0  0  0  0  0  0  0  0  0  0  0
   -4.6575    7.9568  -33.3335 C   0  0  0  0  0  0  0  0  0  0  0  0
   -5.8924    7.8663  -34.1885 C   0  0  0  0  0  0  0  0  0  0  0  0
   -4.8321   12.5199  -29.1900 C   0  0  0  0  0  0  0  0  0  0  0  0
   -6.9556    8.9064  -34.0841 C   0  0  0  0  0  0  0  0  0  0  0  0
   -7.1602   10.0780  -29.2768 O   0  0  0  0  0  0  0  0  0  0  0  0
   -6.3907    6.5430  -34.4462 O   0  0  0  0  0  0  0  0  0  0  0  0
   -6.1056   12.5566  -29.8310 O   0  0  0  0  0  0  0  0  0  0  0  0
   -7.8034    7.7835  -31.2309 Br  0  0  0  0  0  0  0  0  0  0  0  0
   -5.9548   11.3997  -34.2032 H   0  0  0  0  0  0  0  0  0  0  0  0
   -5.5811   12.9974  -32.3633 H   0  0  0  0  0  0  0  0  0  0  0  0
   -4.3927    9.2218  -35.1428 H   0  0  0  0  0  0  0  0  0  0  0  0
   -4.0787    7.4509  -35.4208 H   0  0  0  0  0  0  0  0  0  0  0  0
   -4.2309    7.0379  -32.9494 H   0  0  0  0  0  0  0  0  0  0  0  0
   -4.5456    8.8091  -32.6742 H   0  0  0  0  0  0  0  0  0  0  0  0
   -4.7943   13.2833  -28.4090 H   0  0  0  0  0  0  0  0  0  0  0  0
   -4.0463   12.6994  -29.9282 H   0  0  0  0  0  0  0  0  0  0  0  0
   -4.6887   11.5345  -28.7404 H   0  0  0  0  0  0  0  0  0  0  0  0
   -7.9573    8.4460  -33.9807 H   0  0  0  0  0  0  0  0  0  0  0  0
   -7.0196    9.5080  -35.0115 H   0  0  0  0  0  0  0  0  0  0  0  0
   -6.9499   10.8191  -28.6885 H   0  0  0  0  0  0  0  0  0  0  0  0
   -6.4837    6.4780  -35.4059 H   0  0  0  0  0  0  0  0  0  0  0  0
  1  2  1  0  0  0  0
  1  3  2  0  0  0  0
  2  4  2  0  0  0  0
  3  6  1  0  0  0  0
  3 11  1  0  0  0  0
  4  5  1  0  0  0  0
  4 14  1  0  0  0  0
  5  6  2  0  0  0  0
  5 12  1  0  0  0  0
  6 15  1  0  0  0  0
  7  8  1  0  0  0  0
  7  9  1  0  0  0  0
  8  9  1  0  0  0  0
  9 11  1  0  0  0  0
  9 13  1  0  0  0  0
 10 14  1  0  0  0  0
  1 16  1  0  0  0  0
  2 17  1  0  0  0  0
  7 18  1  0  0  0  0
  7 19  1  0  0  0  0
  8 20  1  0  0  0  0
  8 21  1  0  0  0  0
 10 22  1  0  0  0  0
 10 23  1  0  0  0  0
 10 24  1  0  0  0  0
 11 25  1  0  0  0  0
 11 26  1  0  0  0  0
 12 27  1  0  0  0  0
 13 28  1  0  0  0  0
M  END
> <id>
EN300-1936268

> <smiles>
COC=1C=CC(CC2(O)CC2)=C(Br)C1O

> <IUPAC Name>
2-bromo-3-[(1-hydroxycyclopropyl)methyl]-6-methoxyphenol

> <CAS>
2228338-83-6

> <URL>
https://www.enaminestore.com/catalog/EN300-1936268

> <ROCS_ShapeQuery>
_x1604L0AP1_x0771L0AP1

> <ROCS_TanimotoCombo>
0.956 

> <ROCS_ShapeTanimoto>
0.489 

> <ROCS_ColorTanimoto>
0.467 

> <ROCS_RefTversky>
0.465 

> <ROCS_RefColorTversky>
0.556 

> <ROCS_RefTverskyCombo>
1.021 

> <ROCS_FitTversky>
1.119 

> <ROCS_FitColorTversky>
0.745 

> <ROCS_FitTverskyCombo>
1.864 

> <ROCS_ColorScore>
-5.316

> <ROCS_Overlap>
781.721

> <ROCS_Rank>
325                 

$$$$
untitled-dbase-336_285
  -OEChem-06052310023D

 29 30  0     0  0  0  0  0  0999 V2000
   -1.9075   14.8070  -30.7163 C   0  0  0  0  0  0  0  0  0  0  0  0
   -2.5275   13.9352  -31.2610 C   0  0  0  0  0  0  0  0  0  0  0  0
   -4.5824   12.4669  -29.8303 C   0  0  0  0  0  0  0  0  0  0  0  0
   -5.0512   11.1309  -31.7880 C   0  0  0  0  0  0  0  0  0  0  0  0
   -4.3249   12.1445  -31.1627 C   0  0  0  0  0  0  0  0  0  0  0  0
   -5.5662   11.7757  -29.1231 C   0  0  0  0  0  0  0  0  0  0  0  0
   -6.2925   10.7622  -29.7483 C   0  0  0  0  0  0  0  0  0  0  0  0
   -6.0350   10.4398  -31.0808 C   0  0  0  0  0  0  0  0  0  0  0  0
   -3.5205   13.0917  -33.4126 C   0  0  0  0  0  0  0  0  0  0  0  0
   -2.5017   12.0924  -32.9730 C   0  0  0  0  0  0  0  0  0  0  0  0
   -3.2746   12.8842  -31.9182 C   0  0  0  0  0  0  0  0  0  0  0  0
   -7.4272   13.8009  -28.2895 C   0  0  0  0  0  0  0  0  0  0  0  0
   -7.1224   12.5467  -27.4984 C   0  0  0  0  0  0  0  0  0  0  0  0
   -7.2504   10.0978  -29.0396 O   0  0  0  0  0  0  0  0  0  0  0  0
   -5.8068   12.1013  -27.8224 O   0  0  0  0  0  0  0  0  0  0  0  0
   -7.0022    9.0701  -31.9655 Br  0  0  0  0  0  0  0  0  0  0  0  0
   -1.3577   15.5804  -30.2329 H   0  0  0  0  0  0  0  0  0  0  0  0
   -4.0184   13.2569  -29.3403 H   0  0  0  0  0  0  0  0  0  0  0  0
   -4.8447   10.8865  -32.8277 H   0  0  0  0  0  0  0  0  0  0  0  0
   -3.1618   13.9996  -33.8853 H   0  0  0  0  0  0  0  0  0  0  0  0
   -4.4400   12.7137  -33.8461 H   0  0  0  0  0  0  0  0  0  0  0  0
   -2.7360   11.0423  -33.1085 H   0  0  0  0  0  0  0  0  0  0  0  0
   -1.4578   12.3280  -33.1492 H   0  0  0  0  0  0  0  0  0  0  0  0
   -6.7191   14.5978  -28.0456 H   0  0  0  0  0  0  0  0  0  0  0  0
   -7.3775   13.6006  -29.3648 H   0  0  0  0  0  0  0  0  0  0  0  0
   -8.4422   14.1534  -28.0780 H   0  0  0  0  0  0  0  0  0  0  0  0
   -7.8341   11.7538  -27.7470 H   0  0  0  0  0  0  0  0  0  0  0  0
   -7.1717   12.7488  -26.4243 H   0  0  0  0  0  0  0  0  0  0  0  0
   -7.6709    9.4254  -29.5970 H   0  0  0  0  0  0  0  0  0  0  0  0
  1  2  3  0  0  0  0
  2 11  1  0  0  0  0
  3  5  1  0  0  0  0
  3  6  2  0  0  0  0
  4  5  2  0  0  0  0
  4  8  1  0  0  0  0
  5 11  1  0  0  0  0
  6  7  1  0  0  0  0
  6 15  1  0  0  0  0
  7  8  2  0  0  0  0
  7 14  1  0  0  0  0
  8 16  1  0  0  0  0
  9 10  1  0  0  0  0
  9 11  1  0  0  0  0
 10 11  1  0  0  0  0
 12 13  1  0  0  0  0
 13 15  1  0  0  0  0
  1 17  1  0  0  0  0
  3 18  1  0  0  0  0
  4 19  1  0  0  0  0
  9 20  1  0  0  0  0
  9 21  1  0  0  0  0
 10 22  1  0  0  0  0
 10 23  1  0  0  0  0
 12 24  1  0  0  0  0
 12 25  1  0  0  0  0
 12 26  1  0  0  0  0
 13 27  1  0  0  0  0
 13 28  1  0  0  0  0
 14 29  1  0  0  0  0
M  END
> <id>
EN300-1920247

> <smiles>
CCOC=1C=C(C=C(Br)C1O)C2(CC2)C#C

> <IUPAC Name>
2-bromo-6-ethoxy-4-(1-ethynylcyclopropyl)phenol

> <CAS>
2228301-23-1

> <URL>
https://www.enaminestore.com/catalog/EN300-1920247

> <ROCS_ShapeQuery>
_x1604L0AP1_x0771L0AP1

> <ROCS_TanimotoCombo>
0.956 

> <ROCS_ShapeTanimoto>
0.505 

> <ROCS_ColorTanimoto>
0.451 

> <ROCS_RefTversky>
0.483 

> <ROCS_RefColorTversky>
0.513 

> <ROCS_RefTverskyCombo>
0.996 

> <ROCS_FitTversky>
1.100 

> <ROCS_FitColorTversky>
0.789 

> <ROCS_FitTverskyCombo>
1.889 

> <ROCS_ColorScore>
-4.881

> <ROCS_Overlap>
812.673

> <ROCS_Rank>
326                 

$$$$
untitled-dbase-1583_107
  -OEChem-06052310023D

 21 21  0     0  0  0  0  0  0999 V2000
   -4.3460   12.1599  -31.2116 C   0  0  0  0  0  0  0  0  0  0  0  0
   -5.1183   11.1771  -31.8306 C   0  0  0  0  0  0  0  0  0  0  0  0
   -4.5424   12.4543  -29.8623 C   0  0  0  0  0  0  0  0  0  0  0  0
   -6.0872   10.4888  -31.1004 C   0  0  0  0  0  0  0  0  0  0  0  0
   -6.2837   10.7832  -29.7512 C   0  0  0  0  0  0  0  0  0  0  0  0
   -5.5113   11.7660  -29.1321 C   0  0  0  0  0  0  0  0  0  0  0  0
   -6.9038    9.4413  -31.7831 C   0  0  0  0  0  0  0  0  0  0  0  0
   -6.3694    9.0548  -33.1663 C   0  0  0  0  0  0  0  0  0  0  0  0
   -6.6455    9.8338  -36.3613 N   0  5  0  0  0  0  0  0  0  0  0  0
   -6.3356   10.2367  -34.0320 N   0  0  0  0  0  0  0  0  0  0  0  0
   -6.4976   10.0219  -35.2461 N   0  3  0  0  0  0  0  0  0  0  0  0
   -7.2366   10.1023  -29.0506 O   0  0  0  0  0  0  0  0  0  0  0  0
   -5.7470   12.1946  -27.3005 Br  0  0  0  0  0  0  0  0  0  0  0  0
   -3.5912   12.6956  -31.7799 H   0  0  0  0  0  0  0  0  0  0  0  0
   -4.9570   10.9524  -32.8816 H   0  0  0  0  0  0  0  0  0  0  0  0
   -3.9306   13.2231  -29.3970 H   0  0  0  0  0  0  0  0  0  0  0  0
   -6.9781    8.5380  -31.1548 H   0  0  0  0  0  0  0  0  0  0  0  0
   -7.9391    9.8035  -31.8944 H   0  0  0  0  0  0  0  0  0  0  0  0
   -5.3509    8.6627  -33.0798 H   0  0  0  0  0  0  0  0  0  0  0  0
   -6.9868    8.2777  -33.6294 H   0  0  0  0  0  0  0  0  0  0  0  0
   -7.2591   10.4117  -28.1324 H   0  0  0  0  0  0  0  0  0  0  0  0
  1  2  1  0  0  0  0
  1  3  2  0  0  0  0
  2  4  2  0  0  0  0
  3  6  1  0  0  0  0
  4  5  1  0  0  0  0
  4  7  1  0  0  0  0
  5  6  2  0  0  0  0
  5 12  1  0  0  0  0
  6 13  1  0  0  0  0
  7  8  1  0  0  0  0
  8 10  1  0  0  0  0
  9 11  2  0  0  0  0
 10 11  2  0  0  0  0
  1 14  1  0  0  0  0
  2 15  1  0  0  0  0
  3 16  1  0  0  0  0
  7 17  1  0  0  0  0
  7 18  1  0  0  0  0
  8 19  1  0  0  0  0
  8 20  1  0  0  0  0
 12 21  1  0  0  0  0
M  CHG  2   9  -1  11   1
M  END
> <id>
EN300-1923474

> <smiles>
OC=1C(Br)=CC=CC1CCN=[N+]=[N-]

> <IUPAC Name>
2-(2-azidoethyl)-6-bromophenol

> <CAS>
2228205-25-0

> <URL>
https://www.enaminestore.com/catalog/EN300-1923474

> <ROCS_ShapeQuery>
_x1604L0AP1_x0771L0AP1

> <ROCS_TanimotoCombo>
0.956 

> <ROCS_ShapeTanimoto>
0.560 

> <ROCS_ColorTanimoto>
0.396 

> <ROCS_RefTversky>
0.489 

> <ROCS_RefColorTversky>
0.413 

> <ROCS_RefTverskyCombo>
0.901 

> <ROCS_FitTversky>
1.353 

> <ROCS_FitColorTversky>
0.907 

> <ROCS_FitTverskyCombo>
2.260 

> <ROCS_ColorScore>
-3.886

> <ROCS_Overlap>
818.963

> <ROCS_Rank>
327                 

$$$$
untitled-dbase-1462_5
  -OEChem-06052310023D

 19 19  0     0  0  0  0  0  0999 V2000
   -4.6470   12.4744  -31.2113 C   0  0  0  0  0  0  0  0  0  0  0  0
   -5.2702   11.3944  -31.8365 C   0  0  0  0  0  0  0  0  0  0  0  0
   -5.7315   11.8962  -29.1313 C   0  0  0  0  0  0  0  0  0  0  0  0
   -4.8776   12.7252  -29.8587 C   0  0  0  0  0  0  0  0  0  0  0  0
   -6.3548   10.8162  -29.7565 C   0  0  0  0  0  0  0  0  0  0  0  0
   -6.1241   10.5653  -31.1091 C   0  0  0  0  0  0  0  0  0  0  0  0
   -4.2268   13.8507  -29.2068 C   0  0  0  0  0  0  0  0  0  0  0  0
   -3.9868   16.2242  -29.2412 C   0  0  0  0  0  0  0  0  0  0  0  0
   -3.4588   13.7519  -28.2406 O   0  0  0  0  0  0  0  0  0  0  0  0
   -7.1834   10.0248  -29.0179 O   0  0  0  0  0  0  0  0  0  0  0  0
   -4.5670   15.0383  -29.7950 O   0  0  0  0  0  0  0  0  0  0  0  0
   -6.9538    9.1080  -31.9922 Br  0  0  0  0  0  0  0  0  0  0  0  0
   -3.9831   13.1139  -31.7874 H   0  0  0  0  0  0  0  0  0  0  0  0
   -5.0788   11.2142  -32.8913 H   0  0  0  0  0  0  0  0  0  0  0  0
   -5.9133   12.0887  -28.0764 H   0  0  0  0  0  0  0  0  0  0  0  0
   -4.3374   17.0965  -29.7981 H   0  0  0  0  0  0  0  0  0  0  0  0
   -2.8973   16.1575  -29.2958 H   0  0  0  0  0  0  0  0  0  0  0  0
   -4.2924   16.3149  -28.1962 H   0  0  0  0  0  0  0  0  0  0  0  0
   -7.5484    9.3160  -29.5701 H   0  0  0  0  0  0  0  0  0  0  0  0
  1  2  1  0  0  0  0
  1  4  2  0  0  0  0
  2  6  2  0  0  0  0
  3  4  1  0  0  0  0
  3  5  2  0  0  0  0
  4  7  1  0  0  0  0
  5  6  1  0  0  0  0
  5 10  1  0  0  0  0
  6 12  1  0  0  0  0
  7  9  2  0  0  0  0
  7 11  1  0  0  0  0
  8 11  1  0  0  0  0
  1 13  1  0  0  0  0
  2 14  1  0  0  0  0
  3 15  1  0  0  0  0
  8 16  1  0  0  0  0
  8 17  1  0  0  0  0
  8 18  1  0  0  0  0
 10 19  1  0  0  0  0
M  END
> <id>
EN300-198690

> <smiles>
COC(=O)C=1C=CC(Br)=C(O)C1

> <MDLNUMBER>
MFCD08056372

> <IUPAC Name>
methyl 4-bromo-3-hydroxybenzoate

> <CAS>
106291-80-9

> <Purity>
95

> <URL>
https://www.enaminestore.com/catalog/EN300-198690

> <MP>
121-123

> <ROCS_ShapeQuery>
_x1604L0AP1_x0771L0AP1

> <ROCS_TanimotoCombo>
0.956 

> <ROCS_ShapeTanimoto>
0.475 

> <ROCS_ColorTanimoto>
0.481 

> <ROCS_RefTversky>
0.433 

> <ROCS_RefColorTversky>
0.504 

> <ROCS_RefTverskyCombo>
0.937 

> <ROCS_FitTversky>
1.262 

> <ROCS_FitColorTversky>
0.912 

> <ROCS_FitTverskyCombo>
2.174 

> <ROCS_ColorScore>
-4.774

> <ROCS_Overlap>
723.997

> <ROCS_Rank>
328                 

$$$$
untitled-dbase-459_0
  -OEChem-06052310023D

 20 20  0     0  0  0  0  0  0999 V2000
   -4.3514   12.1696  -31.2044 C   0  0  0  0  0  0  0  0  0  0  0  0
   -4.6004   12.4938  -29.8708 C   0  0  0  0  0  0  0  0  0  0  0  0
   -5.0716   11.1456  -31.8195 C   0  0  0  0  0  0  0  0  0  0  0  0
   -5.5696   11.7938  -29.1522 C   0  0  0  0  0  0  0  0  0  0  0  0
   -6.2898   10.7698  -29.7672 C   0  0  0  0  0  0  0  0  0  0  0  0
   -6.0408   10.4456  -31.1009 C   0  0  0  0  0  0  0  0  0  0  0  0
   -5.0205   13.1813  -27.3004 C   0  0  0  0  0  0  0  0  0  0  0  0
   -4.7675   10.8385  -33.2506 C   0  0  0  0  0  0  0  0  0  0  0  0
   -7.2330   10.0998  -29.0433 O   0  0  0  0  0  0  0  0  0  0  0  0
   -5.8014   12.1222  -27.8504 O   0  0  0  0  0  0  0  0  0  0  0  0
   -6.0482   11.4661  -34.3102 Cl  0  0  0  0  0  0  0  0  0  0  0  0
   -7.0346    9.0529  -31.9350 Br  0  0  0  0  0  0  0  0  0  0  0  0
   -3.5942   12.7218  -31.7550 H   0  0  0  0  0  0  0  0  0  0  0  0
   -4.0365   13.2934  -29.3981 H   0  0  0  0  0  0  0  0  0  0  0  0
   -5.3049   13.3410  -26.2574 H   0  0  0  0  0  0  0  0  0  0  0  0
   -5.1850   14.0944  -27.8779 H   0  0  0  0  0  0  0  0  0  0  0  0
   -3.9642   12.9067  -27.3496 H   0  0  0  0  0  0  0  0  0  0  0  0
   -4.6858    9.7577  -33.4179 H   0  0  0  0  0  0  0  0  0  0  0  0
   -3.8167   11.2881  -33.5617 H   0  0  0  0  0  0  0  0  0  0  0  0
   -7.2734   10.4532  -28.1417 H   0  0  0  0  0  0  0  0  0  0  0  0
  1  2  1  0  0  0  0
  1  3  2  0  0  0  0
  2  4  2  0  0  0  0
  3  6  1  0  0  0  0
  3  8  1  0  0  0  0
  4  5  1  0  0  0  0
  4 10  1  0  0  0  0
  5  6  2  0  0  0  0
  5  9  1  0  0  0  0
  6 12  1  0  0  0  0
  7 10  1  0  0  0  0
  8 11  1  0  0  0  0
  1 13  1  0  0  0  0
  2 14  1  0  0  0  0
  7 15  1  0  0  0  0
  7 16  1  0  0  0  0
  7 17  1  0  0  0  0
  8 18  1  0  0  0  0
  8 19  1  0  0  0  0
  9 20  1  0  0  0  0
M  END
> <id>
EN300-1935616

> <smiles>
COC=1C=CC(CCl)=C(Br)C1O

> <IUPAC Name>
2-bromo-3-(chloromethyl)-6-methoxyphenol

> <CAS>
2091050-43-8

> <URL>
https://www.enaminestore.com/catalog/EN300-1935616

> <ROCS_ShapeQuery>
_x1604L0AP1_x0771L0AP1

> <ROCS_TanimotoCombo>
0.956 

> <ROCS_ShapeTanimoto>
0.458 

> <ROCS_ColorTanimoto>
0.498 

> <ROCS_RefTversky>
0.420 

> <ROCS_RefColorTversky>
0.516 

> <ROCS_RefTverskyCombo>
0.936 

> <ROCS_FitTversky>
1.253 

> <ROCS_FitColorTversky>
0.933 

> <ROCS_FitTverskyCombo>
2.186 

> <ROCS_ColorScore>
-4.884

> <ROCS_Overlap>
701.892

> <ROCS_Rank>
329                 

$$$$
untitled-dbase-2150_184
  -OEChem-06052310023D

 23 23  0     0  0  0  0  0  0999 V2000
   -4.3392   12.1465  -31.2084 C   0  0  0  0  0  0  0  0  0  0  0  0
   -4.5829   12.4791  -29.8759 C   0  0  0  0  0  0  0  0  0  0  0  0
   -5.0694   11.1258  -31.8172 C   0  0  0  0  0  0  0  0  0  0  0  0
   -5.5567   11.7910  -29.1521 C   0  0  0  0  0  0  0  0  0  0  0  0
   -6.2869   10.7702  -29.7610 C   0  0  0  0  0  0  0  0  0  0  0  0
   -6.0432   10.4376  -31.0935 C   0  0  0  0  0  0  0  0  0  0  0  0
   -5.8006   12.1624  -27.7264 C   0  0  0  0  0  0  0  0  0  0  0  0
   -7.0679   11.5361  -27.1148 C   0  0  0  0  0  0  0  0  0  0  0  0
   -7.2874   11.9623  -25.6635 C   0  0  0  0  0  0  0  0  0  0  0  0
   -7.2351   10.1050  -29.0392 O   0  0  0  0  0  0  0  0  0  0  0  0
   -8.7978   11.2046  -24.9960 S   0  0  0  0  0  0  0  0  0  0  0  0
   -7.0147    9.0576  -31.9570 Br  0  0  0  0  0  0  0  0  0  0  0  0
   -3.5813   12.6826  -31.7721 H   0  0  0  0  0  0  0  0  0  0  0  0
   -4.0111   13.2773  -29.4101 H   0  0  0  0  0  0  0  0  0  0  0  0
   -4.8657   10.8811  -32.8567 H   0  0  0  0  0  0  0  0  0  0  0  0
   -5.8494   13.2576  -27.6083 H   0  0  0  0  0  0  0  0  0  0  0  0
   -4.9325   11.8492  -27.1232 H   0  0  0  0  0  0  0  0  0  0  0  0
   -6.9661   10.4441  -27.1635 H   0  0  0  0  0  0  0  0  0  0  0  0
   -7.9419   11.8026  -27.7226 H   0  0  0  0  0  0  0  0  0  0  0  0
   -7.3950   13.0479  -25.5845 H   0  0  0  0  0  0  0  0  0  0  0  0
   -6.4421   11.6565  -25.0388 H   0  0  0  0  0  0  0  0  0  0  0  0
   -7.6577    9.4280  -29.5893 H   0  0  0  0  0  0  0  0  0  0  0  0
   -8.4061    9.9351  -25.1686 H   0  0  0  0  0  0  0  0  0  0  0  0
  1  2  1  0  0  0  0
  1  3  2  0  0  0  0
  2  4  2  0  0  0  0
  3  6  1  0  0  0  0
  4  5  1  0  0  0  0
  4  7  1  0  0  0  0
  5  6  2  0  0  0  0
  5 10  1  0  0  0  0
  6 12  1  0  0  0  0
  7  8  1  0  0  0  0
  8  9  1  0  0  0  0
  9 11  1  0  0  0  0
  1 13  1  0  0  0  0
  2 14  1  0  0  0  0
  3 15  1  0  0  0  0
  7 16  1  0  0  0  0
  7 17  1  0  0  0  0
  8 18  1  0  0  0  0
  8 19  1  0  0  0  0
  9 20  1  0  0  0  0
  9 21  1  0  0  0  0
 10 22  1  0  0  0  0
 11 23  1  0  0  0  0
M  END
> <id>
EN300-1923471

> <smiles>
OC=1C(Br)=CC=CC1CCCS

> <IUPAC Name>
2-bromo-6-(3-sulfanylpropyl)phenol

> <CAS>
2228475-28-1

> <URL>
https://www.enaminestore.com/catalog/EN300-1923471

> <ROCS_ShapeQuery>
_x1604L0AP1_x0771L0AP1

> <ROCS_TanimotoCombo>
0.956 

> <ROCS_ShapeTanimoto>
0.402 

> <ROCS_ColorTanimoto>
0.553 

> <ROCS_RefTversky>
0.380 

> <ROCS_RefColorTversky>
0.518 

> <ROCS_RefTverskyCombo>
0.899 

> <ROCS_FitTversky>
1.167 

> <ROCS_FitColorTversky>
1.139 

> <ROCS_FitTverskyCombo>
2.306 

> <ROCS_ColorScore>
-4.880

> <ROCS_Overlap>
636.260

> <ROCS_Rank>
330                 

$$$$
untitled-dbase-1790_1
  -OEChem-06052310023D

 17 17  0     0  0  0  0  0  0999 V2000
   -4.3502   12.1464  -31.2200 C   0  0  0  0  0  0  0  0  0  0  0  0
   -5.0796   11.1251  -31.8285 C   0  0  0  0  0  0  0  0  0  0  0  0
   -5.5629   11.7863  -29.1617 C   0  0  0  0  0  0  0  0  0  0  0  0
   -4.5918   12.4770  -29.8866 C   0  0  0  0  0  0  0  0  0  0  0  0
   -6.2924   10.7649  -29.7702 C   0  0  0  0  0  0  0  0  0  0  0  0
   -6.0507   10.4343  -31.1037 C   0  0  0  0  0  0  0  0  0  0  0  0
   -4.1778   13.7599  -27.9273 C   0  0  0  0  0  0  0  0  0  0  0  0
   -7.2342   10.1092  -29.0345 O   0  0  0  0  0  0  0  0  0  0  0  0
   -3.8798   13.4737  -29.2930 O   0  0  0  0  0  0  0  0  0  0  0  0
   -7.0221    9.0526  -31.9636 Br  0  0  0  0  0  0  0  0  0  0  0  0
   -3.5950   12.6810  -31.7898 H   0  0  0  0  0  0  0  0  0  0  0  0
   -4.8776   10.8812  -32.8685 H   0  0  0  0  0  0  0  0  0  0  0  0
   -5.7503   12.0448  -28.1225 H   0  0  0  0  0  0  0  0  0  0  0  0
   -3.5391   14.5745  -27.5772 H   0  0  0  0  0  0  0  0  0  0  0  0
   -4.0105   12.8655  -27.3218 H   0  0  0  0  0  0  0  0  0  0  0  0
   -5.2250   14.0609  -27.8475 H   0  0  0  0  0  0  0  0  0  0  0  0
   -7.6648    9.4278  -29.5737 H   0  0  0  0  0  0  0  0  0  0  0  0
  1  2  1  0  0  0  0
  1  4  2  0  0  0  0
  2  6  2  0  0  0  0
  3  4  1  0  0  0  0
  3  5  2  0  0  0  0
  4  9  1  0  0  0  0
  5  6  1  0  0  0  0
  5  8  1  0  0  0  0
  6 10  1  0  0  0  0
  7  9  1  0  0  0  0
  1 11  1  0  0  0  0
  2 12  1  0  0  0  0
  3 13  1  0  0  0  0
  7 14  1  0  0  0  0
  7 15  1  0  0  0  0
  7 16  1  0  0  0  0
  8 17  1  0  0  0  0
M  END
> <id>
EN300-177992

> <smiles>
COC=1C=CC(Br)=C(O)C1

> <MDLNUMBER>
MFCD03428523

> <IUPAC Name>
2-bromo-5-methoxyphenol

> <CAS>
63604-94-4

> <Purity>
95

> <URL>
https://www.enaminestore.com/catalog/EN300-177992

> <MP>
152-153

> <ROCS_ShapeQuery>
_x1604L0AP1_x0771L0AP1

> <ROCS_TanimotoCombo>
0.956 

> <ROCS_ShapeTanimoto>
0.459 

> <ROCS_ColorTanimoto>
0.497 

> <ROCS_RefTversky>
0.406 

> <ROCS_RefColorTversky>
0.515 

> <ROCS_RefTverskyCombo>
0.922 

> <ROCS_FitTversky>
1.395 

> <ROCS_FitColorTversky>
0.932 

> <ROCS_FitTverskyCombo>
2.327 

> <ROCS_ColorScore>
-4.878

> <ROCS_Overlap>
678.053

> <ROCS_Rank>
331                 

$$$$
untitled-dbase-1640_858
  -OEChem-06052310023D

 26 26  0     1  0  0  0  0  0999 V2000
   -6.0654   11.0583  -33.0840 C   0  0  0  0  0  0  0  0  0  0  0  0
   -5.9260   11.9986  -32.0632 C   0  0  0  0  0  0  0  0  0  0  0  0
   -6.5817    9.7936  -32.8016 C   0  0  0  0  0  0  0  0  0  0  0  0
   -6.3027   11.6741  -30.7599 C   0  0  0  0  0  0  0  0  0  0  0  0
   -6.8189   10.4094  -30.4775 C   0  0  0  0  0  0  0  0  0  0  0  0
   -6.9584    9.4692  -31.4983 C   0  0  0  0  0  0  0  0  0  0  0  0
   -7.2665   13.4722  -29.5377 C   0  0  0  0  0  0  0  0  0  0  0  0
   -5.8803    7.5508  -33.7070 C   0  0  0  0  0  0  0  0  0  0  0  0
   -6.7120    8.8231  -33.9313 C   0  0  2  0  0  0  0  0  0  0  0  0
   -8.0059   10.4825  -36.4736 N   0  5  0  0  0  0  0  0  0  0  0  0
   -6.2899    9.4165  -35.2190 N   0  0  0  0  0  0  0  0  0  0  0  0
   -7.1900    9.9687  -35.8643 N   0  3  0  0  0  0  0  0  0  0  0  0
   -7.1807   10.1160  -29.1947 O   0  0  0  0  0  0  0  0  0  0  0  0
   -6.3792    6.4994  -34.5268 O   0  0  0  0  0  0  0  0  0  0  0  0
   -6.1605   12.6033  -29.7737 O   0  0  0  0  0  0  0  0  0  0  0  0
   -7.6722    7.7489  -31.1058 Br  0  0  0  0  0  0  0  0  0  0  0  0
   -5.7691   11.3219  -34.0959 H   0  0  0  0  0  0  0  0  0  0  0  0
   -5.5242   12.9823  -32.2903 H   0  0  0  0  0  0  0  0  0  0  0  0
   -7.0217   14.1631  -28.7273 H   0  0  0  0  0  0  0  0  0  0  0  0
   -8.1461   12.8801  -29.2728 H   0  0  0  0  0  0  0  0  0  0  0  0
   -7.4728   14.0403  -30.4479 H   0  0  0  0  0  0  0  0  0  0  0  0
   -4.8239    7.7081  -33.9518 H   0  0  0  0  0  0  0  0  0  0  0  0
   -5.9530    7.2226  -32.6643 H   0  0  0  0  0  0  0  0  0  0  0  0
   -7.7654    8.5210  -34.0611 H   0  0  0  0  0  0  0  0  0  0  0  0
   -7.0172   10.8792  -28.6201 H   0  0  0  0  0  0  0  0  0  0  0  0
   -5.8250    5.7228  -34.3505 H   0  0  0  0  0  0  0  0  0  0  0  0
  1  2  1  0  0  0  0
  1  3  2  0  0  0  0
  2  4  2  0  0  0  0
  3  6  1  0  0  0  0
  3  9  1  0  0  0  0
  4  5  1  0  0  0  0
  4 15  1  0  0  0  0
  5  6  2  0  0  0  0
  5 13  1  0  0  0  0
  6 16  1  0  0  0  0
  7 15  1  0  0  0  0
  8  9  1  0  0  0  0
  8 14  1  0  0  0  0
  9 11  1  0  0  0  0
 10 12  2  0  0  0  0
 11 12  2  0  0  0  0
  1 17  1  0  0  0  0
  2 18  1  0  0  0  0
  7 19  1  0  0  0  0
  7 20  1  0  0  0  0
  7 21  1  0  0  0  0
  8 22  1  0  0  0  0
  8 23  1  0  0  0  0
  9 24  1  0  0  0  0
 13 25  1  0  0  0  0
 14 26  1  0  0  0  0
M  CHG  2  10  -1  12   1
M  END
> <id>
EN300-1935943

> <smiles>
COC=1C=CC(C(CO)N=[N+]=[N-])=C(Br)C1O

> <IUPAC Name>
3-(1-azido-2-hydroxyethyl)-2-bromo-6-methoxyphenol

> <CAS>
2229032-22-6

> <URL>
https://www.enaminestore.com/catalog/EN300-1935943

> <ROCS_ShapeQuery>
_x1604L0AP1_x0771L0AP1

> <ROCS_TanimotoCombo>
0.956 

> <ROCS_ShapeTanimoto>
0.485 

> <ROCS_ColorTanimoto>
0.470 

> <ROCS_RefTversky>
0.470 

> <ROCS_RefColorTversky>
0.558 

> <ROCS_RefTverskyCombo>
1.028 

> <ROCS_FitTversky>
1.073 

> <ROCS_FitColorTversky>
0.749 

> <ROCS_FitTverskyCombo>
1.821 

> <ROCS_ColorScore>
-5.341

> <ROCS_Overlap>
790.656

> <ROCS_Rank>
332                 

$$$$
untitled-dbase-1188_13
  -OEChem-06052310023D

 17 17  0     0  0  0  0  0  0999 V2000
   -4.6086   12.4969  -29.8421 C   0  0  0  0  0  0  0  0  0  0  0  0
   -4.3557   12.1879  -31.1785 C   0  0  0  0  0  0  0  0  0  0  0  0
   -5.5783   11.7875  -29.1336 C   0  0  0  0  0  0  0  0  0  0  0  0
   -5.0727   11.1695  -31.8066 C   0  0  0  0  0  0  0  0  0  0  0  0
   -6.2953   10.7691  -29.7616 C   0  0  0  0  0  0  0  0  0  0  0  0
   -6.0425   10.4600  -31.0981 C   0  0  0  0  0  0  0  0  0  0  0  0
   -4.7672   10.8910  -33.2049 C   0  0  0  0  0  0  0  0  0  0  0  0
   -5.7908   10.4095  -33.9860 N   0  0  0  0  0  0  0  0  0  0  0  0
   -7.2355   10.0979  -29.0372 O   0  0  0  0  0  0  0  0  0  0  0  0
   -3.2438   11.1714  -33.8375 S   0  0  0  0  0  0  0  0  0  0  0  0
   -7.0301    9.0668  -31.9401 Br  0  0  0  0  0  0  0  0  0  0  0  0
   -4.0507   13.2904  -29.3533 H   0  0  0  0  0  0  0  0  0  0  0  0
   -3.5970   12.7488  -31.7188 H   0  0  0  0  0  0  0  0  0  0  0  0
   -5.7706   12.0352  -28.0929 H   0  0  0  0  0  0  0  0  0  0  0  0
   -6.7247   10.2418  -33.6253 H   0  0  0  0  0  0  0  0  0  0  0  0
   -5.6388   10.1918  -34.9654 H   0  0  0  0  0  0  0  0  0  0  0  0
   -7.6589    9.4200  -29.5863 H   0  0  0  0  0  0  0  0  0  0  0  0
  1  2  1  0  0  0  0
  1  3  2  0  0  0  0
  2  4  2  0  0  0  0
  3  5  1  0  0  0  0
  4  6  1  0  0  0  0
  4  7  1  0  0  0  0
  5  6  2  0  0  0  0
  5  9  1  0  0  0  0
  6 11  1  0  0  0  0
  7  8  1  0  0  0  0
  7 10  2  0  0  0  0
  1 12  1  0  0  0  0
  2 13  1  0  0  0  0
  3 14  1  0  0  0  0
  8 15  1  0  0  0  0
  8 16  1  0  0  0  0
  9 17  1  0  0  0  0
M  END
> <id>
EN300-1904634

> <smiles>
NC(=S)C=1C=CC=C(O)C1Br

> <MDLNUMBER>
MFCD33499795

> <IUPAC Name>
2-bromo-3-hydroxybenzene-1-carbothioamide

> <CAS>
2228212-54-0

> <URL>
https://www.enaminestore.com/catalog/EN300-1904634

> <ROCS_ShapeQuery>
_x1604L0AP1_x0771L0AP1

> <ROCS_TanimotoCombo>
0.956 

> <ROCS_ShapeTanimoto>
0.458 

> <ROCS_ColorTanimoto>
0.497 

> <ROCS_RefTversky>
0.412 

> <ROCS_RefColorTversky>
0.516 

> <ROCS_RefTverskyCombo>
0.928 

> <ROCS_FitTversky>
1.327 

> <ROCS_FitColorTversky>
0.933 

> <ROCS_FitTverskyCombo>
2.260 

> <ROCS_ColorScore>
-4.883

> <ROCS_Overlap>
687.925

> <ROCS_Rank>
333                 

$$$$
untitled-dbase-211_1
  -OEChem-06052310023D

 22 23  0     0  0  0  0  0  0999 V2000
   -4.9981   11.2161  -31.7481 C   0  0  0  0  0  0  0  0  0  0  0  0
   -4.5679   12.5239  -29.7627 C   0  0  0  0  0  0  0  0  0  0  0  0
   -5.9849   10.5047  -31.0657 C   0  0  0  0  0  0  0  0  0  0  0  0
   -6.2632   10.8029  -29.7318 C   0  0  0  0  0  0  0  0  0  0  0  0
   -4.2895   12.2257  -31.0966 C   0  0  0  0  0  0  0  0  0  0  0  0
   -5.5547   11.8125  -29.0803 C   0  0  0  0  0  0  0  0  0  0  0  0
   -6.7117    9.4565  -31.7695 C   0  0  0  0  0  0  0  0  0  0  0  0
   -7.3743    8.6042  -34.0972 C   0  0  0  0  0  0  0  0  0  0  0  0
   -6.9918   10.0455  -34.2499 C   0  0  0  0  0  0  0  0  0  0  0  0
   -6.3474    9.2059  -33.2028 C   0  0  0  0  0  0  0  0  0  0  0  0
   -7.6043    8.7661  -31.2766 O   0  0  0  0  0  0  0  0  0  0  0  0
   -7.2321   10.1000  -29.0754 O   0  0  0  0  0  0  0  0  0  0  0  0
   -3.3419   12.9088  -31.7522 F   0  0  0  0  0  0  0  0  0  0  0  0
   -5.9049   12.2500  -27.2690 Br  0  0  0  0  0  0  0  0  0  0  0  0
   -4.7724   10.9943  -32.7880 H   0  0  0  0  0  0  0  0  0  0  0  0
   -4.0054   13.3137  -29.2719 H   0  0  0  0  0  0  0  0  0  0  0  0
   -8.3614    8.3834  -33.7095 H   0  0  0  0  0  0  0  0  0  0  0  0
   -7.0212    7.9061  -34.8464 H   0  0  0  0  0  0  0  0  0  0  0  0
   -6.3815   10.3179  -35.1024 H   0  0  0  0  0  0  0  0  0  0  0  0
   -7.7234   10.7925  -33.9668 H   0  0  0  0  0  0  0  0  0  0  0  0
   -5.3220    8.9213  -33.3296 H   0  0  0  0  0  0  0  0  0  0  0  0
   -7.6238    9.4410  -29.6682 H   0  0  0  0  0  0  0  0  0  0  0  0
  1  3  2  0  0  0  0
  1  5  1  0  0  0  0
  2  5  2  0  0  0  0
  2  6  1  0  0  0  0
  3  4  1  0  0  0  0
  3  7  1  0  0  0  0
  4  6  2  0  0  0  0
  4 12  1  0  0  0  0
  5 13  1  0  0  0  0
  6 14  1  0  0  0  0
  7 10  1  0  0  0  0
  7 11  2  0  0  0  0
  8  9  1  0  0  0  0
  8 10  1  0  0  0  0
  9 10  1  0  0  0  0
  1 15  1  0  0  0  0
  2 16  1  0  0  0  0
  8 17  1  0  0  0  0
  8 18  1  0  0  0  0
  9 19  1  0  0  0  0
  9 20  1  0  0  0  0
 10 21  1  0  0  0  0
 12 22  1  0  0  0  0
M  END
> <id>
EN300-1276482

> <smiles>
OC=1C(Br)=CC(F)=CC1C(=O)C2CC2

> <MDLNUMBER>
MFCD16742933

> <IUPAC Name>
2-bromo-6-cyclopropanecarbonyl-4-fluorophenol

> <CAS>
1249236-16-5

> <URL>
https://www.enaminestore.com/catalog/EN300-1276482

> <ROCS_ShapeQuery>
_x1604L0AP1_x0771L0AP1

> <ROCS_TanimotoCombo>
0.956 

> <ROCS_ShapeTanimoto>
0.596 

> <ROCS_ColorTanimoto>
0.359 

> <ROCS_RefTversky>
0.522 

> <ROCS_RefColorTversky>
0.410 

> <ROCS_RefTverskyCombo>
0.933 

> <ROCS_FitTversky>
1.313 

> <ROCS_FitColorTversky>
0.742 

> <ROCS_FitTverskyCombo>
2.055 

> <ROCS_ColorScore>
-3.885

> <ROCS_Overlap>
876.506

> <ROCS_Rank>
334                 

$$$$
untitled-dbase-1005_0
  -OEChem-06052310023D

 18 18  0     0  0  0  0  0  0999 V2000
   -6.6560   11.8534  -34.8481 C   0  0  0  0  0  0  0  0  0  0  0  0
   -5.8068   11.4031  -34.1285 C   0  0  0  0  0  0  0  0  0  0  0  0
   -4.6050   12.4904  -29.8552 C   0  0  0  0  0  0  0  0  0  0  0  0
   -4.3536   12.1732  -31.1901 C   0  0  0  0  0  0  0  0  0  0  0  0
   -5.5755   11.7868  -29.1420 C   0  0  0  0  0  0  0  0  0  0  0  0
   -5.0728   11.1525  -31.8117 C   0  0  0  0  0  0  0  0  0  0  0  0
   -6.2948   10.7661  -29.7636 C   0  0  0  0  0  0  0  0  0  0  0  0
   -6.0434   10.4489  -31.0985 C   0  0  0  0  0  0  0  0  0  0  0  0
   -4.7660   10.8517  -33.2436 C   0  0  0  0  0  0  0  0  0  0  0  0
   -7.2359   10.1009  -29.0351 O   0  0  0  0  0  0  0  0  0  0  0  0
   -7.0307    9.0542  -31.9358 Br  0  0  0  0  0  0  0  0  0  0  0  0
   -7.4096   12.2529  -35.4857 H   0  0  0  0  0  0  0  0  0  0  0  0
   -4.0453   13.2855  -29.3713 H   0  0  0  0  0  0  0  0  0  0  0  0
   -3.5952   12.7281  -31.7364 H   0  0  0  0  0  0  0  0  0  0  0  0
   -5.7661   12.0402  -28.1025 H   0  0  0  0  0  0  0  0  0  0  0  0
   -4.6866    9.7660  -33.4045 H   0  0  0  0  0  0  0  0  0  0  0  0
   -3.7871   11.2670  -33.5270 H   0  0  0  0  0  0  0  0  0  0  0  0
   -7.6608    9.4206  -29.5801 H   0  0  0  0  0  0  0  0  0  0  0  0
  1  2  3  0  0  0  0
  2  9  1  0  0  0  0
  3  4  2  0  0  0  0
  3  5  1  0  0  0  0
  4  6  1  0  0  0  0
  5  7  2  0  0  0  0
  6  8  2  0  0  0  0
  6  9  1  0  0  0  0
  7  8  1  0  0  0  0
  7 10  1  0  0  0  0
  8 11  1  0  0  0  0
  1 12  1  0  0  0  0
  3 13  1  0  0  0  0
  4 14  1  0  0  0  0
  5 15  1  0  0  0  0
  9 16  1  0  0  0  0
  9 17  1  0  0  0  0
 10 18  1  0  0  0  0
M  END
> <id>
EN300-1904549

> <smiles>
OC=1C=CC=C(CC#C)C1Br

> <MDLNUMBER>
MFCD33499792

> <IUPAC Name>
2-bromo-3-(prop-2-yn-1-yl)phenol

> <CAS>
2229141-20-0

> <URL>
https://www.enaminestore.com/catalog/EN300-1904549

> <ROCS_ShapeQuery>
_x1604L0AP1_x0771L0AP1

> <ROCS_TanimotoCombo>
0.955 

> <ROCS_ShapeTanimoto>
0.458 

> <ROCS_ColorTanimoto>
0.497 

> <ROCS_RefTversky>
0.412 

> <ROCS_RefColorTversky>
0.516 

> <ROCS_RefTverskyCombo>
0.928 

> <ROCS_FitTversky>
1.320 

> <ROCS_FitColorTversky>
0.933 

> <ROCS_FitTverskyCombo>
2.252 

> <ROCS_ColorScore>
-4.883

> <ROCS_Overlap>
689.070

> <ROCS_Rank>
335                 

$$$$
untitled-dbase-1372_58
  -OEChem-06052310023D

 18 18  0     0  0  0  0  0  0999 V2000
   -4.3418   12.1485  -31.2089 C   0  0  0  0  0  0  0  0  0  0  0  0
   -4.5869   12.4815  -29.8767 C   0  0  0  0  0  0  0  0  0  0  0  0
   -5.0704   11.1269  -31.8179 C   0  0  0  0  0  0  0  0  0  0  0  0
   -5.5607   11.7927  -29.1535 C   0  0  0  0  0  0  0  0  0  0  0  0
   -6.2893   10.7710  -29.7625 C   0  0  0  0  0  0  0  0  0  0  0  0
   -6.0442   10.4381  -31.0947 C   0  0  0  0  0  0  0  0  0  0  0  0
   -5.8062   12.1645  -27.7282 C   0  0  0  0  0  0  0  0  0  0  0  0
   -4.8796    8.9985  -27.8255 N   0  5  0  0  0  0  0  0  0  0  0  0
   -5.6136   11.0297  -26.8178 N   0  0  0  0  0  0  0  0  0  0  0  0
   -5.2310    9.9731  -27.3483 N   0  3  0  0  0  0  0  0  0  0  0  0
   -7.2376   10.1052  -29.0414 O   0  0  0  0  0  0  0  0  0  0  0  0
   -7.0137    9.0568  -31.9585 Br  0  0  0  0  0  0  0  0  0  0  0  0
   -3.5839   12.6851  -31.7722 H   0  0  0  0  0  0  0  0  0  0  0  0
   -4.0163   13.2804  -29.4107 H   0  0  0  0  0  0  0  0  0  0  0  0
   -4.8657   10.8819  -32.8571 H   0  0  0  0  0  0  0  0  0  0  0  0
   -5.1413   12.9855  -27.4228 H   0  0  0  0  0  0  0  0  0  0  0  0
   -6.8292   12.5460  -27.6003 H   0  0  0  0  0  0  0  0  0  0  0  0
   -7.6590    9.4275  -29.5915 H   0  0  0  0  0  0  0  0  0  0  0  0
  1  2  1  0  0  0  0
  1  3  2  0  0  0  0
  2  4  2  0  0  0  0
  3  6  1  0  0  0  0
  4  5  1  0  0  0  0
  4  7  1  0  0  0  0
  5  6  2  0  0  0  0
  5 11  1  0  0  0  0
  6 12  1  0  0  0  0
  7  9  1  0  0  0  0
  8 10  2  0  0  0  0
  9 10  2  0  0  0  0
  1 13  1  0  0  0  0
  2 14  1  0  0  0  0
  3 15  1  0  0  0  0
  7 16  1  0  0  0  0
  7 17  1  0  0  0  0
 11 18  1  0  0  0  0
M  CHG  2   8  -1  10   1
M  END
> <id>
EN300-1923150

> <smiles>
OC=1C(Br)=CC=CC1CN=[N+]=[N-]

> <IUPAC Name>
2-(azidomethyl)-6-bromophenol

> <CAS>
2228200-06-2

> <URL>
https://www.enaminestore.com/catalog/EN300-1923150

> <ROCS_ShapeQuery>
_x1604L0AP1_x0771L0AP1

> <ROCS_TanimotoCombo>
0.955 

> <ROCS_ShapeTanimoto>
0.402 

> <ROCS_ColorTanimoto>
0.553 

> <ROCS_RefTversky>
0.385 

> <ROCS_RefColorTversky>
0.518 

> <ROCS_RefTverskyCombo>
0.903 

> <ROCS_FitTversky>
1.128 

> <ROCS_FitColorTversky>
1.139 

> <ROCS_FitTverskyCombo>
2.267 

> <ROCS_ColorScore>
-4.880

> <ROCS_Overlap>
643.544

> <ROCS_Rank>
336                 

$$$$
untitled-dbase-1763_1
  -OEChem-06052310023D

 25 26  0     0  0  0  0  0  0999 V2000
   -5.0027   11.2089  -31.7502 C   0  0  0  0  0  0  0  0  0  0  0  0
   -4.5664   12.5149  -29.7650 C   0  0  0  0  0  0  0  0  0  0  0  0
   -5.9905   10.4999  -31.0668 C   0  0  0  0  0  0  0  0  0  0  0  0
   -4.2906   12.2164  -31.0993 C   0  0  0  0  0  0  0  0  0  0  0  0
   -6.2663   10.7984  -29.7324 C   0  0  0  0  0  0  0  0  0  0  0  0
   -5.5543   11.8059  -29.0815 C   0  0  0  0  0  0  0  0  0  0  0  0
   -6.7203    9.4530  -31.7689 C   0  0  0  0  0  0  0  0  0  0  0  0
   -7.3876    8.6001  -34.0950 C   0  0  0  0  0  0  0  0  0  0  0  0
   -7.0019   10.0405  -34.2495 C   0  0  0  0  0  0  0  0  0  0  0  0
   -6.3582    9.2003  -33.2025 C   0  0  0  0  0  0  0  0  0  0  0  0
   -3.2342   12.9740  -31.8303 C   0  0  0  0  0  0  0  0  0  0  0  0
   -7.6141    8.7648  -31.2746 O   0  0  0  0  0  0  0  0  0  0  0  0
   -7.2358   10.0976  -29.0747 O   0  0  0  0  0  0  0  0  0  0  0  0
   -5.9008   12.2421  -27.2692 Br  0  0  0  0  0  0  0  0  0  0  0  0
   -4.7855   10.9789  -32.7911 H   0  0  0  0  0  0  0  0  0  0  0  0
   -4.0060   13.3020  -29.2654 H   0  0  0  0  0  0  0  0  0  0  0  0
   -8.3748    8.3820  -33.7060 H   0  0  0  0  0  0  0  0  0  0  0  0
   -7.0370    7.9005  -34.8440 H   0  0  0  0  0  0  0  0  0  0  0  0
   -6.3920   10.3106  -35.1029 H   0  0  0  0  0  0  0  0  0  0  0  0
   -7.7315   10.7894  -33.9661 H   0  0  0  0  0  0  0  0  0  0  0  0
   -5.3337    8.9132  -33.3301 H   0  0  0  0  0  0  0  0  0  0  0  0
   -3.6653   13.8574  -32.3170 H   0  0  0  0  0  0  0  0  0  0  0  0
   -2.4385   13.3049  -31.1503 H   0  0  0  0  0  0  0  0  0  0  0  0
   -2.7569   12.3516  -32.5985 H   0  0  0  0  0  0  0  0  0  0  0  0
   -7.6299    9.4396  -29.6670 H   0  0  0  0  0  0  0  0  0  0  0  0
  1  3  2  0  0  0  0
  1  4  1  0  0  0  0
  2  4  2  0  0  0  0
  2  6  1  0  0  0  0
  3  5  1  0  0  0  0
  3  7  1  0  0  0  0
  4 11  1  0  0  0  0
  5  6  2  0  0  0  0
  5 13  1  0  0  0  0
  6 14  1  0  0  0  0
  7 10  1  0  0  0  0
  7 12  2  0  0  0  0
  8  9  1  0  0  0  0
  8 10  1  0  0  0  0
  9 10  1  0  0  0  0
  1 15  1  0  0  0  0
  2 16  1  0  0  0  0
  8 17  1  0  0  0  0
  8 18  1  0  0  0  0
  9 19  1  0  0  0  0
  9 20  1  0  0  0  0
 10 21  1  0  0  0  0
 11 22  1  0  0  0  0
 11 23  1  0  0  0  0
 11 24  1  0  0  0  0
 13 25  1  0  0  0  0
M  END
> <id>
EN300-1276666

> <smiles>
CC=1C=C(Br)C(O)=C(C1)C(=O)C2CC2

> <MDLNUMBER>
MFCD16742915

> <IUPAC Name>
2-bromo-6-cyclopropanecarbonyl-4-methylphenol

> <CAS>
1247430-17-6

> <URL>
https://www.enaminestore.com/catalog/EN300-1276666

> <ROCS_ShapeQuery>
_x1604L0AP1_x0771L0AP1

> <ROCS_TanimotoCombo>
0.955 

> <ROCS_ShapeTanimoto>
0.596 

> <ROCS_ColorTanimoto>
0.359 

> <ROCS_RefTversky>
0.521 

> <ROCS_RefColorTversky>
0.411 

> <ROCS_RefTverskyCombo>
0.931 

> <ROCS_FitTversky>
1.319 

> <ROCS_FitColorTversky>
0.742 

> <ROCS_FitTverskyCombo>
2.061 

> <ROCS_ColorScore>
-3.886

> <ROCS_Overlap>
874.352

> <ROCS_Rank>
337                 

$$$$
untitled-dbase-2227_3
  -OEChem-06052310023D

 20 20  0     0  0  0  0  0  0999 V2000
   -4.5962   12.4916  -29.8596 C   0  0  0  0  0  0  0  0  0  0  0  0
   -4.3464   12.1746  -31.1947 C   0  0  0  0  0  0  0  0  0  0  0  0
   -5.5673   11.7893  -29.1459 C   0  0  0  0  0  0  0  0  0  0  0  0
   -6.2887   10.7701  -29.7674 C   0  0  0  0  0  0  0  0  0  0  0  0
   -5.0678   11.1554  -31.8163 C   0  0  0  0  0  0  0  0  0  0  0  0
   -6.0390   10.4531  -31.1027 C   0  0  0  0  0  0  0  0  0  0  0  0
   -5.0175   13.1651  -27.2856 C   0  0  0  0  0  0  0  0  0  0  0  0
   -3.6152   11.6795  -33.9210 O   0  0  0  0  0  0  0  0  0  0  0  0
   -4.6798    9.3834  -33.7159 O   0  0  0  0  0  0  0  0  0  0  0  0
   -7.2333   10.0988  -29.0462 O   0  0  0  0  0  0  0  0  0  0  0  0
   -5.7998   12.1106  -27.8424 O   0  0  0  0  0  0  0  0  0  0  0  0
   -4.6973   10.8152  -33.4960 S   0  0  0  0  0  0  0  0  0  0  0  0
   -6.3767   11.4847  -34.4528 Cl  0  0  0  0  0  0  0  0  0  0  0  0
   -7.0402    9.0559  -31.9252 Br  0  0  0  0  0  0  0  0  0  0  0  0
   -4.0307   13.2867  -29.3812 H   0  0  0  0  0  0  0  0  0  0  0  0
   -3.5867   12.7302  -31.7384 H   0  0  0  0  0  0  0  0  0  0  0  0
   -5.3026   13.3193  -26.2420 H   0  0  0  0  0  0  0  0  0  0  0  0
   -5.1799   14.0818  -27.8581 H   0  0  0  0  0  0  0  0  0  0  0  0
   -3.9616   12.8889  -27.3355 H   0  0  0  0  0  0  0  0  0  0  0  0
   -7.2725   10.4482  -28.1431 H   0  0  0  0  0  0  0  0  0  0  0  0
  1  2  1  0  0  0  0
  1  3  2  0  0  0  0
  2  5  2  0  0  0  0
  3  4  1  0  0  0  0
  3 11  1  0  0  0  0
  4  6  2  0  0  0  0
  4 10  1  0  0  0  0
  5  6  1  0  0  0  0
  5 12  1  0  0  0  0
  6 14  1  0  0  0  0
  7 11  1  0  0  0  0
  8 12  2  0  0  0  0
  9 12  2  0  0  0  0
 12 13  1  0  0  0  0
  1 15  1  0  0  0  0
  2 16  1  0  0  0  0
  7 17  1  0  0  0  0
  7 18  1  0  0  0  0
  7 19  1  0  0  0  0
 10 20  1  0  0  0  0
M  END
> <id>
EN300-6493327

> <smiles>
COC=1C=CC(=C(Br)C1O)S(=O)(=O)Cl

> <IUPAC Name>
2-bromo-3-hydroxy-4-methoxybenzene-1-sulfonyl chloride

> <CAS>
2247105-41-3

> <URL>
https://www.enaminestore.com/catalog/EN300-6493327

> <ROCS_ShapeQuery>
_x1604L0AP1_x0771L0AP1

> <ROCS_TanimotoCombo>
0.955 

> <ROCS_ShapeTanimoto>
0.458 

> <ROCS_ColorTanimoto>
0.498 

> <ROCS_RefTversky>
0.432 

> <ROCS_RefColorTversky>
0.516 

> <ROCS_RefTverskyCombo>
0.948 

> <ROCS_FitTversky>
1.148 

> <ROCS_FitColorTversky>
0.933 

> <ROCS_FitTverskyCombo>
2.081 

> <ROCS_ColorScore>
-4.886

> <ROCS_Overlap>
724.500

> <ROCS_Rank>
338                 

$$$$
untitled-dbase-1680_54
  -OEChem-06052310023D

 22 22  0     0  0  0  0  0  0999 V2000
   -4.3307   12.1380  -31.2046 C   0  0  0  0  0  0  0  0  0  0  0  0
   -4.5743   12.4706  -29.8721 C   0  0  0  0  0  0  0  0  0  0  0  0
   -5.0638   11.1201  -31.8147 C   0  0  0  0  0  0  0  0  0  0  0  0
   -5.5510   11.7853  -29.1496 C   0  0  0  0  0  0  0  0  0  0  0  0
   -6.2841   10.7674  -29.7596 C   0  0  0  0  0  0  0  0  0  0  0  0
   -6.0405   10.4348  -31.0921 C   0  0  0  0  0  0  0  0  0  0  0  0
   -5.7948   12.1567  -27.7238 C   0  0  0  0  0  0  0  0  0  0  0  0
   -7.0505   13.0082  -27.5315 C   0  0  0  0  0  0  0  0  0  0  0  0
   -7.2847   13.8616  -29.6747 N   0  0  0  0  0  0  0  0  0  0  0  0
   -7.2352   10.1049  -29.0390 O   0  0  0  0  0  0  0  0  0  0  0  0
   -6.9436   14.1986  -28.3017 O   0  0  0  0  0  0  0  0  0  0  0  0
   -7.0160    9.0586  -31.9573 Br  0  0  0  0  0  0  0  0  0  0  0  0
   -3.5706   12.6719  -31.7674 H   0  0  0  0  0  0  0  0  0  0  0  0
   -4.0002   13.2666  -29.4053 H   0  0  0  0  0  0  0  0  0  0  0  0
   -4.8602   10.8753  -32.8541 H   0  0  0  0  0  0  0  0  0  0  0  0
   -5.8753   11.2486  -27.1072 H   0  0  0  0  0  0  0  0  0  0  0  0
   -4.9295   12.7151  -27.3368 H   0  0  0  0  0  0  0  0  0  0  0  0
   -7.9322   12.4612  -27.8807 H   0  0  0  0  0  0  0  0  0  0  0  0
   -7.1978   13.2794  -26.4809 H   0  0  0  0  0  0  0  0  0  0  0  0
   -6.4551   14.2002  -30.1599 H   0  0  0  0  0  0  0  0  0  0  0  0
   -8.0234   14.5398  -29.8540 H   0  0  0  0  0  0  0  0  0  0  0  0
   -7.6595    9.4297  -29.5898 H   0  0  0  0  0  0  0  0  0  0  0  0
  1  2  1  0  0  0  0
  1  3  2  0  0  0  0
  2  4  2  0  0  0  0
  3  6  1  0  0  0  0
  4  5  1  0  0  0  0
  4  7  1  0  0  0  0
  5  6  2  0  0  0  0
  5 10  1  0  0  0  0
  6 12  1  0  0  0  0
  7  8  1  0  0  0  0
  8 11  1  0  0  0  0
  9 11  1  0  0  0  0
  1 13  1  0  0  0  0
  2 14  1  0  0  0  0
  3 15  1  0  0  0  0
  7 16  1  0  0  0  0
  7 17  1  0  0  0  0
  8 18  1  0  0  0  0
  8 19  1  0  0  0  0
  9 20  1  0  0  0  0
  9 21  1  0  0  0  0
 10 22  1  0  0  0  0
M  END
> <id>
EN300-1923135

> <smiles>
NOCCC=1C=CC=C(Br)C1O

> <IUPAC Name>
2-[2-(aminooxy)ethyl]-6-bromophenol

> <CAS>
1897051-30-7

> <URL>
https://www.enaminestore.com/catalog/EN300-1923135

> <ROCS_ShapeQuery>
_x1604L0AP1_x0771L0AP1

> <ROCS_TanimotoCombo>
0.955 

> <ROCS_ShapeTanimoto>
0.402 

> <ROCS_ColorTanimoto>
0.553 

> <ROCS_RefTversky>
0.382 

> <ROCS_RefColorTversky>
0.518 

> <ROCS_RefTverskyCombo>
0.901 

> <ROCS_FitTversky>
1.145 

> <ROCS_FitColorTversky>
1.139 

> <ROCS_FitTverskyCombo>
2.284 

> <ROCS_ColorScore>
-4.881

> <ROCS_Overlap>
639.723

> <ROCS_Rank>
339                 

$$$$
untitled-dbase-1786_1
  -OEChem-06052310023D

 22 23  0     0  0  0  0  0  0999 V2000
   -5.0071   11.2120  -31.7577 C   0  0  0  0  0  0  0  0  0  0  0  0
   -4.5643   12.5150  -29.7720 C   0  0  0  0  0  0  0  0  0  0  0  0
   -5.9945   10.5038  -31.0729 C   0  0  0  0  0  0  0  0  0  0  0  0
   -6.2668   10.8012  -29.7376 C   0  0  0  0  0  0  0  0  0  0  0  0
   -4.2920   12.2176  -31.1072 C   0  0  0  0  0  0  0  0  0  0  0  0
   -5.5518   11.8068  -29.0871 C   0  0  0  0  0  0  0  0  0  0  0  0
   -6.7266    9.4573  -31.7730 C   0  0  0  0  0  0  0  0  0  0  0  0
   -7.3990    8.6038  -34.0974 C   0  0  0  0  0  0  0  0  0  0  0  0
   -7.0122   10.0437  -34.2535 C   0  0  0  0  0  0  0  0  0  0  0  0
   -6.3673    9.2034  -33.2072 C   0  0  0  0  0  0  0  0  0  0  0  0
   -7.6201    8.7701  -31.2768 O   0  0  0  0  0  0  0  0  0  0  0  0
   -7.2345   10.0997  -29.0778 O   0  0  0  0  0  0  0  0  0  0  0  0
   -3.0736   13.0911  -31.9529 Cl  0  0  0  0  0  0  0  0  0  0  0  0
   -5.8925   12.2408  -27.2731 Br  0  0  0  0  0  0  0  0  0  0  0  0
   -4.7962   10.9782  -32.7991 H   0  0  0  0  0  0  0  0  0  0  0  0
   -4.0042   13.3000  -29.2682 H   0  0  0  0  0  0  0  0  0  0  0  0
   -8.3856    8.3869  -33.7065 H   0  0  0  0  0  0  0  0  0  0  0  0
   -7.0505    7.9035  -34.8467 H   0  0  0  0  0  0  0  0  0  0  0  0
   -6.4036   10.3128  -35.1082 H   0  0  0  0  0  0  0  0  0  0  0  0
   -7.7405   10.7934  -33.9691 H   0  0  0  0  0  0  0  0  0  0  0  0
   -5.3434    8.9153  -33.3366 H   0  0  0  0  0  0  0  0  0  0  0  0
   -7.6300    9.4421  -29.6696 H   0  0  0  0  0  0  0  0  0  0  0  0
  1  3  2  0  0  0  0
  1  5  1  0  0  0  0
  2  5  2  0  0  0  0
  2  6  1  0  0  0  0
  3  4  1  0  0  0  0
  3  7  1  0  0  0  0
  4  6  2  0  0  0  0
  4 12  1  0  0  0  0
  5 13  1  0  0  0  0
  6 14  1  0  0  0  0
  7 10  1  0  0  0  0
  7 11  2  0  0  0  0
  8  9  1  0  0  0  0
  8 10  1  0  0  0  0
  9 10  1  0  0  0  0
  1 15  1  0  0  0  0
  2 16  1  0  0  0  0
  8 17  1  0  0  0  0
  8 18  1  0  0  0  0
  9 19  1  0  0  0  0
  9 20  1  0  0  0  0
 10 21  1  0  0  0  0
 12 22  1  0  0  0  0
M  END
> <id>
EN300-1276681

> <smiles>
OC=1C(Br)=CC(Cl)=CC1C(=O)C2CC2

> <MDLNUMBER>
MFCD16742929

> <IUPAC Name>
2-bromo-4-chloro-6-cyclopropanecarbonylphenol

> <CAS>
1247211-56-8

> <URL>
https://www.enaminestore.com/catalog/EN300-1276681

> <ROCS_ShapeQuery>
_x1604L0AP1_x0771L0AP1

> <ROCS_TanimotoCombo>
0.955 

> <ROCS_ShapeTanimoto>
0.596 

> <ROCS_ColorTanimoto>
0.359 

> <ROCS_RefTversky>
0.519 

> <ROCS_RefColorTversky>
0.411 

> <ROCS_RefTverskyCombo>
0.930 

> <ROCS_FitTversky>
1.328 

> <ROCS_FitColorTversky>
0.742 

> <ROCS_FitTverskyCombo>
2.070 

> <ROCS_ColorScore>
-3.886

> <ROCS_Overlap>
871.684

> <ROCS_Rank>
340                 

$$$$
untitled-dbase-775_16
  -OEChem-06052310023D

 30 31  0     1  0  0  0  0  0999 V2000
   -6.7535   10.1234  -34.9494 C   0  0  0  0  0  0  0  0  0  0  0  0
   -6.6180   10.5613  -33.6320 C   0  0  0  0  0  0  0  0  0  0  0  0
   -6.6674    8.7628  -35.2444 C   0  0  0  0  0  0  0  0  0  0  0  0
   -6.3962    9.6387  -32.6097 C   0  0  0  0  0  0  0  0  0  0  0  0
   -6.4457    7.8401  -34.2220 C   0  0  0  0  0  0  0  0  0  0  0  0
   -6.3101    8.2781  -32.9046 C   0  0  0  0  0  0  0  0  0  0  0  0
   -4.9519    9.8795  -30.4831 C   0  0  0  0  0  0  0  0  0  0  0  0
   -6.2547   10.1566  -31.2149 C   0  0  1  0  0  0  0  0  0  0  0  0
   -5.2348   11.2866  -30.9406 C   0  0  0  0  0  0  0  0  0  0  0  0
   -4.4042   11.8317  -32.0802 C   0  0  0  0  0  0  0  0  0  0  0  0
   -5.5412   12.3266  -29.8892 C   0  0  0  0  0  0  0  0  0  0  0  0
   -7.5339   10.0856  -30.4183 C   0  0  0  0  0  0  0  0  0  0  0  0
   -6.3648    6.5191  -34.5495 O   0  0  0  0  0  0  0  0  0  0  0  0
   -7.2246   10.1335  -29.0317 O   0  0  0  0  0  0  0  0  0  0  0  0
   -6.0018    7.0079  -31.5206 Br  0  0  0  0  0  0  0  0  0  0  0  0
   -6.9265   10.8423  -35.7448 H   0  0  0  0  0  0  0  0  0  0  0  0
   -6.6883   11.6239  -33.4140 H   0  0  0  0  0  0  0  0  0  0  0  0
   -6.7738    8.4299  -36.2733 H   0  0  0  0  0  0  0  0  0  0  0  0
   -4.9908    9.6636  -29.4206 H   0  0  0  0  0  0  0  0  0  0  0  0
   -4.1807    9.3135  -30.9957 H   0  0  0  0  0  0  0  0  0  0  0  0
   -4.7034   12.8568  -32.3181 H   0  0  0  0  0  0  0  0  0  0  0  0
   -4.5327   11.2186  -32.9772 H   0  0  0  0  0  0  0  0  0  0  0  0
   -3.3427   11.8356  -31.8148 H   0  0  0  0  0  0  0  0  0  0  0  0
   -5.7268   13.3009  -30.3525 H   0  0  0  0  0  0  0  0  0  0  0  0
   -4.7022   12.4317  -29.1940 H   0  0  0  0  0  0  0  0  0  0  0  0
   -6.4296   12.0450  -29.3149 H   0  0  0  0  0  0  0  0  0  0  0  0
   -8.0691    9.1516  -30.6243 H   0  0  0  0  0  0  0  0  0  0  0  0
   -8.1896   10.9300  -30.6589 H   0  0  0  0  0  0  0  0  0  0  0  0
   -6.2097    5.9867  -33.7541 H   0  0  0  0  0  0  0  0  0  0  0  0
   -8.0688   10.0857  -28.5547 H   0  0  0  0  0  0  0  0  0  0  0  0
  1  2  1  0  0  0  0
  1  3  2  0  0  0  0
  2  4  2  0  0  0  0
  3  5  1  0  0  0  0
  4  6  1  0  0  0  0
  4  8  1  0  0  0  0
  5  6  2  0  0  0  0
  5 13  1  0  0  0  0
  6 15  1  0  0  0  0
  7  8  1  0  0  0  0
  7  9  1  0  0  0  0
  8  9  1  0  0  0  0
  8 12  1  0  0  0  0
  9 10  1  0  0  0  0
  9 11  1  0  0  0  0
 12 14  1  0  0  0  0
  1 16  1  0  0  0  0
  2 17  1  0  0  0  0
  3 18  1  0  0  0  0
  7 19  1  0  0  0  0
  7 20  1  0  0  0  0
 10 21  1  0  0  0  0
 10 22  1  0  0  0  0
 10 23  1  0  0  0  0
 11 24  1  0  0  0  0
 11 25  1  0  0  0  0
 11 26  1  0  0  0  0
 12 27  1  0  0  0  0
 12 28  1  0  0  0  0
 13 29  1  0  0  0  0
 14 30  1  0  0  0  0
M  END
> <id>
EN300-1904593

> <smiles>
CC1(C)CC1(CO)C=2C=CC=C(O)C2Br

> <IUPAC Name>
2-bromo-3-[1-(hydroxymethyl)-2,2-dimethylcyclopropyl]phenol

> <CAS>
2229206-77-1

> <URL>
https://www.enaminestore.com/catalog/EN300-1904593

> <ROCS_ShapeQuery>
_x1604L0AP1_x0771L0AP1

> <ROCS_TanimotoCombo>
0.955 

> <ROCS_ShapeTanimoto>
0.537 

> <ROCS_ColorTanimoto>
0.418 

> <ROCS_RefTversky>
0.494 

> <ROCS_RefColorTversky>
0.515 

> <ROCS_RefTverskyCombo>
1.009 

> <ROCS_FitTversky>
1.193 

> <ROCS_FitColorTversky>
0.690 

> <ROCS_FitTverskyCombo>
1.884 

> <ROCS_ColorScore>
-4.926

> <ROCS_Overlap>
829.542

> <ROCS_Rank>
341                 

$$$$
untitled-dbase-494_8
  -OEChem-06052310023D

 21 22  0     0  0  0  0  0  0999 V2000
   -4.7383   11.5012  -31.5903 C   0  0  0  0  0  0  0  0  0  0  0  0
   -4.7783   12.6650  -29.4734 C   0  0  0  0  0  0  0  0  0  0  0  0
   -5.5979    8.5132  -32.6374 C   0  0  0  0  0  0  0  0  0  0  0  0
   -5.7165   10.6223  -31.1255 C   0  0  0  0  0  0  0  0  0  0  0  0
   -6.2258   10.7647  -29.8348 C   0  0  0  0  0  0  0  0  0  0  0  0
   -4.2690   12.5226  -30.7642 C   0  0  0  0  0  0  0  0  0  0  0  0
   -5.7566   11.7861  -29.0087 C   0  0  0  0  0  0  0  0  0  0  0  0
   -6.1877    9.5722  -31.9995 C   0  0  0  0  0  0  0  0  0  0  0  0
   -6.6609    7.9034  -33.3257 C   0  0  0  0  0  0  0  0  0  0  0  0
   -7.8213    8.5358  -33.1297 N   0  0  0  0  0  0  0  0  0  0  0  0
   -6.4720    6.7977  -34.0894 N   0  0  0  0  0  0  0  0  0  0  0  0
   -7.5146    9.5963  -32.2856 O   0  0  0  0  0  0  0  0  0  0  0  0
   -7.1836    9.9016  -29.3839 O   0  0  0  0  0  0  0  0  0  0  0  0
   -3.0611   13.6064  -31.3373 Cl  0  0  0  0  0  0  0  0  0  0  0  0
   -6.4227   12.0139  -27.2481 Br  0  0  0  0  0  0  0  0  0  0  0  0
   -4.3387   11.3916  -32.5968 H   0  0  0  0  0  0  0  0  0  0  0  0
   -4.4094   13.4626  -28.8320 H   0  0  0  0  0  0  0  0  0  0  0  0
   -4.5557    8.2285  -32.6067 H   0  0  0  0  0  0  0  0  0  0  0  0
   -7.2537    6.3219  -34.5556 H   0  0  0  0  0  0  0  0  0  0  0  0
   -5.5567    6.3366  -34.1567 H   0  0  0  0  0  0  0  0  0  0  0  0
   -7.3987    9.2556  -30.0732 H   0  0  0  0  0  0  0  0  0  0  0  0
  1  4  2  0  0  0  0
  1  6  1  0  0  0  0
  2  6  2  0  0  0  0
  2  7  1  0  0  0  0
  3  8  2  0  0  0  0
  3  9  1  0  0  0  0
  4  5  1  0  0  0  0
  4  8  1  0  0  0  0
  5  7  2  0  0  0  0
  5 13  1  0  0  0  0
  6 14  1  0  0  0  0
  7 15  1  0  0  0  0
  8 12  1  0  0  0  0
  9 10  2  0  0  0  0
  9 11  1  0  0  0  0
 10 12  1  0  0  0  0
  1 16  1  0  0  0  0
  2 17  1  0  0  0  0
  3 18  1  0  0  0  0
 11 19  1  0  0  0  0
 11 20  1  0  0  0  0
 13 21  1  0  0  0  0
M  END
> <id>
EN300-1922949

> <smiles>
NC=1C=C(ON1)C=2C=C(Cl)C=C(Br)C2O

> <IUPAC Name>
2-(3-amino-1,2-oxazol-5-yl)-6-bromo-4-chlorophenol

> <CAS>
2228867-79-4

> <URL>
https://www.enaminestore.com/catalog/EN300-1922949

> <ROCS_ShapeQuery>
_x1604L0AP1_x0771L0AP1

> <ROCS_TanimotoCombo>
0.955 

> <ROCS_ShapeTanimoto>
0.561 

> <ROCS_ColorTanimoto>
0.394 

> <ROCS_RefTversky>
0.513 

> <ROCS_RefColorTversky>
0.520 

> <ROCS_RefTverskyCombo>
1.033 

> <ROCS_FitTversky>
1.200 

> <ROCS_FitColorTversky>
0.618 

> <ROCS_FitTverskyCombo>
1.818 

> <ROCS_ColorScore>
-5.001

> <ROCS_Overlap>
862.987

> <ROCS_Rank>
342                 

$$$$
untitled-dbase-323_5
  -OEChem-06052310023D

 21 22  0     0  0  0  0  0  0999 V2000
   -5.8160   10.9822  -34.2322 C   0  0  0  0  0  0  0  0  0  0  0  0
   -4.6144   12.5007  -29.8530 C   0  0  0  0  0  0  0  0  0  0  0  0
   -4.3609   12.1853  -31.1879 C   0  0  0  0  0  0  0  0  0  0  0  0
   -5.5819   11.7922  -29.1405 C   0  0  0  0  0  0  0  0  0  0  0  0
   -5.0749   11.1614  -31.8103 C   0  0  0  0  0  0  0  0  0  0  0  0
   -6.2959   10.7683  -29.7630 C   0  0  0  0  0  0  0  0  0  0  0  0
   -6.0425   10.4529  -31.0978 C   0  0  0  0  0  0  0  0  0  0  0  0
   -3.7326    9.7738  -33.5071 C   0  0  0  0  0  0  0  0  0  0  0  0
   -3.3622   11.2038  -33.7256 C   0  0  0  0  0  0  0  0  0  0  0  0
   -4.7697   10.8625  -33.2426 C   0  0  0  0  0  0  0  0  0  0  0  0
   -6.6562   11.0784  -35.0267 N   0  0  0  0  0  0  0  0  0  0  0  0
   -7.2355   10.1001  -29.0351 O   0  0  0  0  0  0  0  0  0  0  0  0
   -7.0290    9.0570  -31.9359 Br  0  0  0  0  0  0  0  0  0  0  0  0
   -4.0577   13.2978  -29.3689 H   0  0  0  0  0  0  0  0  0  0  0  0
   -3.6036   12.7434  -31.7325 H   0  0  0  0  0  0  0  0  0  0  0  0
   -5.7735   12.0444  -28.1011 H   0  0  0  0  0  0  0  0  0  0  0  0
   -3.8431    9.1443  -34.3834 H   0  0  0  0  0  0  0  0  0  0  0  0
   -3.2842    9.2625  -32.6622 H   0  0  0  0  0  0  0  0  0  0  0  0
   -2.6665   11.6556  -33.0271 H   0  0  0  0  0  0  0  0  0  0  0  0
   -3.2240   11.5366  -34.7487 H   0  0  0  0  0  0  0  0  0  0  0  0
   -7.6570    9.4177  -29.5800 H   0  0  0  0  0  0  0  0  0  0  0  0
  1 10  1  0  0  0  0
  1 11  3  0  0  0  0
  2  3  2  0  0  0  0
  2  4  1  0  0  0  0
  3  5  1  0  0  0  0
  4  6  2  0  0  0  0
  5  7  2  0  0  0  0
  5 10  1  0  0  0  0
  6  7  1  0  0  0  0
  6 12  1  0  0  0  0
  7 13  1  0  0  0  0
  8  9  1  0  0  0  0
  8 10  1  0  0  0  0
  9 10  1  0  0  0  0
  2 14  1  0  0  0  0
  3 15  1  0  0  0  0
  4 16  1  0  0  0  0
  8 17  1  0  0  0  0
  8 18  1  0  0  0  0
  9 19  1  0  0  0  0
  9 20  1  0  0  0  0
 12 21  1  0  0  0  0
M  END
> <id>
EN300-1904480

> <smiles>
OC=1C=CC=C(C1Br)C2(CC2)C#N

> <IUPAC Name>
1-(2-bromo-3-hydroxyphenyl)cyclopropane-1-carbonitrile

> <CAS>
2228155-14-2

> <URL>
https://www.enaminestore.com/catalog/EN300-1904480

> <ROCS_ShapeQuery>
_x1604L0AP1_x0771L0AP1

> <ROCS_TanimotoCombo>
0.955 

> <ROCS_ShapeTanimoto>
0.457 

> <ROCS_ColorTanimoto>
0.497 

> <ROCS_RefTversky>
0.430 

> <ROCS_RefColorTversky>
0.516 

> <ROCS_RefTverskyCombo>
0.945 

> <ROCS_FitTversky>
1.165 

> <ROCS_FitColorTversky>
0.933 

> <ROCS_FitTverskyCombo>
2.098 

> <ROCS_ColorScore>
-4.882

> <ROCS_Overlap>
719.957

> <ROCS_Rank>
343                 

$$$$
untitled-dbase-105_89
  -OEChem-06052310023D

 23 23  0     0  0  0  0  0  0999 V2000
   -4.5954   12.4810  -29.8299 C   0  0  0  0  0  0  0  0  0  0  0  0
   -5.5748   11.7828  -29.1236 C   0  0  0  0  0  0  0  0  0  0  0  0
   -5.0575   11.1463  -31.7900 C   0  0  0  0  0  0  0  0  0  0  0  0
   -4.3368   12.1629  -31.1632 C   0  0  0  0  0  0  0  0  0  0  0  0
   -6.2954   10.7662  -29.7504 C   0  0  0  0  0  0  0  0  0  0  0  0
   -6.0368   10.4480  -31.0837 C   0  0  0  0  0  0  0  0  0  0  0  0
   -3.8736   12.7069  -34.8856 C   0  0  0  0  0  0  0  0  0  0  0  0
   -3.2894   12.9099  -31.9172 C   0  0  0  0  0  0  0  0  0  0  0  0
   -2.6160   12.0706  -33.0051 C   0  0  0  0  0  0  0  0  0  0  0  0
   -7.2445   10.1018  -29.0320 O   0  0  0  0  0  0  0  0  0  0  0  0
   -3.5848   11.6649  -33.9636 O   0  0  0  0  0  0  0  0  0  0  0  0
   -6.9954    9.0718  -31.9667 Br  0  0  0  0  0  0  0  0  0  0  0  0
   -4.0393   13.2713  -29.3324 H   0  0  0  0  0  0  0  0  0  0  0  0
   -5.7707   12.0363  -28.0851 H   0  0  0  0  0  0  0  0  0  0  0  0
   -4.8493   10.9053  -32.8303 H   0  0  0  0  0  0  0  0  0  0  0  0
   -4.6196   12.3611  -35.6054 H   0  0  0  0  0  0  0  0  0  0  0  0
   -2.9578   12.9988  -35.4056 H   0  0  0  0  0  0  0  0  0  0  0  0
   -4.2693   13.5660  -34.3385 H   0  0  0  0  0  0  0  0  0  0  0  0
   -3.7244   13.8119  -32.3756 H   0  0  0  0  0  0  0  0  0  0  0  0
   -2.5148   13.2647  -31.2200 H   0  0  0  0  0  0  0  0  0  0  0  0
   -1.8586   12.6656  -33.5254 H   0  0  0  0  0  0  0  0  0  0  0  0
   -2.1374   11.1786  -32.5876 H   0  0  0  0  0  0  0  0  0  0  0  0
   -7.6677    9.4251  -29.5828 H   0  0  0  0  0  0  0  0  0  0  0  0
  1  2  1  0  0  0  0
  1  4  2  0  0  0  0
  2  5  2  0  0  0  0
  3  4  1  0  0  0  0
  3  6  2  0  0  0  0
  4  8  1  0  0  0  0
  5  6  1  0  0  0  0
  5 10  1  0  0  0  0
  6 12  1  0  0  0  0
  7 11  1  0  0  0  0
  8  9  1  0  0  0  0
  9 11  1  0  0  0  0
  1 13  1  0  0  0  0
  2 14  1  0  0  0  0
  3 15  1  0  0  0  0
  7 16  1  0  0  0  0
  7 17  1  0  0  0  0
  7 18  1  0  0  0  0
  8 19  1  0  0  0  0
  8 20  1  0  0  0  0
  9 21  1  0  0  0  0
  9 22  1  0  0  0  0
 10 23  1  0  0  0  0
M  END
> <id>
EN300-340362

> <smiles>
COCCC=1C=CC(O)=C(Br)C1

> <MDLNUMBER>
MFCD26895863

> <IUPAC Name>
2-bromo-4-(2-methoxyethyl)phenol

> <CAS>
91376-21-5

> <URL>
https://www.enaminestore.com/catalog/EN300-340362

> <ROCS_ShapeQuery>
_x1604L0AP1_x0771L0AP1

> <ROCS_TanimotoCombo>
0.955 

> <ROCS_ShapeTanimoto>
0.458 

> <ROCS_ColorTanimoto>
0.497 

> <ROCS_RefTversky>
0.419 

> <ROCS_RefColorTversky>
0.515 

> <ROCS_RefTverskyCombo>
0.934 

> <ROCS_FitTversky>
1.257 

> <ROCS_FitColorTversky>
0.932 

> <ROCS_FitTverskyCombo>
2.189 

> <ROCS_ColorScore>
-4.878

> <ROCS_Overlap>
700.709

> <ROCS_Rank>
344                 

$$$$
untitled-dbase-911_400
  -OEChem-06052310023D

 32 33  0     0  0  0  0  0  0999 V2000
   -4.5734   12.4582  -29.8315 C   0  0  0  0  0  0  0  0  0  0  0  0
   -5.0536   11.1287  -31.7907 C   0  0  0  0  0  0  0  0  0  0  0  0
   -4.3219   12.1384  -31.1657 C   0  0  0  0  0  0  0  0  0  0  0  0
   -5.5566   11.7682  -29.1223 C   0  0  0  0  0  0  0  0  0  0  0  0
   -6.2883   10.7585  -29.7473 C   0  0  0  0  0  0  0  0  0  0  0  0
   -6.0368   10.4387  -31.0816 C   0  0  0  0  0  0  0  0  0  0  0  0
   -2.5448   12.1386  -33.0324 C   0  0  0  0  0  0  0  0  0  0  0  0
   -1.8299   12.4358  -31.7515 C   0  0  0  0  0  0  0  0  0  0  0  0
   -3.2724   12.8767  -31.9232 C   0  0  0  0  0  0  0  0  0  0  0  0
   -4.9986   13.1354  -27.2581 C   0  0  0  0  0  0  0  0  0  0  0  0
   -3.5430   14.3619  -32.1172 C   0  0  0  0  0  0  0  0  0  0  0  0
   -3.6534   15.1177  -30.7984 C   0  0  0  0  0  0  0  0  0  0  0  0
   -2.4460   15.0451  -30.0233 N   0  0  0  0  0  0  0  0  0  0  0  0
   -7.2455   10.0953  -29.0367 O   0  0  0  0  0  0  0  0  0  0  0  0
   -5.7912   12.0912  -27.8199 O   0  0  0  0  0  0  0  0  0  0  0  0
   -7.0115    9.0742  -31.9661 Br  0  0  0  0  0  0  0  0  0  0  0  0
   -4.0051   13.2452  -29.3416 H   0  0  0  0  0  0  0  0  0  0  0  0
   -4.8518   10.8863  -32.8319 H   0  0  0  0  0  0  0  0  0  0  0  0
   -2.2477   12.6927  -33.9152 H   0  0  0  0  0  0  0  0  0  0  0  0
   -2.8094   11.1066  -33.2329 H   0  0  0  0  0  0  0  0  0  0  0  0
   -1.6135   11.6027  -31.0926 H   0  0  0  0  0  0  0  0  0  0  0  0
   -1.0522   13.1906  -31.7717 H   0  0  0  0  0  0  0  0  0  0  0  0
   -5.2869   13.2922  -26.2158 H   0  0  0  0  0  0  0  0  0  0  0  0
   -5.1466   14.0546  -27.8305 H   0  0  0  0  0  0  0  0  0  0  0  0
   -3.9460   12.8460  -27.3030 H   0  0  0  0  0  0  0  0  0  0  0  0
   -4.4819   14.4775  -32.6711 H   0  0  0  0  0  0  0  0  0  0  0  0
   -2.7469   14.7955  -32.7340 H   0  0  0  0  0  0  0  0  0  0  0  0
   -3.8476   16.1778  -30.9895 H   0  0  0  0  0  0  0  0  0  0  0  0
   -4.4705   14.7271  -30.1837 H   0  0  0  0  0  0  0  0  0  0  0  0
   -1.6929   15.4551  -30.5383 H   0  0  0  0  0  0  0  0  0  0  0  0
   -2.5706   15.5414  -29.1640 H   0  0  0  0  0  0  0  0  0  0  0  0
   -7.2884   10.4411  -28.1321 H   0  0  0  0  0  0  0  0  0  0  0  0
  1  3  1  0  0  0  0
  1  4  2  0  0  0  0
  2  3  2  0  0  0  0
  2  6  1  0  0  0  0
  3  9  1  0  0  0  0
  4  5  1  0  0  0  0
  4 15  1  0  0  0  0
  5  6  2  0  0  0  0
  5 14  1  0  0  0  0
  6 16  1  0  0  0  0
  7  8  1  0  0  0  0
  7  9  1  0  0  0  0
  8  9  1  0  0  0  0
  9 11  1  0  0  0  0
 10 15  1  0  0  0  0
 11 12  1  0  0  0  0
 12 13  1  0  0  0  0
  1 17  1  0  0  0  0
  2 18  1  0  0  0  0
  7 19  1  0  0  0  0
  7 20  1  0  0  0  0
  8 21  1  0  0  0  0
  8 22  1  0  0  0  0
 10 23  1  0  0  0  0
 10 24  1  0  0  0  0
 10 25  1  0  0  0  0
 11 26  1  0  0  0  0
 11 27  1  0  0  0  0
 12 28  1  0  0  0  0
 12 29  1  0  0  0  0
 13 30  1  0  0  0  0
 13 31  1  0  0  0  0
 14 32  1  0  0  0  0
M  END
> <id>
EN300-1926981

> <smiles>
COC=1C=C(C=C(Br)C1O)C2(CCN)CC2

> <IUPAC Name>
4-[1-(2-aminoethyl)cyclopropyl]-2-bromo-6-methoxyphenol

> <CAS>
2228223-12-7

> <URL>
https://www.enaminestore.com/catalog/EN300-1926981

> <ROCS_ShapeQuery>
_x1604L0AP1_x0771L0AP1

> <ROCS_TanimotoCombo>
0.955 

> <ROCS_ShapeTanimoto>
0.542 

> <ROCS_ColorTanimoto>
0.413 

> <ROCS_RefTversky>
0.505 

> <ROCS_RefColorTversky>
0.510 

> <ROCS_RefTverskyCombo>
1.015 

> <ROCS_FitTversky>
1.157 

> <ROCS_FitColorTversky>
0.684 

> <ROCS_FitTverskyCombo>
1.841 

> <ROCS_ColorScore>
-4.881

> <ROCS_Overlap>
848.869

> <ROCS_Rank>
345                 

$$$$
untitled-dbase-1018_1130
  -OEChem-06052310023D

 29 30  0     0  0  0  0  0  0999 V2000
   -4.5797   12.4658  -29.8373 C   0  0  0  0  0  0  0  0  0  0  0  0
   -5.0572   11.1316  -31.7940 C   0  0  0  0  0  0  0  0  0  0  0  0
   -4.3279   12.1443  -31.1710 C   0  0  0  0  0  0  0  0  0  0  0  0
   -5.5608   11.7746  -29.1265 C   0  0  0  0  0  0  0  0  0  0  0  0
   -6.2902   10.7619  -29.7494 C   0  0  0  0  0  0  0  0  0  0  0  0
   -6.0384   10.4404  -31.0832 C   0  0  0  0  0  0  0  0  0  0  0  0
   -3.4827   14.3402  -32.0550 C   0  0  0  0  0  0  0  0  0  0  0  0
   -2.6139   12.1705  -33.0957 C   0  0  0  0  0  0  0  0  0  0  0  0
   -1.8480   12.3845  -31.8306 C   0  0  0  0  0  0  0  0  0  0  0  0
   -3.2804   12.8841  -31.9303 C   0  0  0  0  0  0  0  0  0  0  0  0
   -4.1287   13.5894  -26.9686 C   0  0  0  0  0  0  0  0  0  0  0  0
   -5.5603   13.4529  -27.4415 C   0  0  0  0  0  0  0  0  0  0  0  0
   -3.5550   15.0975  -31.0929 O   0  0  0  0  0  0  0  0  0  0  0  0
   -7.2455   10.0975  -29.0372 O   0  0  0  0  0  0  0  0  0  0  0  0
   -5.7959   12.0994  -27.8245 O   0  0  0  0  0  0  0  0  0  0  0  0
   -7.0099    9.0718  -31.9649 Br  0  0  0  0  0  0  0  0  0  0  0  0
   -4.0132   13.2552  -29.3490 H   0  0  0  0  0  0  0  0  0  0  0  0
   -4.8552   10.8879  -32.8348 H   0  0  0  0  0  0  0  0  0  0  0  0
   -3.5683   14.7230  -33.0860 H   0  0  0  0  0  0  0  0  0  0  0  0
   -2.3264   12.7546  -33.9626 H   0  0  0  0  0  0  0  0  0  0  0  0
   -2.9204   11.1581  -33.3331 H   0  0  0  0  0  0  0  0  0  0  0  0
   -1.6385   11.5158  -31.2168 H   0  0  0  0  0  0  0  0  0  0  0  0
   -1.0450   13.1127  -31.8457 H   0  0  0  0  0  0  0  0  0  0  0  0
   -3.9395   12.9446  -26.1059 H   0  0  0  0  0  0  0  0  0  0  0  0
   -3.4307   13.3229  -27.7690 H   0  0  0  0  0  0  0  0  0  0  0  0
   -3.9118   14.6258  -26.6893 H   0  0  0  0  0  0  0  0  0  0  0  0
   -5.7428   14.1002  -28.3044 H   0  0  0  0  0  0  0  0  0  0  0  0
   -6.2563   13.7187  -26.6404 H   0  0  0  0  0  0  0  0  0  0  0  0
   -7.6686    9.4256  -29.5933 H   0  0  0  0  0  0  0  0  0  0  0  0
  1  3  1  0  0  0  0
  1  4  2  0  0  0  0
  2  3  2  0  0  0  0
  2  6  1  0  0  0  0
  3 10  1  0  0  0  0
  4  5  1  0  0  0  0
  4 15  1  0  0  0  0
  5  6  2  0  0  0  0
  5 14  1  0  0  0  0
  6 16  1  0  0  0  0
  7 10  1  0  0  0  0
  7 13  2  0  0  0  0
  8  9  1  0  0  0  0
  8 10  1  0  0  0  0
  9 10  1  0  0  0  0
 11 12  1  0  0  0  0
 12 15  1  0  0  0  0
  1 17  1  0  0  0  0
  2 18  1  0  0  0  0
  7 19  1  0  0  0  0
  8 20  1  0  0  0  0
  8 21  1  0  0  0  0
  9 22  1  0  0  0  0
  9 23  1  0  0  0  0
 11 24  1  0  0  0  0
 11 25  1  0  0  0  0
 11 26  1  0  0  0  0
 12 27  1  0  0  0  0
 12 28  1  0  0  0  0
 14 29  1  0  0  0  0
M  END
> <id>
EN300-1920224

> <smiles>
CCOC=1C=C(C=C(Br)C1O)C2(CC2)C=O

> <IUPAC Name>
1-(3-bromo-5-ethoxy-4-hydroxyphenyl)cyclopropane-1-carbaldehyde

> <CAS>
2228179-68-6

> <URL>
https://www.enaminestore.com/catalog/EN300-1920224

> <ROCS_ShapeQuery>
_x1604L0AP1_x0771L0AP1

> <ROCS_TanimotoCombo>
0.954 

> <ROCS_ShapeTanimoto>
0.503 

> <ROCS_ColorTanimoto>
0.451 

> <ROCS_RefTversky>
0.482 

> <ROCS_RefColorTversky>
0.513 

> <ROCS_RefTverskyCombo>
0.995 

> <ROCS_FitTversky>
1.096 

> <ROCS_FitColorTversky>
0.789 

> <ROCS_FitTverskyCombo>
1.885 

> <ROCS_ColorScore>
-4.881

> <ROCS_Overlap>
811.209

> <ROCS_Rank>
346                 

$$$$
untitled-dbase-255_0
  -OEChem-06052310023D

 18 19  0     0  0  0  0  0  0999 V2000
   -6.5445   10.4935  -33.9625 C   0  0  0  0  0  0  0  0  0  0  0  0
   -5.5421   11.2553  -33.3796 C   0  0  0  0  0  0  0  0  0  0  0  0
   -4.3855   12.2004  -29.9755 C   0  0  0  0  0  0  0  0  0  0  0  0
   -7.4305    9.8528  -33.1203 C   0  0  0  0  0  0  0  0  0  0  0  0
   -5.4535   11.3551  -31.9845 C   0  0  0  0  0  0  0  0  0  0  0  0
   -6.4061   10.6632  -31.2075 C   0  0  0  0  0  0  0  0  0  0  0  0
   -6.3175   10.7625  -29.8217 C   0  0  0  0  0  0  0  0  0  0  0  0
   -4.4505   12.1185  -31.3635 C   0  0  0  0  0  0  0  0  0  0  0  0
   -5.3204   11.5214  -29.2040 C   0  0  0  0  0  0  0  0  0  0  0  0
   -7.3799    9.9231  -31.7704 N   0  0  0  0  0  0  0  0  0  0  0  0
   -7.2358   10.0946  -29.0561 O   0  0  0  0  0  0  0  0  0  0  0  0
   -3.1160   13.0927  -32.3170 Br  0  0  0  0  0  0  0  0  0  0  0  0
   -5.2098   11.6488  -27.3151 Br  0  0  0  0  0  0  0  0  0  0  0  0
   -6.6283   10.4052  -35.0390 H   0  0  0  0  0  0  0  0  0  0  0  0
   -4.8487   11.7566  -34.0478 H   0  0  0  0  0  0  0  0  0  0  0  0
   -3.6094   12.7908  -29.4934 H   0  0  0  0  0  0  0  0  0  0  0  0
   -8.2347    9.2431  -33.5194 H   0  0  0  0  0  0  0  0  0  0  0  0
   -7.8548    9.6184  -29.6274 H   0  0  0  0  0  0  0  0  0  0  0  0
  1  2  1  0  0  0  0
  1  4  2  0  0  0  0
  2  5  2  0  0  0  0
  3  8  2  0  0  0  0
  3  9  1  0  0  0  0
  4 10  1  0  0  0  0
  5  6  1  0  0  0  0
  5  8  1  0  0  0  0
  6  7  1  0  0  0  0
  6 10  2  0  0  0  0
  7  9  2  0  0  0  0
  7 11  1  0  0  0  0
  8 12  1  0  0  0  0
  9 13  1  0  0  0  0
  1 14  1  0  0  0  0
  2 15  1  0  0  0  0
  3 16  1  0  0  0  0
  4 17  1  0  0  0  0
 11 18  1  0  0  0  0
M  END
> <id>
EN300-21309

> <smiles>
OC=1C(Br)=CC(Br)=C2C=CC=NC12

> <MDLNUMBER>
MFCD00006785

> <IUPAC Name>
5,7-dibromoquinolin-8-ol

> <CAS>
521-74-4

> <Purity>
95

> <URL>
https://www.enaminestore.com/catalog/EN300-21309

> <MP>
199-201

> <ROCS_ShapeQuery>
_x1604L0AP1_x0771L0AP1

> <ROCS_TanimotoCombo>
0.954 

> <ROCS_ShapeTanimoto>
0.548 

> <ROCS_ColorTanimoto>
0.407 

> <ROCS_RefTversky>
0.487 

> <ROCS_RefColorTversky>
0.505 

> <ROCS_RefTverskyCombo>
0.992 

> <ROCS_FitTversky>
1.296 

> <ROCS_FitColorTversky>
0.676 

> <ROCS_FitTverskyCombo>
1.972 

> <ROCS_ColorScore>
-4.829

> <ROCS_Overlap>
816.345

> <ROCS_Rank>
347                 

$$$$
untitled-dbase-677_5
  -OEChem-06052310023D

 22 23  0     0  0  0  0  0  0999 V2000
   -6.6821   11.0796  -35.0538 C   0  0  0  0  0  0  0  0  0  0  0  0
   -5.8137   10.9799  -34.2310 C   0  0  0  0  0  0  0  0  0  0  0  0
   -4.6134   12.4991  -29.8517 C   0  0  0  0  0  0  0  0  0  0  0  0
   -4.3594   12.1831  -31.1863 C   0  0  0  0  0  0  0  0  0  0  0  0
   -5.5816   11.7913  -29.1394 C   0  0  0  0  0  0  0  0  0  0  0  0
   -5.0737   11.1594  -31.8087 C   0  0  0  0  0  0  0  0  0  0  0  0
   -6.2960   10.7677  -29.7619 C   0  0  0  0  0  0  0  0  0  0  0  0
   -6.0420   10.4517  -31.0965 C   0  0  0  0  0  0  0  0  0  0  0  0
   -3.7313    9.7704  -33.5044 C   0  0  0  0  0  0  0  0  0  0  0  0
   -3.3600   11.2002  -33.7232 C   0  0  0  0  0  0  0  0  0  0  0  0
   -4.7679   10.8598  -33.2408 C   0  0  0  0  0  0  0  0  0  0  0  0
   -7.2363   10.1003  -29.0342 O   0  0  0  0  0  0  0  0  0  0  0  0
   -7.0290    9.0561  -31.9346 Br  0  0  0  0  0  0  0  0  0  0  0  0
   -7.4526   11.1681  -35.7836 H   0  0  0  0  0  0  0  0  0  0  0  0
   -4.0565   13.2960  -29.3675 H   0  0  0  0  0  0  0  0  0  0  0  0
   -3.6015   12.7406  -31.7308 H   0  0  0  0  0  0  0  0  0  0  0  0
   -5.7736   12.0440  -28.1002 H   0  0  0  0  0  0  0  0  0  0  0  0
   -3.8418    9.1408  -34.3806 H   0  0  0  0  0  0  0  0  0  0  0  0
   -3.2837    9.2592  -32.6591 H   0  0  0  0  0  0  0  0  0  0  0  0
   -2.6644   11.6518  -33.0245 H   0  0  0  0  0  0  0  0  0  0  0  0
   -3.2211   11.5325  -34.7463 H   0  0  0  0  0  0  0  0  0  0  0  0
   -7.6579    9.4180  -29.5792 H   0  0  0  0  0  0  0  0  0  0  0  0
  1  2  3  0  0  0  0
  2 11  1  0  0  0  0
  3  4  2  0  0  0  0
  3  5  1  0  0  0  0
  4  6  1  0  0  0  0
  5  7  2  0  0  0  0
  6  8  2  0  0  0  0
  6 11  1  0  0  0  0
  7  8  1  0  0  0  0
  7 12  1  0  0  0  0
  8 13  1  0  0  0  0
  9 10  1  0  0  0  0
  9 11  1  0  0  0  0
 10 11  1  0  0  0  0
  1 14  1  0  0  0  0
  3 15  1  0  0  0  0
  4 16  1  0  0  0  0
  5 17  1  0  0  0  0
  9 18  1  0  0  0  0
  9 19  1  0  0  0  0
 10 20  1  0  0  0  0
 10 21  1  0  0  0  0
 12 22  1  0  0  0  0
M  END
> <id>
EN300-1904556

> <smiles>
OC=1C=CC=C(C1Br)C2(CC2)C#C

> <IUPAC Name>
2-bromo-3-(1-ethynylcyclopropyl)phenol

> <CAS>
2228472-31-7

> <URL>
https://www.enaminestore.com/catalog/EN300-1904556

> <ROCS_ShapeQuery>
_x1604L0AP1_x0771L0AP1

> <ROCS_TanimotoCombo>
0.954 

> <ROCS_ShapeTanimoto>
0.457 

> <ROCS_ColorTanimoto>
0.497 

> <ROCS_RefTversky>
0.429 

> <ROCS_RefColorTversky>
0.516 

> <ROCS_RefTverskyCombo>
0.945 

> <ROCS_FitTversky>
1.166 

> <ROCS_FitColorTversky>
0.933 

> <ROCS_FitTverskyCombo>
2.099 

> <ROCS_ColorScore>
-4.882

> <ROCS_Overlap>
719.260

> <ROCS_Rank>
348                 

$$$$
untitled-dbase-2010_0
  -OEChem-06052310023D

 21 22  0     0  0  0  0  0  0999 V2000
   -5.5351   11.2489  -33.3784 C   0  0  0  0  0  0  0  0  0  0  0  0
   -6.5317   10.4795  -33.9613 C   0  0  0  0  0  0  0  0  0  0  0  0
   -4.3926   12.2120  -29.9746 C   0  0  0  0  0  0  0  0  0  0  0  0
   -5.4507   11.3539  -31.9835 C   0  0  0  0  0  0  0  0  0  0  0  0
   -6.4014   10.6593  -31.2065 C   0  0  0  0  0  0  0  0  0  0  0  0
   -6.3169   10.7638  -29.8208 C   0  0  0  0  0  0  0  0  0  0  0  0
   -4.4535   12.1250  -31.3625 C   0  0  0  0  0  0  0  0  0  0  0  0
   -5.3256   11.5304  -29.2032 C   0  0  0  0  0  0  0  0  0  0  0  0
   -7.4163    9.8367  -33.1192 C   0  0  0  0  0  0  0  0  0  0  0  0
   -8.5042    8.9980  -33.7021 C   0  0  0  0  0  0  0  0  0  0  0  0
   -7.3696    9.9118  -31.7694 N   0  0  0  0  0  0  0  0  0  0  0  0
   -7.2341   10.0940  -29.0556 O   0  0  0  0  0  0  0  0  0  0  0  0
   -3.1210   13.1022  -32.3159 Br  0  0  0  0  0  0  0  0  0  0  0  0
   -5.2201   11.6658  -27.3143 Br  0  0  0  0  0  0  0  0  0  0  0  0
   -4.8427   11.7516  -34.0466 H   0  0  0  0  0  0  0  0  0  0  0  0
   -6.6037   10.3931  -35.0400 H   0  0  0  0  0  0  0  0  0  0  0  0
   -3.6210   12.8086  -29.4926 H   0  0  0  0  0  0  0  0  0  0  0  0
   -8.1627    7.9634  -33.8266 H   0  0  0  0  0  0  0  0  0  0  0  0
   -9.3933    8.9966  -33.0588 H   0  0  0  0  0  0  0  0  0  0  0  0
   -8.8203    9.3810  -34.6810 H   0  0  0  0  0  0  0  0  0  0  0  0
   -7.8493    9.6130  -29.6270 H   0  0  0  0  0  0  0  0  0  0  0  0
  1  2  1  0  0  0  0
  1  4  2  0  0  0  0
  2  9  2  0  0  0  0
  3  7  2  0  0  0  0
  3  8  1  0  0  0  0
  4  5  1  0  0  0  0
  4  7  1  0  0  0  0
  5  6  1  0  0  0  0
  5 11  2  0  0  0  0
  6  8  2  0  0  0  0
  6 12  1  0  0  0  0
  7 13  1  0  0  0  0
  8 14  1  0  0  0  0
  9 10  1  0  0  0  0
  9 11  1  0  0  0  0
  1 15  1  0  0  0  0
  2 16  1  0  0  0  0
  3 17  1  0  0  0  0
 10 18  1  0  0  0  0
 10 19  1  0  0  0  0
 10 20  1  0  0  0  0
 12 21  1  0  0  0  0
M  END
> <id>
EN300-25999819

> <smiles>
CC=1C=CC=2C(Br)=CC(Br)=C(O)C2N1

> <MDLNUMBER>
MFCD00023983

> <IUPAC Name>
5,7-dibromo-2-methylquinolin-8-ol

> <CAS>
15599-52-7

> <Purity>
95

> <URL>
https://www.enaminestore.com/catalog/EN300-25999819

> <MP>
126-130

> <ROCS_ShapeQuery>
_x1604L0AP1_x0771L0AP1

> <ROCS_TanimotoCombo>
0.954 

> <ROCS_ShapeTanimoto>
0.548 

> <ROCS_ColorTanimoto>
0.406 

> <ROCS_RefTversky>
0.495 

> <ROCS_RefColorTversky>
0.505 

> <ROCS_RefTverskyCombo>
1.000 

> <ROCS_FitTversky>
1.240 

> <ROCS_FitColorTversky>
0.676 

> <ROCS_FitTverskyCombo>
1.916 

> <ROCS_ColorScore>
-4.828

> <ROCS_Overlap>
831.493

> <ROCS_Rank>
349                 

$$$$
untitled-dbase-893_138
  -OEChem-06052310023D

 20 20  0     0  0  0  0  0  0999 V2000
   -4.8995   11.7181  -31.5608 C   0  0  0  0  0  0  0  0  0  0  0  0
   -4.4270   12.4733  -29.3150 C   0  0  0  0  0  0  0  0  0  0  0  0
   -5.9214   10.9042  -31.0722 C   0  0  0  0  0  0  0  0  0  0  0  0
   -6.1961   10.8748  -29.7050 C   0  0  0  0  0  0  0  0  0  0  0  0
   -4.1522   12.5027  -30.6822 C   0  0  0  0  0  0  0  0  0  0  0  0
   -5.4490   11.6593  -28.8264 C   0  0  0  0  0  0  0  0  0  0  0  0
   -7.2154    8.9161  -31.6250 C   0  0  0  0  0  0  0  0  0  0  0  0
   -6.6850   10.0955  -32.0136 C   0  0  0  0  0  0  0  0  0  0  0  0
   -6.9155   10.4820  -33.4396 C   0  0  0  0  0  0  0  0  0  0  0  0
   -7.0640    9.7129  -34.3768 O   0  0  0  0  0  0  0  0  0  0  0  0
   -7.1979   10.0757  -29.2321 O   0  0  0  0  0  0  0  0  0  0  0  0
   -6.9542   11.8303  -33.5596 O   0  0  0  0  0  0  0  0  0  0  0  0
   -2.8913   13.5070  -31.2852 Cl  0  0  0  0  0  0  0  0  0  0  0  0
   -5.7911   11.6477  -26.9613 Br  0  0  0  0  0  0  0  0  0  0  0  0
   -4.6831   11.7435  -32.6271 H   0  0  0  0  0  0  0  0  0  0  0  0
   -3.8414   13.0866  -28.6330 H   0  0  0  0  0  0  0  0  0  0  0  0
   -7.7877    8.2786  -32.2916 H   0  0  0  0  0  0  0  0  0  0  0  0
   -7.0856    8.5519  -30.6098 H   0  0  0  0  0  0  0  0  0  0  0  0
   -7.2661   10.1640  -28.2697 H   0  0  0  0  0  0  0  0  0  0  0  0
   -7.1150   12.1120  -34.4855 H   0  0  0  0  0  0  0  0  0  0  0  0
  1  3  2  0  0  0  0
  1  5  1  0  0  0  0
  2  5  2  0  0  0  0
  2  6  1  0  0  0  0
  3  4  1  0  0  0  0
  3  8  1  0  0  0  0
  4  6  2  0  0  0  0
  4 11  1  0  0  0  0
  5 13  1  0  0  0  0
  6 14  1  0  0  0  0
  7  8  2  0  0  0  0
  8  9  1  0  0  0  0
  9 10  2  0  0  0  0
  9 12  1  0  0  0  0
  1 15  1  0  0  0  0
  2 16  1  0  0  0  0
  7 17  1  0  0  0  0
  7 18  1  0  0  0  0
 11 19  1  0  0  0  0
 12 20  1  0  0  0  0
M  END
> <id>
EN300-1922892

> <smiles>
OC(=O)C(=C)C=1C=C(Cl)C=C(Br)C1O

> <IUPAC Name>
2-(3-bromo-5-chloro-2-hydroxyphenyl)prop-2-enoic acid

> <CAS>
2228468-59-3

> <URL>
https://www.enaminestore.com/catalog/EN300-1922892

> <ROCS_ShapeQuery>
_x1604L0AP1_x0771L0AP1

> <ROCS_TanimotoCombo>
0.954 

> <ROCS_ShapeTanimoto>
0.607 

> <ROCS_ColorTanimoto>
0.347 

> <ROCS_RefTversky>
0.524 

> <ROCS_RefColorTversky>
0.475 

> <ROCS_RefTverskyCombo>
0.999 

> <ROCS_FitTversky>
1.351 

> <ROCS_FitColorTversky>
0.564 

> <ROCS_FitTverskyCombo>
1.915 

> <ROCS_ColorScore>
-4.565

> <ROCS_Overlap>
879.547

> <ROCS_Rank>
350                 

$$$$
untitled-dbase-134_0
  -OEChem-06052310023D

 19 20  0     0  0  0  0  0  0999 V2000
   -5.5244   11.2753  -33.4056 C   0  0  0  0  0  0  0  0  0  0  0  0
   -4.4661   12.1396  -31.3720 C   0  0  0  0  0  0  0  0  0  0  0  0
   -6.5126   10.5046  -34.0187 C   0  0  0  0  0  0  0  0  0  0  0  0
   -4.4109   12.2211  -29.9803 C   0  0  0  0  0  0  0  0  0  0  0  0
   -7.3869    9.8993  -31.8516 C   0  0  0  0  0  0  0  0  0  0  0  0
   -5.4539   11.3686  -32.0061 C   0  0  0  0  0  0  0  0  0  0  0  0
   -6.3991   10.6704  -31.2174 C   0  0  0  0  0  0  0  0  0  0  0  0
   -6.3287   10.7637  -29.8179 C   0  0  0  0  0  0  0  0  0  0  0  0
   -7.4420    9.8180  -33.2432 C   0  0  0  0  0  0  0  0  0  0  0  0
   -5.3405   11.5344  -29.2048 C   0  0  0  0  0  0  0  0  0  0  0  0
   -7.2342   10.0936  -29.0413 O   0  0  0  0  0  0  0  0  0  0  0  0
   -8.7793    8.7748  -34.0781 Br  0  0  0  0  0  0  0  0  0  0  0  0
   -5.2260   11.6751  -27.3167 Br  0  0  0  0  0  0  0  0  0  0  0  0
   -4.8081   11.8042  -34.0309 H   0  0  0  0  0  0  0  0  0  0  0  0
   -3.7290   12.6849  -31.9576 H   0  0  0  0  0  0  0  0  0  0  0  0
   -6.5416   10.4522  -35.1041 H   0  0  0  0  0  0  0  0  0  0  0  0
   -3.6342   12.8262  -29.5196 H   0  0  0  0  0  0  0  0  0  0  0  0
   -8.1223    9.3547  -31.2617 H   0  0  0  0  0  0  0  0  0  0  0  0
   -7.0516   10.2595  -28.1053 H   0  0  0  0  0  0  0  0  0  0  0  0
  1  3  1  0  0  0  0
  1  6  2  0  0  0  0
  2  4  2  0  0  0  0
  2  6  1  0  0  0  0
  3  9  2  0  0  0  0
  4 10  1  0  0  0  0
  5  7  2  0  0  0  0
  5  9  1  0  0  0  0
  6  7  1  0  0  0  0
  7  8  1  0  0  0  0
  8 10  2  0  0  0  0
  8 11  1  0  0  0  0
  9 12  1  0  0  0  0
 10 13  1  0  0  0  0
  1 14  1  0  0  0  0
  2 15  1  0  0  0  0
  3 16  1  0  0  0  0
  4 17  1  0  0  0  0
  5 18  1  0  0  0  0
 11 19  1  0  0  0  0
M  END
> <id>
EN300-1144194

> <smiles>
OC=1C(Br)=CC=C2C=CC(Br)=CC12

> <MDLNUMBER>
MFCD31603924

> <IUPAC Name>
2,7-dibromonaphthalen-1-ol

> <CAS>
1476093-90-9

> <URL>
https://www.enaminestore.com/catalog/EN300-1144194

> <ROCS_ShapeQuery>
_x1604L0AP1_x0771L0AP1

> <ROCS_TanimotoCombo>
0.954 

> <ROCS_ShapeTanimoto>
0.509 

> <ROCS_ColorTanimoto>
0.445 

> <ROCS_RefTversky>
0.463 

> <ROCS_RefColorTversky>
0.508 

> <ROCS_RefTverskyCombo>
0.971 

> <ROCS_FitTversky>
1.245 

> <ROCS_FitColorTversky>
0.781 

> <ROCS_FitTverskyCombo>
2.026 

> <ROCS_ColorScore>
-4.833

> <ROCS_Overlap>
775.901

> <ROCS_Rank>
351                 

$$$$
untitled-dbase-2089_71
  -OEChem-06052310023D

 27 27  0     1  0  0  0  0  0999 V2000
   -4.6039   12.4858  -29.8742 C   0  0  0  0  0  0  0  0  0  0  0  0
   -4.3578   12.1598  -31.2078 C   0  0  0  0  0  0  0  0  0  0  0  0
   -5.5726   11.7878  -29.1529 C   0  0  0  0  0  0  0  0  0  0  0  0
   -5.0803   11.1359  -31.8203 C   0  0  0  0  0  0  0  0  0  0  0  0
   -6.2952   10.7639  -29.7654 C   0  0  0  0  0  0  0  0  0  0  0  0
   -6.0491   10.4379  -31.0991 C   0  0  0  0  0  0  0  0  0  0  0  0
   -5.5152   12.8658  -34.6222 C   0  0  0  0  0  0  0  0  0  0  0  0
   -4.7756   10.8222  -33.2673 C   0  0  0  0  0  0  0  0  0  0  0  0
   -5.7625   10.5744  -35.6206 C   0  0  0  0  0  0  0  0  0  0  0  0
   -5.7701   11.3828  -34.3171 C   0  0  2  0  0  0  0  0  0  0  0  0
   -7.1156   11.2891  -33.7218 N   0  0  0  0  0  0  0  0  0  0  0  0
   -7.2344   10.1043  -29.0292 O   0  0  0  0  0  0  0  0  0  0  0  0
   -6.0263    9.2673  -35.3686 F   0  0  0  0  0  0  0  0  0  0  0  0
   -6.7415   11.0136  -36.4539 F   0  0  0  0  0  0  0  0  0  0  0  0
   -7.0408    9.0389  -31.9239 Br  0  0  0  0  0  0  0  0  0  0  0  0
   -4.0416   13.2834  -29.3974 H   0  0  0  0  0  0  0  0  0  0  0  0
   -3.6007   12.7103  -31.7605 H   0  0  0  0  0  0  0  0  0  0  0  0
   -5.7591   12.0480  -28.1144 H   0  0  0  0  0  0  0  0  0  0  0  0
   -6.2242   13.2507  -35.3654 H   0  0  0  0  0  0  0  0  0  0  0  0
   -5.6148   13.4827  -33.7216 H   0  0  0  0  0  0  0  0  0  0  0  0
   -4.5114   13.0244  -35.0306 H   0  0  0  0  0  0  0  0  0  0  0  0
   -4.7081    9.7291  -33.3700 H   0  0  0  0  0  0  0  0  0  0  0  0
   -3.7607   11.1851  -33.4857 H   0  0  0  0  0  0  0  0  0  0  0  0
   -4.8129   10.6406  -36.1585 H   0  0  0  0  0  0  0  0  0  0  0  0
   -7.1143   11.8353  -32.8981 H   0  0  0  0  0  0  0  0  0  0  0  0
   -7.7584   11.6392  -34.3858 H   0  0  0  0  0  0  0  0  0  0  0  0
   -7.6620    9.4211  -29.5683 H   0  0  0  0  0  0  0  0  0  0  0  0
  1  2  1  0  0  0  0
  1  3  2  0  0  0  0
  2  4  2  0  0  0  0
  3  5  1  0  0  0  0
  4  6  1  0  0  0  0
  4  8  1  0  0  0  0
  5  6  2  0  0  0  0
  5 12  1  0  0  0  0
  6 15  1  0  0  0  0
  7 10  1  0  0  0  0
  8 10  1  0  0  0  0
  9 10  1  0  0  0  0
  9 13  1  0  0  0  0
  9 14  1  0  0  0  0
 10 11  1  0  0  0  0
  1 16  1  0  0  0  0
  2 17  1  0  0  0  0
  3 18  1  0  0  0  0
  7 19  1  0  0  0  0
  7 20  1  0  0  0  0
  7 21  1  0  0  0  0
  8 22  1  0  0  0  0
  8 23  1  0  0  0  0
  9 24  1  0  0  0  0
 11 25  1  0  0  0  0
 11 26  1  0  0  0  0
 12 27  1  0  0  0  0
M  END
> <id>
EN300-1951059

> <smiles>
CC(N)(CC=1C=CC=C(O)C1Br)C(F)F

> <IUPAC Name>
3-(2-amino-3,3-difluoro-2-methylpropyl)-2-bromophenol

> <CAS>
2228138-83-6

> <URL>
https://www.enaminestore.com/catalog/EN300-1951059

> <ROCS_ShapeQuery>
_x1604L0AP1_x0771L0AP1

> <ROCS_TanimotoCombo>
0.954 

> <ROCS_ShapeTanimoto>
0.502 

> <ROCS_ColorTanimoto>
0.451 

> <ROCS_RefTversky>
0.472 

> <ROCS_RefColorTversky>
0.513 

> <ROCS_RefTverskyCombo>
0.985 

> <ROCS_FitTversky>
1.147 

> <ROCS_FitColorTversky>
0.789 

> <ROCS_FitTverskyCombo>
1.936 

> <ROCS_ColorScore>
-4.881

> <ROCS_Overlap>
793.243

> <ROCS_Rank>
352                 

$$$$
untitled-dbase-1545_1
  -OEChem-06052310023D

 18 18  0     0  0  0  0  0  0999 V2000
   -4.5778   12.4739  -29.8649 C   0  0  0  0  0  0  0  0  0  0  0  0
   -5.0635   11.1256  -31.8099 C   0  0  0  0  0  0  0  0  0  0  0  0
   -5.5548   11.7869  -29.1445 C   0  0  0  0  0  0  0  0  0  0  0  0
   -4.3322   12.1434  -31.1976 C   0  0  0  0  0  0  0  0  0  0  0  0
   -6.2861   10.7691  -29.7568 C   0  0  0  0  0  0  0  0  0  0  0  0
   -6.0406   10.4385  -31.0895 C   0  0  0  0  0  0  0  0  0  0  0  0
   -5.7918   12.1505  -27.7541 C   0  0  0  0  0  0  0  0  0  0  0  0
   -3.2878   12.8785  -31.9676 C   0  0  0  0  0  0  0  0  0  0  0  0
   -6.6360   11.5937  -27.0489 O   0  0  0  0  0  0  0  0  0  0  0  0
   -7.2393   10.1038  -29.0409 O   0  0  0  0  0  0  0  0  0  0  0  0
   -7.0124    9.0605  -31.9565 Br  0  0  0  0  0  0  0  0  0  0  0  0
   -4.0052   13.2679  -29.3901 H   0  0  0  0  0  0  0  0  0  0  0  0
   -4.8654   10.8747  -32.8496 H   0  0  0  0  0  0  0  0  0  0  0  0
   -5.1734   12.9697  -27.3294 H   0  0  0  0  0  0  0  0  0  0  0  0
   -2.3159   12.3804  -31.8648 H   0  0  0  0  0  0  0  0  0  0  0  0
   -3.5413   12.9297  -33.0345 H   0  0  0  0  0  0  0  0  0  0  0  0
   -3.1874   13.9134  -31.6152 H   0  0  0  0  0  0  0  0  0  0  0  0
   -7.2820   10.4542  -28.1384 H   0  0  0  0  0  0  0  0  0  0  0  0
  1  3  2  0  0  0  0
  1  4  1  0  0  0  0
  2  4  2  0  0  0  0
  2  6  1  0  0  0  0
  3  5  1  0  0  0  0
  3  7  1  0  0  0  0
  4  8  1  0  0  0  0
  5  6  2  0  0  0  0
  5 10  1  0  0  0  0
  6 11  1  0  0  0  0
  7  9  2  0  0  0  0
  1 12  1  0  0  0  0
  2 13  1  0  0  0  0
  7 14  1  0  0  0  0
  8 15  1  0  0  0  0
  8 16  1  0  0  0  0
  8 17  1  0  0  0  0
 10 18  1  0  0  0  0
M  END
> <id>
EN300-129716

> <smiles>
CC=1C=C(Br)C(O)=C(C=O)C1

> <MDLNUMBER>
MFCD00275688

> <IUPAC Name>
3-bromo-2-hydroxy-5-methylbenzaldehyde

> <CAS>
33172-54-2

> <Purity>
95

> <URL>
https://www.enaminestore.com/catalog/EN300-129716

> <ROCS_ShapeQuery>
_x1604L0AP1_x0771L0AP1

> <ROCS_TanimotoCombo>
0.954 

> <ROCS_ShapeTanimoto>
0.456 

> <ROCS_ColorTanimoto>
0.497 

> <ROCS_RefTversky>
0.412 

> <ROCS_RefColorTversky>
0.516 

> <ROCS_RefTverskyCombo>
0.928 

> <ROCS_FitTversky>
1.305 

> <ROCS_FitColorTversky>
0.933 

> <ROCS_FitTverskyCombo>
2.238 

> <ROCS_ColorScore>
-4.884

> <ROCS_Overlap>
688.910

> <ROCS_Rank>
353                 

$$$$
untitled-dbase-1548_1
  -OEChem-06052310023D

 19 19  0     0  0  0  0  0  0999 V2000
   -4.5927   12.4765  -29.8343 C   0  0  0  0  0  0  0  0  0  0  0  0
   -5.5721   11.7797  -29.1267 C   0  0  0  0  0  0  0  0  0  0  0  0
   -5.0589   11.1421  -31.7937 C   0  0  0  0  0  0  0  0  0  0  0  0
   -4.3361   12.1577  -31.1679 C   0  0  0  0  0  0  0  0  0  0  0  0
   -6.2949   10.7640  -29.7525 C   0  0  0  0  0  0  0  0  0  0  0  0
   -6.0383   10.4452  -31.0860 C   0  0  0  0  0  0  0  0  0  0  0  0
   -3.3144   12.8845  -31.9048 C   0  0  0  0  0  0  0  0  0  0  0  0
   -2.7060   12.4535  -33.0307 C   0  0  0  0  0  0  0  0  0  0  0  0
   -1.6751   13.2985  -33.6665 C   0  0  0  0  0  0  0  0  0  0  0  0
   -1.0945   12.9527  -34.6884 O   0  0  0  0  0  0  0  0  0  0  0  0
   -7.2436   10.1007  -29.0325 O   0  0  0  0  0  0  0  0  0  0  0  0
   -6.9998    9.0696  -31.9671 Br  0  0  0  0  0  0  0  0  0  0  0  0
   -4.0380   13.2662  -29.3330 H   0  0  0  0  0  0  0  0  0  0  0  0
   -5.7667   12.0344  -28.0883 H   0  0  0  0  0  0  0  0  0  0  0  0
   -4.8564   10.8961  -32.8345 H   0  0  0  0  0  0  0  0  0  0  0  0
   -3.0114   13.8525  -31.4885 H   0  0  0  0  0  0  0  0  0  0  0  0
   -2.9279   11.5018  -33.4977 H   0  0  0  0  0  0  0  0  0  0  0  0
   -1.4554   14.2591  -33.1715 H   0  0  0  0  0  0  0  0  0  0  0  0
   -7.6685    9.4245  -29.5826 H   0  0  0  0  0  0  0  0  0  0  0  0
  1  2  1  0  0  0  0
  1  4  2  0  0  0  0
  2  5  2  0  0  0  0
  3  4  1  0  0  0  0
  3  6  2  0  0  0  0
  4  7  1  0  0  0  0
  5  6  1  0  0  0  0
  5 11  1  0  0  0  0
  6 12  1  0  0  0  0
  7  8  2  3  0  0  0
  8  9  1  0  0  0  0
  9 10  2  0  0  0  0
  1 13  1  0  0  0  0
  2 14  1  0  0  0  0
  3 15  1  0  0  0  0
  7 16  1  0  0  0  0
  8 17  1  0  0  0  0
  9 18  1  0  0  0  0
 11 19  1  0  0  0  0
M  END
> <id>
EN300-1906367

> <smiles>
OC=1C=CC(C=CC=O)=CC1Br

> <IUPAC Name>
3-(3-bromo-4-hydroxyphenyl)prop-2-enal

> <CAS>
1629719-82-9

> <URL>
https://www.enaminestore.com/catalog/EN300-1906367

> <ROCS_ShapeQuery>
_x1604L0AP1_x0771L0AP1

> <ROCS_TanimotoCombo>
0.954 

> <ROCS_ShapeTanimoto>
0.457 

> <ROCS_ColorTanimoto>
0.497 

> <ROCS_RefTversky>
0.419 

> <ROCS_RefColorTversky>
0.515 

> <ROCS_RefTverskyCombo>
0.935 

> <ROCS_FitTversky>
1.245 

> <ROCS_FitColorTversky>
0.932 

> <ROCS_FitTverskyCombo>
2.177 

> <ROCS_ColorScore>
-4.878

> <ROCS_Overlap>
701.453

> <ROCS_Rank>
354                 

$$$$
untitled-dbase-1924_0
  -OEChem-06052310023D

 15 15  0     0  0  0  0  0  0999 V2000
   -4.3444   12.1451  -31.2205 C   0  0  0  0  0  0  0  0  0  0  0  0
   -5.0760   11.1231  -31.8254 C   0  0  0  0  0  0  0  0  0  0  0  0
   -5.5555   11.7925  -29.1599 C   0  0  0  0  0  0  0  0  0  0  0  0
   -6.2871   10.7705  -29.7648 C   0  0  0  0  0  0  0  0  0  0  0  0
   -4.5841   12.4798  -29.8877 C   0  0  0  0  0  0  0  0  0  0  0  0
   -6.0473   10.4358  -31.0975 C   0  0  0  0  0  0  0  0  0  0  0  0
   -5.7900   12.1571  -27.7690 C   0  0  0  0  0  0  0  0  0  0  0  0
   -6.6297   11.5975  -27.0608 O   0  0  0  0  0  0  0  0  0  0  0  0
   -7.2352   10.1050  -29.0423 O   0  0  0  0  0  0  0  0  0  0  0  0
   -3.8739   13.4635  -29.3173 F   0  0  0  0  0  0  0  0  0  0  0  0
   -7.0203    9.0539  -31.9561 Br  0  0  0  0  0  0  0  0  0  0  0  0
   -3.5879   12.6799  -31.7871 H   0  0  0  0  0  0  0  0  0  0  0  0
   -4.8752   10.8762  -32.8647 H   0  0  0  0  0  0  0  0  0  0  0  0
   -5.1739   12.9794  -27.3476 H   0  0  0  0  0  0  0  0  0  0  0  0
   -7.2747   10.4584  -28.1408 H   0  0  0  0  0  0  0  0  0  0  0  0
  1  2  2  0  0  0  0
  1  5  1  0  0  0  0
  2  6  1  0  0  0  0
  3  4  1  0  0  0  0
  3  5  2  0  0  0  0
  3  7  1  0  0  0  0
  4  6  2  0  0  0  0
  4  9  1  0  0  0  0
  5 10  1  0  0  0  0
  6 11  1  0  0  0  0
  7  8  2  0  0  0  0
  1 12  1  0  0  0  0
  2 13  1  0  0  0  0
  7 14  1  0  0  0  0
  9 15  1  0  0  0  0
M  END
> <id>
EN300-306187

> <smiles>
OC=1C(Br)=CC=C(F)C1C=O

> <MDLNUMBER>
MFCD20528359

> <IUPAC Name>
3-bromo-6-fluoro-2-hydroxybenzaldehyde

> <CAS>
199287-82-6

> <Purity>
95

> <URL>
https://www.enaminestore.com/catalog/EN300-306187

> <ROCS_ShapeQuery>
_x1604L0AP1_x0771L0AP1

> <ROCS_TanimotoCombo>
0.954 

> <ROCS_ShapeTanimoto>
0.456 

> <ROCS_ColorTanimoto>
0.497 

> <ROCS_RefTversky>
0.414 

> <ROCS_RefColorTversky>
0.516 

> <ROCS_RefTverskyCombo>
0.930 

> <ROCS_FitTversky>
1.289 

> <ROCS_FitColorTversky>
0.932 

> <ROCS_FitTverskyCombo>
2.222 

> <ROCS_ColorScore>
-4.883

> <ROCS_Overlap>
692.094

> <ROCS_Rank>
355                 

$$$$
untitled-dbase-631_1
  -OEChem-06052310023D

 18 18  0     0  0  0  0  0  0999 V2000
   -4.3466   12.1472  -31.2238 C   0  0  0  0  0  0  0  0  0  0  0  0
   -5.0774   11.1235  -31.8267 C   0  0  0  0  0  0  0  0  0  0  0  0
   -5.5569   11.7973  -29.1623 C   0  0  0  0  0  0  0  0  0  0  0  0
   -4.5863   12.4841  -29.8916 C   0  0  0  0  0  0  0  0  0  0  0  0
   -6.2878   10.7736  -29.7652 C   0  0  0  0  0  0  0  0  0  0  0  0
   -6.0480   10.4367  -31.0974 C   0  0  0  0  0  0  0  0  0  0  0  0
   -5.8084   12.1473  -27.7685 C   0  0  0  0  0  0  0  0  0  0  0  0
   -3.7872   13.5849  -29.2730 C   0  0  0  0  0  0  0  0  0  0  0  0
   -6.1989   11.3305  -26.9334 O   0  0  0  0  0  0  0  0  0  0  0  0
   -7.2351   10.1069  -29.0428 O   0  0  0  0  0  0  0  0  0  0  0  0
   -7.0207    9.0528  -31.9536 Br  0  0  0  0  0  0  0  0  0  0  0  0
   -3.5931   12.6767  -31.8009 H   0  0  0  0  0  0  0  0  0  0  0  0
   -4.8769   10.8750  -32.8658 H   0  0  0  0  0  0  0  0  0  0  0  0
   -5.6335   13.2020  -27.4712 H   0  0  0  0  0  0  0  0  0  0  0  0
   -4.2925   14.5467  -29.4161 H   0  0  0  0  0  0  0  0  0  0  0  0
   -3.6497   13.4179  -28.1979 H   0  0  0  0  0  0  0  0  0  0  0  0
   -2.7864   13.6453  -29.7179 H   0  0  0  0  0  0  0  0  0  0  0  0
   -7.2755   10.4606  -28.1415 H   0  0  0  0  0  0  0  0  0  0  0  0
  1  2  1  0  0  0  0
  1  4  2  0  0  0  0
  2  6  2  0  0  0  0
  3  4  1  0  0  0  0
  3  5  2  0  0  0  0
  3  7  1  0  0  0  0
  4  8  1  0  0  0  0
  5  6  1  0  0  0  0
  5 10  1  0  0  0  0
  6 11  1  0  0  0  0
  7  9  2  0  0  0  0
  1 12  1  0  0  0  0
  2 13  1  0  0  0  0
  7 14  1  0  0  0  0
  8 15  1  0  0  0  0
  8 16  1  0  0  0  0
  8 17  1  0  0  0  0
 10 18  1  0  0  0  0
M  END
> <id>
EN300-180454

> <smiles>
CC=1C=CC(Br)=C(O)C1C=O

> <MDLNUMBER>
MFCD16657857

> <IUPAC Name>
3-bromo-2-hydroxy-6-methylbenzaldehyde

> <CAS>
160561-95-5

> <Purity>
95

> <URL>
https://www.enaminestore.com/catalog/EN300-180454

> <ROCS_ShapeQuery>
_x1604L0AP1_x0771L0AP1

> <ROCS_TanimotoCombo>
0.954 

> <ROCS_ShapeTanimoto>
0.456 

> <ROCS_ColorTanimoto>
0.497 

> <ROCS_RefTversky>
0.413 

> <ROCS_RefColorTversky>
0.516 

> <ROCS_RefTverskyCombo>
0.929 

> <ROCS_FitTversky>
1.300 

> <ROCS_FitColorTversky>
0.933 

> <ROCS_FitTverskyCombo>
2.233 

> <ROCS_ColorScore>
-4.882

> <ROCS_Overlap>
690.063

> <ROCS_Rank>
356                 

$$$$
untitled-dbase-1239_11
  -OEChem-06052310023D

 21 22  0     0  0  0  0  0  0999 V2000
   -4.3002   12.1696  -31.2113 C   0  0  0  0  0  0  0  0  0  0  0  0
   -4.9398   11.1074  -31.8502 C   0  0  0  0  0  0  0  0  0  0  0  0
   -4.6405   12.5015  -29.8998 C   0  0  0  0  0  0  0  0  0  0  0  0
   -7.8627    8.9070  -31.5882 C   0  0  0  0  0  0  0  0  0  0  0  0
   -5.9197   10.3771  -31.1778 C   0  0  0  0  0  0  0  0  0  0  0  0
   -6.2600   10.7090  -29.8664 C   0  0  0  0  0  0  0  0  0  0  0  0
   -5.6204   11.7712  -29.2274 C   0  0  0  0  0  0  0  0  0  0  0  0
   -6.5641    9.2853  -31.8575 C   0  0  0  0  0  0  0  0  0  0  0  0
   -6.7264    7.6261  -33.2825 C   0  0  0  0  0  0  0  0  0  0  0  0
   -5.9107    8.5518  -32.8285 N   0  0  0  0  0  0  0  0  0  0  0  0
   -6.4015    6.7262  -34.2485 N   0  0  0  0  0  0  0  0  0  0  0  0
   -7.2197    9.9912  -29.2107 O   0  0  0  0  0  0  0  0  0  0  0  0
   -8.2944    7.5811  -32.5867 S   0  0  0  0  0  0  0  0  0  0  0  0
   -6.0508   12.2530  -27.4447 Br  0  0  0  0  0  0  0  0  0  0  0  0
   -3.5375   12.7389  -31.7346 H   0  0  0  0  0  0  0  0  0  0  0  0
   -4.6611   10.8620  -32.8726 H   0  0  0  0  0  0  0  0  0  0  0  0
   -4.1310   13.3321  -29.4178 H   0  0  0  0  0  0  0  0  0  0  0  0
   -8.5641    9.3278  -30.8808 H   0  0  0  0  0  0  0  0  0  0  0  0
   -7.0534    5.9900  -34.5401 H   0  0  0  0  0  0  0  0  0  0  0  0
   -5.4606    6.6892  -34.6554 H   0  0  0  0  0  0  0  0  0  0  0  0
   -7.3417   10.3412  -28.3157 H   0  0  0  0  0  0  0  0  0  0  0  0
  1  2  1  0  0  0  0
  1  3  2  0  0  0  0
  2  5  2  0  0  0  0
  3  7  1  0  0  0  0
  4  8  2  0  0  0  0
  4 13  1  0  0  0  0
  5  6  1  0  0  0  0
  5  8  1  0  0  0  0
  6  7  2  0  0  0  0
  6 12  1  0  0  0  0
  7 14  1  0  0  0  0
  8 10  1  0  0  0  0
  9 10  2  0  0  0  0
  9 11  1  0  0  0  0
  9 13  1  0  0  0  0
  1 15  1  0  0  0  0
  2 16  1  0  0  0  0
  3 17  1  0  0  0  0
  4 18  1  0  0  0  0
 11 19  1  0  0  0  0
 11 20  1  0  0  0  0
 12 21  1  0  0  0  0
M  END
> <id>
EN300-1923768

> <smiles>
NC1=NC(=CS1)C=2C=CC=C(Br)C2O

> <IUPAC Name>
2-(2-amino-1,3-thiazol-4-yl)-6-bromophenol

> <CAS>
2228494-41-3

> <URL>
https://www.enaminestore.com/catalog/EN300-1923768

> <ROCS_ShapeQuery>
_x1604L0AP1_x0771L0AP1

> <ROCS_TanimotoCombo>
0.954 

> <ROCS_ShapeTanimoto>
0.497 

> <ROCS_ColorTanimoto>
0.457 

> <ROCS_RefTversky>
0.464 

> <ROCS_RefColorTversky>
0.577 

> <ROCS_RefTverskyCombo>
1.041 

> <ROCS_FitTversky>
1.168 

> <ROCS_FitColorTversky>
0.686 

> <ROCS_FitTverskyCombo>
1.854 

> <ROCS_ColorScore>
-5.552

> <ROCS_Overlap>
778.559

> <ROCS_Rank>
357                 

$$$$
untitled-dbase-212_15
  -OEChem-06052310023D

 30 30  0     0  0  0  0  0  0999 V2000
   -5.0463   11.2339  -31.7733 C   0  0  0  0  0  0  0  0  0  0  0  0
   -4.5311   12.4762  -29.7663 C   0  0  0  0  0  0  0  0  0  0  0  0
   -6.0321   10.5282  -31.0835 C   0  0  0  0  0  0  0  0  0  0  0  0
   -4.2958   12.2079  -31.1147 C   0  0  0  0  0  0  0  0  0  0  0  0
   -6.2674   10.7965  -29.7351 C   0  0  0  0  0  0  0  0  0  0  0  0
   -5.5169   11.7705  -29.0764 C   0  0  0  0  0  0  0  0  0  0  0  0
   -6.8119    9.5043  -31.8026 C   0  0  0  0  0  0  0  0  0  0  0  0
   -3.2416   12.9620  -31.8524 C   0  0  0  0  0  0  0  0  0  0  0  0
   -6.1761    8.0962  -35.3875 C   0  0  0  0  0  0  0  0  0  0  0  0
   -7.0444   10.3457  -34.7213 C   0  0  0  0  0  0  0  0  0  0  0  0
   -6.1562    8.7513  -32.9603 C   0  0  0  0  0  0  0  0  0  0  0  0
   -6.9079    8.8812  -34.2967 C   0  0  0  0  0  0  0  0  0  0  0  0
   -7.9679    9.2461  -31.4657 O   0  0  0  0  0  0  0  0  0  0  0  0
   -7.2352   10.0993  -29.0712 O   0  0  0  0  0  0  0  0  0  0  0  0
   -5.8077   12.1651  -27.2448 Br  0  0  0  0  0  0  0  0  0  0  0  0
   -4.8607   11.0275  -32.8252 H   0  0  0  0  0  0  0  0  0  0  0  0
   -3.9408   13.2372  -29.2607 H   0  0  0  0  0  0  0  0  0  0  0  0
   -3.6650   13.8673  -32.3043 H   0  0  0  0  0  0  0  0  0  0  0  0
   -2.4217   13.2572  -31.1848 H   0  0  0  0  0  0  0  0  0  0  0  0
   -2.7978   12.3503  -32.6489 H   0  0  0  0  0  0  0  0  0  0  0  0
   -5.1611    8.4820  -35.5299 H   0  0  0  0  0  0  0  0  0  0  0  0
   -6.7018    8.1625  -36.3462 H   0  0  0  0  0  0  0  0  0  0  0  0
   -6.0947    7.0380  -35.1175 H   0  0  0  0  0  0  0  0  0  0  0  0
   -6.0662   10.8220  -34.8379 H   0  0  0  0  0  0  0  0  0  0  0  0
   -7.6009   10.9155  -33.9695 H   0  0  0  0  0  0  0  0  0  0  0  0
   -7.5783   10.4350  -35.6737 H   0  0  0  0  0  0  0  0  0  0  0  0
   -5.1300    9.1155  -33.0877 H   0  0  0  0  0  0  0  0  0  0  0  0
   -6.1167    7.6946  -32.6683 H   0  0  0  0  0  0  0  0  0  0  0  0
   -7.9141    8.4559  -34.1954 H   0  0  0  0  0  0  0  0  0  0  0  0
   -7.6587    9.4661  -29.6703 H   0  0  0  0  0  0  0  0  0  0  0  0
  1  3  2  0  0  0  0
  1  4  1  0  0  0  0
  2  4  2  0  0  0  0
  2  6  1  0  0  0  0
  3  5  1  0  0  0  0
  3  7  1  0  0  0  0
  4  8  1  0  0  0  0
  5  6  2  0  0  0  0
  5 14  1  0  0  0  0
  6 15  1  0  0  0  0
  7 11  1  0  0  0  0
  7 13  2  0  0  0  0
  9 12  1  0  0  0  0
 10 12  1  0  0  0  0
 11 12  1  0  0  0  0
  1 16  1  0  0  0  0
  2 17  1  0  0  0  0
  8 18  1  0  0  0  0
  8 19  1  0  0  0  0
  8 20  1  0  0  0  0
  9 21  1  0  0  0  0
  9 22  1  0  0  0  0
  9 23  1  0  0  0  0
 10 24  1  0  0  0  0
 10 25  1  0  0  0  0
 10 26  1  0  0  0  0
 11 27  1  0  0  0  0
 11 28  1  0  0  0  0
 12 29  1  0  0  0  0
 14 30  1  0  0  0  0
M  END
> <id>
EN300-1276643

> <smiles>
CC(C)CC(=O)C=1C=C(C)C=C(Br)C1O

> <MDLNUMBER>
MFCD16742955

> <IUPAC Name>
1-(3-bromo-2-hydroxy-5-methylphenyl)-3-methylbutan-1-one

> <CAS>
1250786-98-1

> <URL>
https://www.enaminestore.com/catalog/EN300-1276643

> <ROCS_ShapeQuery>
_x1604L0AP1_x0771L0AP1

> <ROCS_TanimotoCombo>
0.954 

> <ROCS_ShapeTanimoto>
0.625 

> <ROCS_ColorTanimoto>
0.329 

> <ROCS_RefTversky>
0.541 

> <ROCS_RefColorTversky>
0.408 

> <ROCS_RefTverskyCombo>
0.949 

> <ROCS_FitTversky>
1.330 

> <ROCS_FitColorTversky>
0.628 

> <ROCS_FitTverskyCombo>
1.958 

> <ROCS_ColorScore>
-3.887

> <ROCS_Overlap>
908.349

> <ROCS_Rank>
358                 

$$$$
untitled-dbase-699_205
  -OEChem-06052310023D

 25 25  0     1  0  0  0  0  0999 V2000
   -4.5808   12.4657  -29.8491 C   0  0  0  0  0  0  0  0  0  0  0  0
   -5.0594   11.1240  -31.8004 C   0  0  0  0  0  0  0  0  0  0  0  0
   -4.3297   12.1391  -31.1817 C   0  0  0  0  0  0  0  0  0  0  0  0
   -5.5616   11.7772  -29.1351 C   0  0  0  0  0  0  0  0  0  0  0  0
   -6.2912   10.7620  -29.7538 C   0  0  0  0  0  0  0  0  0  0  0  0
   -6.0401   10.4354  -31.0864 C   0  0  0  0  0  0  0  0  0  0  0  0
   -5.0047   13.1575  -27.2803 C   0  0  0  0  0  0  0  0  0  0  0  0
   -3.2818   12.8762  -31.9449 C   0  0  2  0  0  0  0  0  0  0  0  0
   -2.5623   13.9348  -31.0961 C   0  0  0  0  0  0  0  0  0  0  0  0
   -3.8251   13.5272  -33.1512 N   0  0  0  0  0  0  0  0  0  0  0  0
   -7.2470   10.1007  -29.0391 O   0  0  0  0  0  0  0  0  0  0  0  0
   -5.7957   12.1081  -27.8344 O   0  0  0  0  0  0  0  0  0  0  0  0
   -3.4763   14.8214  -30.6216 F   0  0  0  0  0  0  0  0  0  0  0  0
   -1.9963   13.3598  -30.0024 F   0  0  0  0  0  0  0  0  0  0  0  0
   -7.0112    9.0621  -31.9611 Br  0  0  0  0  0  0  0  0  0  0  0  0
   -4.0136   13.2570  -29.3646 H   0  0  0  0  0  0  0  0  0  0  0  0
   -4.8565   10.8768  -32.8402 H   0  0  0  0  0  0  0  0  0  0  0  0
   -5.2923   13.3204  -26.2387 H   0  0  0  0  0  0  0  0  0  0  0  0
   -5.1553   14.0726  -27.8584 H   0  0  0  0  0  0  0  0  0  0  0  0
   -3.9515   12.8701  -27.3244 H   0  0  0  0  0  0  0  0  0  0  0  0
   -2.5010   12.1776  -32.2971 H   0  0  0  0  0  0  0  0  0  0  0  0
   -1.7892   14.4864  -31.6396 H   0  0  0  0  0  0  0  0  0  0  0  0
   -3.0789   13.9989  -33.5952 H   0  0  0  0  0  0  0  0  0  0  0  0
   -4.1976   12.8169  -33.7285 H   0  0  0  0  0  0  0  0  0  0  0  0
   -7.2905   10.4519  -28.1366 H   0  0  0  0  0  0  0  0  0  0  0  0
  1  3  1  0  0  0  0
  1  4  2  0  0  0  0
  2  3  2  0  0  0  0
  2  6  1  0  0  0  0
  3  8  1  0  0  0  0
  4  5  1  0  0  0  0
  4 12  1  0  0  0  0
  5  6  2  0  0  0  0
  5 11  1  0  0  0  0
  6 15  1  0  0  0  0
  7 12  1  0  0  0  0
  8  9  1  0  0  0  0
  8 10  1  0  0  0  0
  9 13  1  0  0  0  0
  9 14  1  0  0  0  0
  1 16  1  0  0  0  0
  2 17  1  0  0  0  0
  7 18  1  0  0  0  0
  7 19  1  0  0  0  0
  7 20  1  0  0  0  0
  8 21  1  0  0  0  0
  9 22  1  0  0  0  0
 10 23  1  0  0  0  0
 10 24  1  0  0  0  0
 11 25  1  0  0  0  0
M  END
> <id>
EN300-1933366

> <smiles>
COC=1C=C(C=C(Br)C1O)C(N)C(F)F

> <MDLNUMBER>
MFCD26141217

> <IUPAC Name>
4-(1-amino-2,2-difluoroethyl)-2-bromo-6-methoxyphenol

> <CAS>
1823067-68-0

> <URL>
https://www.enaminestore.com/catalog/EN300-1933366

> <ROCS_ShapeQuery>
_x1604L0AP1_x0771L0AP1

> <ROCS_TanimotoCombo>
0.953 

> <ROCS_ShapeTanimoto>
0.541 

> <ROCS_ColorTanimoto>
0.413 

> <ROCS_RefTversky>
0.496 

> <ROCS_RefColorTversky>
0.510 

> <ROCS_RefTverskyCombo>
1.006 

> <ROCS_FitTversky>
1.199 

> <ROCS_FitColorTversky>
0.684 

> <ROCS_FitTverskyCombo>
1.883 

> <ROCS_ColorScore>
-4.881

> <ROCS_Overlap>
833.366

> <ROCS_Rank>
359                 

$$$$
untitled-dbase-926_567
  -OEChem-06052310023D

 26 26  0     1  0  0  0  0  0999 V2000
   -7.0963   11.6882  -33.2746 C   0  0  0  0  0  0  0  0  0  0  0  0
   -6.8290   11.7047  -31.9057 C   0  0  0  0  0  0  0  0  0  0  0  0
   -6.8745   10.5268  -34.0146 C   0  0  0  0  0  0  0  0  0  0  0  0
   -6.3397   10.5598  -31.2768 C   0  0  0  0  0  0  0  0  0  0  0  0
   -6.1179    9.3983  -32.0168 C   0  0  0  0  0  0  0  0  0  0  0  0
   -6.3853    9.3819  -33.3857 C   0  0  0  0  0  0  0  0  0  0  0  0
   -4.5055   12.5519  -30.0404 C   0  0  0  0  0  0  0  0  0  0  0  0
   -2.6036   13.9285  -29.7680 C   0  0  0  0  0  0  0  0  0  0  0  0
   -5.7208   12.0166  -29.3219 C   0  0  0  0  0  0  0  0  0  0  0  0
   -6.0558   10.6001  -29.7929 C   0  0  1  0  0  0  0  0  0  0  0  0
   -4.2124   12.2600  -31.1925 O   0  0  0  0  0  0  0  0  0  0  0  0
   -5.6374    8.2867  -31.3875 O   0  0  0  0  0  0  0  0  0  0  0  0
   -7.2104   10.1206  -29.1025 O   0  0  0  0  0  0  0  0  0  0  0  0
   -3.7981   13.3712  -29.2108 O   0  0  0  0  0  0  0  0  0  0  0  0
   -6.0981    7.8232  -34.4260 Br  0  0  0  0  0  0  0  0  0  0  0  0
   -7.4777   12.5794  -33.7642 H   0  0  0  0  0  0  0  0  0  0  0  0
   -7.0069   12.6131  -31.3363 H   0  0  0  0  0  0  0  0  0  0  0  0
   -7.0891   10.5328  -35.0803 H   0  0  0  0  0  0  0  0  0  0  0  0
   -2.1167   14.5650  -29.0251 H   0  0  0  0  0  0  0  0  0  0  0  0
   -2.8535   14.5132  -30.6569 H   0  0  0  0  0  0  0  0  0  0  0  0
   -1.9287   13.1158  -30.0467 H   0  0  0  0  0  0  0  0  0  0  0  0
   -6.5477   12.7112  -29.5147 H   0  0  0  0  0  0  0  0  0  0  0  0
   -5.5217   12.0526  -28.2435 H   0  0  0  0  0  0  0  0  0  0  0  0
   -5.2377    9.9101  -29.5540 H   0  0  0  0  0  0  0  0  0  0  0  0
   -5.5342    7.5628  -32.0237 H   0  0  0  0  0  0  0  0  0  0  0  0
   -7.3571    9.2143  -29.4120 H   0  0  0  0  0  0  0  0  0  0  0  0
  1  2  1  0  0  0  0
  1  3  2  0  0  0  0
  2  4  2  0  0  0  0
  3  6  1  0  0  0  0
  4  5  1  0  0  0  0
  4 10  1  0  0  0  0
  5  6  2  0  0  0  0
  5 12  1  0  0  0  0
  6 15  1  0  0  0  0
  7  9  1  0  0  0  0
  7 11  2  0  0  0  0
  7 14  1  0  0  0  0
  8 14  1  0  0  0  0
  9 10  1  0  0  0  0
 10 13  1  1  0  0  0
  1 16  1  0  0  0  0
  2 17  1  0  0  0  0
  3 18  1  0  0  0  0
  8 19  1  0  0  0  0
  8 20  1  0  0  0  0
  8 21  1  0  0  0  0
  9 22  1  0  0  0  0
  9 23  1  0  0  0  0
 10 24  1  0  0  0  0
 12 25  1  0  0  0  0
 13 26  1  0  0  0  0
M  END
> <id>
EN300-1923418

> <smiles>
COC(=O)C[C@@H](O)C=1C=CC=C(Br)C1O

> <IUPAC Name>
methyl (3R)-3-(3-bromo-2-hydroxyphenyl)-3-hydroxypropanoate

> <CAS>
2227904-25-6

> <URL>
https://www.enaminestore.com/catalog/EN300-1923418

> <ROCS_ShapeQuery>
_x1604L0AP1_x0771L0AP1

> <ROCS_TanimotoCombo>
0.953 

> <ROCS_ShapeTanimoto>
0.650 

> <ROCS_ColorTanimoto>
0.303 

> <ROCS_RefTversky>
0.556 

> <ROCS_RefColorTversky>
0.406 

> <ROCS_RefTverskyCombo>
0.962 

> <ROCS_FitTversky>
1.352 

> <ROCS_FitColorTversky>
0.545 

> <ROCS_FitTverskyCombo>
1.897 

> <ROCS_ColorScore>
-3.886

> <ROCS_Overlap>
934.082

> <ROCS_Rank>
360                 

$$$$
untitled-dbase-2128_14
  -OEChem-06052310023D

 27 27  0     0  0  0  0  0  0999 V2000
   -4.2293   12.2939  -29.2042 C   0  0  0  0  0  0  0  0  0  0  0  0
   -6.1003   11.1939  -30.9570 C   0  0  0  0  0  0  0  0  0  0  0  0
   -6.1858   10.9299  -29.5900 C   0  0  0  0  0  0  0  0  0  0  0  0
   -5.0793   12.0079  -31.4475 C   0  0  0  0  0  0  0  0  0  0  0  0
   -4.1438   12.5578  -30.5712 C   0  0  0  0  0  0  0  0  0  0  0  0
   -5.2503   11.4798  -28.7136 C   0  0  0  0  0  0  0  0  0  0  0  0
   -7.0699   10.6248  -31.8922 C   0  0  0  0  0  0  0  0  0  0  0  0
   -6.2740    8.2952  -31.0887 C   0  0  0  0  0  0  0  0  0  0  0  0
   -8.6733    8.6969  -31.7385 C   0  0  0  0  0  0  0  0  0  0  0  0
   -6.8658    8.6969  -33.4657 C   0  0  0  0  0  0  0  0  0  0  0  0
   -7.2141    9.0852  -32.0126 C   0  0  0  0  0  0  0  0  0  0  0  0
   -7.7731   11.3607  -32.5890 O   0  0  0  0  0  0  0  0  0  0  0  0
   -7.1882   10.1302  -29.1217 O   0  0  0  0  0  0  0  0  0  0  0  0
   -5.0006   12.2610  -32.7631 F   0  0  0  0  0  0  0  0  0  0  0  0
   -2.8813   13.5629  -31.1700 Cl  0  0  0  0  0  0  0  0  0  0  0  0
   -5.3325   11.1442  -26.8493 Br  0  0  0  0  0  0  0  0  0  0  0  0
   -3.4985   12.7251  -28.5233 H   0  0  0  0  0  0  0  0  0  0  0  0
   -6.4001    7.2137  -31.1973 H   0  0  0  0  0  0  0  0  0  0  0  0
   -5.2237    8.5123  -31.3158 H   0  0  0  0  0  0  0  0  0  0  0  0
   -6.4449    8.5485  -30.0362 H   0  0  0  0  0  0  0  0  0  0  0  0
   -8.8256    7.6160  -31.8121 H   0  0  0  0  0  0  0  0  0  0  0  0
   -9.3515    9.1748  -32.4544 H   0  0  0  0  0  0  0  0  0  0  0  0
   -8.9822    8.9987  -30.7310 H   0  0  0  0  0  0  0  0  0  0  0  0
   -6.9503    7.6138  -33.6131 H   0  0  0  0  0  0  0  0  0  0  0  0
   -7.5340    9.1884  -34.1820 H   0  0  0  0  0  0  0  0  0  0  0  0
   -5.8403    8.9834  -33.7261 H   0  0  0  0  0  0  0  0  0  0  0  0
   -7.1185   10.0390  -28.1594 H   0  0  0  0  0  0  0  0  0  0  0  0
  1  5  1  0  0  0  0
  1  6  2  0  0  0  0
  2  3  2  0  0  0  0
  2  4  1  0  0  0  0
  2  7  1  0  0  0  0
  3  6  1  0  0  0  0
  3 13  1  0  0  0  0
  4  5  2  0  0  0  0
  4 14  1  0  0  0  0
  5 15  1  0  0  0  0
  6 16  1  0  0  0  0
  7 11  1  0  0  0  0
  7 12  2  0  0  0  0
  8 11  1  0  0  0  0
  9 11  1  0  0  0  0
 10 11  1  0  0  0  0
  1 17  1  0  0  0  0
  8 18  1  0  0  0  0
  8 19  1  0  0  0  0
  8 20  1  0  0  0  0
  9 21  1  0  0  0  0
  9 22  1  0  0  0  0
  9 23  1  0  0  0  0
 10 24  1  0  0  0  0
 10 25  1  0  0  0  0
 10 26  1  0  0  0  0
 13 27  1  0  0  0  0
M  END
> <id>
EN300-1276807

> <smiles>
CC(C)(C)C(=O)C=1C(O)=C(Br)C=C(Cl)C1F

> <IUPAC Name>
1-(3-bromo-5-chloro-6-fluoro-2-hydroxyphenyl)-2,2-dimethylpropan-1-one

> <CAS>
1701971-60-9

> <URL>
https://www.enaminestore.com/catalog/EN300-1276807

> <ROCS_ShapeQuery>
_x1604L0AP1_x0771L0AP1

> <ROCS_TanimotoCombo>
0.953 

> <ROCS_ShapeTanimoto>
0.555 

> <ROCS_ColorTanimoto>
0.399 

> <ROCS_RefTversky>
0.512 

> <ROCS_RefColorTversky>
0.470 

> <ROCS_RefTverskyCombo>
0.982 

> <ROCS_FitTversky>
1.179 

> <ROCS_FitColorTversky>
0.724 

> <ROCS_FitTverskyCombo>
1.902 

> <ROCS_ColorScore>
-4.476

> <ROCS_Overlap>
860.731

> <ROCS_Rank>
361                 

$$$$
untitled-dbase-201_79
  -OEChem-06052310023D

 27 27  0     0  0  0  0  0  0999 V2000
   -5.0394   11.2946  -31.7500 C   0  0  0  0  0  0  0  0  0  0  0  0
   -4.5406   12.4961  -29.7142 C   0  0  0  0  0  0  0  0  0  0  0  0
   -6.0262   10.5706  -31.0810 C   0  0  0  0  0  0  0  0  0  0  0  0
   -6.2703   10.8094  -29.7286 C   0  0  0  0  0  0  0  0  0  0  0  0
   -4.2965   12.2573  -31.0666 C   0  0  0  0  0  0  0  0  0  0  0  0
   -5.5275   11.7721  -29.0451 C   0  0  0  0  0  0  0  0  0  0  0  0
   -6.7970    9.5574  -31.8247 C   0  0  0  0  0  0  0  0  0  0  0  0
   -6.7076    8.9535  -35.6803 C   0  0  0  0  0  0  0  0  0  0  0  0
   -6.9538    7.2776  -33.8394 C   0  0  0  0  0  0  0  0  0  0  0  0
   -7.0349    9.7590  -33.3214 C   0  0  0  0  0  0  0  0  0  0  0  0
   -6.4158    8.6631  -34.2065 C   0  0  0  0  0  0  0  0  0  0  0  0
   -7.2279    8.5549  -31.2541 O   0  0  0  0  0  0  0  0  0  0  0  0
   -7.2378   10.0931  -29.0847 O   0  0  0  0  0  0  0  0  0  0  0  0
   -3.0788   13.1501  -31.8928 Cl  0  0  0  0  0  0  0  0  0  0  0  0
   -5.8293   12.1261  -27.2071 Br  0  0  0  0  0  0  0  0  0  0  0  0
   -4.8506   11.1064  -32.8048 H   0  0  0  0  0  0  0  0  0  0  0  0
   -3.9588   13.2477  -29.1847 H   0  0  0  0  0  0  0  0  0  0  0  0
   -7.7865    8.9716  -35.8671 H   0  0  0  0  0  0  0  0  0  0  0  0
   -6.2634    8.1928  -36.3314 H   0  0  0  0  0  0  0  0  0  0  0  0
   -6.3033    9.9285  -35.9725 H   0  0  0  0  0  0  0  0  0  0  0  0
   -8.0410    7.2271  -33.9524 H   0  0  0  0  0  0  0  0  0  0  0  0
   -6.7192    7.0360  -32.7972 H   0  0  0  0  0  0  0  0  0  0  0  0
   -6.5127    6.4999  -34.4723 H   0  0  0  0  0  0  0  0  0  0  0  0
   -8.1142    9.8057  -33.5083 H   0  0  0  0  0  0  0  0  0  0  0  0
   -6.5940   10.7286  -33.5839 H   0  0  0  0  0  0  0  0  0  0  0  0
   -5.3266    8.6564  -34.0754 H   0  0  0  0  0  0  0  0  0  0  0  0
   -7.6544    9.4702  -29.6992 H   0  0  0  0  0  0  0  0  0  0  0  0
  1  3  2  0  0  0  0
  1  5  1  0  0  0  0
  2  5  2  0  0  0  0
  2  6  1  0  0  0  0
  3  4  1  0  0  0  0
  3  7  1  0  0  0  0
  4  6  2  0  0  0  0
  4 13  1  0  0  0  0
  5 14  1  0  0  0  0
  6 15  1  0  0  0  0
  7 10  1  0  0  0  0
  7 12  2  0  0  0  0
  8 11  1  0  0  0  0
  9 11  1  0  0  0  0
 10 11  1  0  0  0  0
  1 16  1  0  0  0  0
  2 17  1  0  0  0  0
  8 18  1  0  0  0  0
  8 19  1  0  0  0  0
  8 20  1  0  0  0  0
  9 21  1  0  0  0  0
  9 22  1  0  0  0  0
  9 23  1  0  0  0  0
 10 24  1  0  0  0  0
 10 25  1  0  0  0  0
 11 26  1  0  0  0  0
 13 27  1  0  0  0  0
M  END
> <id>
EN300-1276713

> <smiles>
CC(C)CC(=O)C=1C=C(Cl)C=C(Br)C1O

> <MDLNUMBER>
MFCD16742961

> <IUPAC Name>
1-(3-bromo-5-chloro-2-hydroxyphenyl)-3-methylbutan-1-one

> <CAS>
1247670-84-3

> <URL>
https://www.enaminestore.com/catalog/EN300-1276713

> <ROCS_ShapeQuery>
_x1604L0AP1_x0771L0AP1

> <ROCS_TanimotoCombo>
0.953 

> <ROCS_ShapeTanimoto>
0.625 

> <ROCS_ColorTanimoto>
0.328 

> <ROCS_RefTversky>
0.540 

> <ROCS_RefColorTversky>
0.408 

> <ROCS_RefTverskyCombo>
0.948 

> <ROCS_FitTversky>
1.339 

> <ROCS_FitColorTversky>
0.627 

> <ROCS_FitTverskyCombo>
1.966 

> <ROCS_ColorScore>
-3.881

> <ROCS_Overlap>
906.385

> <ROCS_Rank>
362                 

$$$$
untitled-dbase-1693_6
  -OEChem-06052310023D

 24 24  0     1  0  0  0  0  0999 V2000
   -4.2927   12.2489  -31.1016 C   0  0  0  0  0  0  0  0  0  0  0  0
   -5.1332   11.4067  -31.8295 C   0  0  0  0  0  0  0  0  0  0  0  0
   -4.4339   12.3488  -29.7175 C   0  0  0  0  0  0  0  0  0  0  0  0
   -6.1151   10.6644  -31.1732 C   0  0  0  0  0  0  0  0  0  0  0  0
   -6.2564   10.7643  -29.7891 C   0  0  0  0  0  0  0  0  0  0  0  0
   -5.4158   11.6065  -29.0612 C   0  0  0  0  0  0  0  0  0  0  0  0
   -6.2601    8.6786  -32.7646 C   0  0  0  0  0  0  0  0  0  0  0  0
   -7.1916    7.7175  -33.5080 C   0  0  0  0  0  0  0  0  0  0  0  0
   -7.0146    9.7603  -31.9804 C   0  0  2  0  0  0  0  0  0  0  0  0
   -6.4113    6.7112  -34.2201 N   0  0  0  0  0  0  0  0  0  0  0  0
   -7.2228   10.0329  -29.1617 O   0  0  0  0  0  0  0  0  0  0  0  0
   -7.8024   10.4430  -32.8648 F   0  0  0  0  0  0  0  0  0  0  0  0
   -5.5751   11.7691  -27.1792 Br  0  0  0  0  0  0  0  0  0  0  0  0
   -3.5279   12.8266  -31.6124 H   0  0  0  0  0  0  0  0  0  0  0  0
   -5.0147   11.3331  -32.9072 H   0  0  0  0  0  0  0  0  0  0  0  0
   -3.7693   13.0100  -29.1671 H   0  0  0  0  0  0  0  0  0  0  0  0
   -5.5577    9.1401  -33.4699 H   0  0  0  0  0  0  0  0  0  0  0  0
   -5.6629    8.0992  -32.0482 H   0  0  0  0  0  0  0  0  0  0  0  0
   -7.8129    8.2591  -34.2285 H   0  0  0  0  0  0  0  0  0  0  0  0
   -7.8592    7.2145  -32.8005 H   0  0  0  0  0  0  0  0  0  0  0  0
   -7.7086    9.2723  -31.2857 H   0  0  0  0  0  0  0  0  0  0  0  0
   -7.0410    6.0889  -34.6698 H   0  0  0  0  0  0  0  0  0  0  0  0
   -5.8408    7.1744  -34.8878 H   0  0  0  0  0  0  0  0  0  0  0  0
   -7.2022   10.2033  -28.2077 H   0  0  0  0  0  0  0  0  0  0  0  0
  1  2  1  0  0  0  0
  1  3  2  0  0  0  0
  2  4  2  0  0  0  0
  3  6  1  0  0  0  0
  4  5  1  0  0  0  0
  4  9  1  0  0  0  0
  5  6  2  0  0  0  0
  5 11  1  0  0  0  0
  6 13  1  0  0  0  0
  7  8  1  0  0  0  0
  7  9  1  0  0  0  0
  8 10  1  0  0  0  0
  9 12  1  0  0  0  0
  1 14  1  0  0  0  0
  2 15  1  0  0  0  0
  3 16  1  0  0  0  0
  7 17  1  0  0  0  0
  7 18  1  0  0  0  0
  8 19  1  0  0  0  0
  8 20  1  0  0  0  0
  9 21  1  0  0  0  0
 10 22  1  0  0  0  0
 10 23  1  0  0  0  0
 11 24  1  0  0  0  0
M  END
> <id>
EN300-1923129

> <smiles>
NCCC(F)C=1C=CC=C(Br)C1O

> <IUPAC Name>
2-(3-amino-1-fluoropropyl)-6-bromophenol

> <CAS>
2228437-52-1

> <URL>
https://www.enaminestore.com/catalog/EN300-1923129

> <ROCS_ShapeQuery>
_x1604L0AP1_x0771L0AP1

> <ROCS_TanimotoCombo>
0.953 

> <ROCS_ShapeTanimoto>
0.524 

> <ROCS_ColorTanimoto>
0.429 

> <ROCS_RefTversky>
0.467 

> <ROCS_RefColorTversky>
0.496 

> <ROCS_RefTverskyCombo>
0.962 

> <ROCS_FitTversky>
1.305 

> <ROCS_FitColorTversky>
0.763 

> <ROCS_FitTverskyCombo>
2.068 

> <ROCS_ColorScore>
-4.716

> <ROCS_Overlap>
781.900

> <ROCS_Rank>
363                 

$$$$
untitled-dbase-2221_0
  -OEChem-06052310023D

 14 14  0     0  0  0  0  0  0999 V2000
   -4.5789   12.4827  -29.8630 C   0  0  0  0  0  0  0  0  0  0  0  0
   -5.0678   11.1315  -31.8053 C   0  0  0  0  0  0  0  0  0  0  0  0
   -6.2856   10.7766  -29.7491 C   0  0  0  0  0  0  0  0  0  0  0  0
   -5.5537   11.7957  -29.1397 C   0  0  0  0  0  0  0  0  0  0  0  0
   -4.3359   12.1506  -31.1959 C   0  0  0  0  0  0  0  0  0  0  0  0
   -6.0427   10.4445  -31.0819 C   0  0  0  0  0  0  0  0  0  0  0  0
   -7.2404   10.1016  -29.0429 O   0  0  0  0  0  0  0  0  0  0  0  0
   -5.8309   12.2533  -27.4332 S   0  0  0  0  0  0  0  0  0  0  0  0
   -3.1337   12.9989  -32.0889 Cl  0  0  0  0  0  0  0  0  0  0  0  0
   -7.0140    9.0654  -31.9484 Br  0  0  0  0  0  0  0  0  0  0  0  0
   -4.0040   13.2788  -29.3938 H   0  0  0  0  0  0  0  0  0  0  0  0
   -4.8754   10.8756  -32.8450 H   0  0  0  0  0  0  0  0  0  0  0  0
   -7.6551    9.4299  -29.6046 H   0  0  0  0  0  0  0  0  0  0  0  0
   -6.8027   11.3648  -27.1802 H   0  0  0  0  0  0  0  0  0  0  0  0
  1  4  1  0  0  0  0
  1  5  2  0  0  0  0
  2  5  1  0  0  0  0
  2  6  2  0  0  0  0
  3  4  2  0  0  0  0
  3  6  1  0  0  0  0
  3  7  1  0  0  0  0
  4  8  1  0  0  0  0
  5  9  1  0  0  0  0
  6 10  1  0  0  0  0
  1 11  1  0  0  0  0
  2 12  1  0  0  0  0
  7 13  1  0  0  0  0
  8 14  1  0  0  0  0
M  END
> <id>
EN300-1922930

> <smiles>
OC=1C(S)=CC(Cl)=CC1Br

> <MDLNUMBER>
MFCD33499566

> <IUPAC Name>
2-bromo-4-chloro-6-sulfanylphenol

> <CAS>
2228496-47-5

> <URL>
https://www.enaminestore.com/catalog/EN300-1922930

> <ROCS_ShapeQuery>
_x1604L0AP1_x0771L0AP1

> <ROCS_TanimotoCombo>
0.953 

> <ROCS_ShapeTanimoto>
0.456 

> <ROCS_ColorTanimoto>
0.497 

> <ROCS_RefTversky>
0.401 

> <ROCS_RefColorTversky>
0.516 

> <ROCS_RefTverskyCombo>
0.917 

> <ROCS_FitTversky>
1.429 

> <ROCS_FitColorTversky>
0.933 

> <ROCS_FitTverskyCombo>
2.362 

> <ROCS_ColorScore>
-4.882

> <ROCS_Overlap>
669.093

> <ROCS_Rank>
364                 

$$$$
untitled-dbase-890_3
  -OEChem-06052310023D

 21 22  0     0  0  0  0  0  0999 V2000
   -4.9756   11.3403  -31.8402 C   0  0  0  0  0  0  0  0  0  0  0  0
   -4.5261   12.3995  -29.7157 C   0  0  0  0  0  0  0  0  0  0  0  0
   -8.0187    9.4310  -32.3938 C   0  0  0  0  0  0  0  0  0  0  0  0
   -5.9678   10.5630  -31.2428 C   0  0  0  0  0  0  0  0  0  0  0  0
   -6.2392   10.7040  -29.8818 C   0  0  0  0  0  0  0  0  0  0  0  0
   -4.2547   12.2585  -31.0766 C   0  0  0  0  0  0  0  0  0  0  0  0
   -5.5184   11.6222  -29.1183 C   0  0  0  0  0  0  0  0  0  0  0  0
   -6.7019    9.6188  -32.0540 C   0  0  0  0  0  0  0  0  0  0  0  0
   -6.9014    7.9215  -33.3406 C   0  0  0  0  0  0  0  0  0  0  0  0
   -8.1402    8.3420  -33.2186 N   0  0  0  0  0  0  0  0  0  0  0  0
   -6.4275    6.8693  -34.0468 N   0  0  0  0  0  0  0  0  0  0  0  0
   -5.9690    8.6453  -32.6627 O   0  0  0  0  0  0  0  0  0  0  0  0
   -7.2117    9.9406  -29.3011 O   0  0  0  0  0  0  0  0  0  0  0  0
   -3.0296   13.2169  -31.8137 Cl  0  0  0  0  0  0  0  0  0  0  0  0
   -5.8566   11.8443  -27.2659 Br  0  0  0  0  0  0  0  0  0  0  0  0
   -4.7612   11.2315  -32.9018 H   0  0  0  0  0  0  0  0  0  0  0  0
   -3.9614   13.1164  -29.1235 H   0  0  0  0  0  0  0  0  0  0  0  0
   -8.8783   10.0124  -32.0945 H   0  0  0  0  0  0  0  0  0  0  0  0
   -7.0517    6.2289  -34.5563 H   0  0  0  0  0  0  0  0  0  0  0  0
   -5.4328    6.6054  -34.0304 H   0  0  0  0  0  0  0  0  0  0  0  0
   -7.2807   10.1526  -28.3583 H   0  0  0  0  0  0  0  0  0  0  0  0
  1  4  2  0  0  0  0
  1  6  1  0  0  0  0
  2  6  2  0  0  0  0
  2  7  1  0  0  0  0
  3  8  2  0  0  0  0
  3 10  1  0  0  0  0
  4  5  1  0  0  0  0
  4  8  1  0  0  0  0
  5  7  2  0  0  0  0
  5 13  1  0  0  0  0
  6 14  1  0  0  0  0
  7 15  1  0  0  0  0
  8 12  1  0  0  0  0
  9 10  2  0  0  0  0
  9 11  1  0  0  0  0
  9 12  1  0  0  0  0
  1 16  1  0  0  0  0
  2 17  1  0  0  0  0
  3 18  1  0  0  0  0
 11 19  1  0  0  0  0
 11 20  1  0  0  0  0
 13 21  1  0  0  0  0
M  END
> <id>
EN300-1922957

> <smiles>
NC1=NC=C(O1)C=2C=C(Cl)C=C(Br)C2O

> <IUPAC Name>
2-(2-amino-1,3-oxazol-5-yl)-6-bromo-4-chlorophenol

> <CAS>
2229165-97-1

> <URL>
https://www.enaminestore.com/catalog/EN300-1922957

> <ROCS_ShapeQuery>
_x1604L0AP1_x0771L0AP1

> <ROCS_TanimotoCombo>
0.953 

> <ROCS_ShapeTanimoto>
0.551 

> <ROCS_ColorTanimoto>
0.402 

> <ROCS_RefTversky>
0.508 

> <ROCS_RefColorTversky>
0.528 

> <ROCS_RefTverskyCombo>
1.036 

> <ROCS_FitTversky>
1.182 

> <ROCS_FitColorTversky>
0.627 

> <ROCS_FitTverskyCombo>
1.809 

> <ROCS_ColorScore>
-5.076

> <ROCS_Overlap>
854.313

> <ROCS_Rank>
365                 

$$$$
untitled-dbase-1951_464
  -OEChem-06052310023D

 24 24  0     1  0  0  0  0  0999 V2000
   -4.5808   12.4663  -29.8492 C   0  0  0  0  0  0  0  0  0  0  0  0
   -5.0582   11.1235  -31.8000 C   0  0  0  0  0  0  0  0  0  0  0  0
   -4.3289   12.1390  -31.1815 C   0  0  0  0  0  0  0  0  0  0  0  0
   -5.5619   11.7780  -29.1354 C   0  0  0  0  0  0  0  0  0  0  0  0
   -6.2911   10.7625  -29.7539 C   0  0  0  0  0  0  0  0  0  0  0  0
   -6.0393   10.4352  -31.0863 C   0  0  0  0  0  0  0  0  0  0  0  0
   -5.0061   13.1593  -27.2809 C   0  0  0  0  0  0  0  0  0  0  0  0
   -3.2806   12.8758  -31.9445 C   0  0  2  0  0  0  0  0  0  0  0  0
   -2.6139   13.9780  -31.1225 C   0  0  0  0  0  0  0  0  0  0  0  0
   -7.2473   10.1015  -29.0394 O   0  0  0  0  0  0  0  0  0  0  0  0
   -3.8406   13.4557  -33.1289 O   0  0  0  0  0  0  0  0  0  0  0  0
   -5.7967   12.1095  -27.8350 O   0  0  0  0  0  0  0  0  0  0  0  0
   -2.0512   13.4588  -30.0035 F   0  0  0  0  0  0  0  0  0  0  0  0
   -3.5459   14.8738  -30.7073 F   0  0  0  0  0  0  0  0  0  0  0  0
   -7.0098    9.0614  -31.9609 Br  0  0  0  0  0  0  0  0  0  0  0  0
   -4.0139   13.2578  -29.3648 H   0  0  0  0  0  0  0  0  0  0  0  0
   -4.8547   10.8758  -32.8396 H   0  0  0  0  0  0  0  0  0  0  0  0
   -5.2943   13.3227  -26.2396 H   0  0  0  0  0  0  0  0  0  0  0  0
   -5.1565   14.0741  -27.8596 H   0  0  0  0  0  0  0  0  0  0  0  0
   -3.9529   12.8719  -27.3243 H   0  0  0  0  0  0  0  0  0  0  0  0
   -2.4981   12.1843  -32.2981 H   0  0  0  0  0  0  0  0  0  0  0  0
   -1.8460   14.5147  -31.6876 H   0  0  0  0  0  0  0  0  0  0  0  0
   -7.2913   10.4531  -28.1372 H   0  0  0  0  0  0  0  0  0  0  0  0
   -4.5345   14.0602  -32.8299 H   0  0  0  0  0  0  0  0  0  0  0  0
  1  3  1  0  0  0  0
  1  4  2  0  0  0  0
  2  3  2  0  0  0  0
  2  6  1  0  0  0  0
  3  8  1  0  0  0  0
  4  5  1  0  0  0  0
  4 12  1  0  0  0  0
  5  6  2  0  0  0  0
  5 10  1  0  0  0  0
  6 15  1  0  0  0  0
  7 12  1  0  0  0  0
  8  9  1  0  0  0  0
  8 11  1  0  0  0  0
  9 13  1  0  0  0  0
  9 14  1  0  0  0  0
  1 16  1  0  0  0  0
  2 17  1  0  0  0  0
  7 18  1  0  0  0  0
  7 19  1  0  0  0  0
  7 20  1  0  0  0  0
  8 21  1  0  0  0  0
  9 22  1  0  0  0  0
 10 23  1  0  0  0  0
 11 24  1  0  0  0  0
M  END
> <id>
EN300-1931408

> <smiles>
COC=1C=C(C=C(Br)C1O)C(O)C(F)F

> <MDLNUMBER>
MFCD23943833

> <IUPAC Name>
2-bromo-4-(2,2-difluoro-1-hydroxyethyl)-6-methoxyphenol

> <CAS>
1536105-55-1

> <URL>
https://www.enaminestore.com/catalog/EN300-1931408

> <ROCS_ShapeQuery>
_x1604L0AP1_x0771L0AP1

> <ROCS_TanimotoCombo>
0.953 

> <ROCS_ShapeTanimoto>
0.540 

> <ROCS_ColorTanimoto>
0.413 

> <ROCS_RefTversky>
0.497 

> <ROCS_RefColorTversky>
0.510 

> <ROCS_RefTverskyCombo>
1.007 

> <ROCS_FitTversky>
1.193 

> <ROCS_FitColorTversky>
0.684 

> <ROCS_FitTverskyCombo>
1.877 

> <ROCS_ColorScore>
-4.881

> <ROCS_Overlap>
834.572

> <ROCS_Rank>
366                 

$$$$
untitled-dbase-557_61
  -OEChem-06052310023D

 22 22  0     1  0  0  0  0  0999 V2000
   -4.6009   12.4876  -29.8529 C   0  0  0  0  0  0  0  0  0  0  0  0
   -4.3489   12.1707  -31.1876 C   0  0  0  0  0  0  0  0  0  0  0  0
   -5.5719   11.7841  -29.1402 C   0  0  0  0  0  0  0  0  0  0  0  0
   -5.0681   11.1503  -31.8099 C   0  0  0  0  0  0  0  0  0  0  0  0
   -6.2911   10.7636  -29.7625 C   0  0  0  0  0  0  0  0  0  0  0  0
   -6.0392   10.4467  -31.0973 C   0  0  0  0  0  0  0  0  0  0  0  0
   -5.4254   11.3257  -35.5037 C   0  0  0  0  0  0  0  0  0  0  0  0
   -4.7606   10.8498  -33.2417 C   0  0  0  0  0  0  0  0  0  0  0  0
   -5.3087   11.8368  -34.1348 N   0  0  2  0  0  0  0  0  0  0  0  0
   -7.2327   10.0984  -29.0346 O   0  0  0  0  0  0  0  0  0  0  0  0
   -6.6910   12.0173  -33.7076 O   0  0  0  0  0  0  0  0  0  0  0  0
   -7.0263    9.0524  -31.9354 Br  0  0  0  0  0  0  0  0  0  0  0  0
   -4.0413   13.2825  -29.3685 H   0  0  0  0  0  0  0  0  0  0  0  0
   -3.5901   12.7256  -31.7335 H   0  0  0  0  0  0  0  0  0  0  0  0
   -5.7629   12.0373  -28.1008 H   0  0  0  0  0  0  0  0  0  0  0  0
   -5.8468   12.1073  -36.1529 H   0  0  0  0  0  0  0  0  0  0  0  0
   -4.4301   11.0389  -35.8740 H   0  0  0  0  0  0  0  0  0  0  0  0
   -6.0868   10.4467  -35.5116 H   0  0  0  0  0  0  0  0  0  0  0  0
   -3.6766   10.8135  -33.4111 H   0  0  0  0  0  0  0  0  0  0  0  0
   -5.1640    9.8740  -33.5405 H   0  0  0  0  0  0  0  0  0  0  0  0
   -7.6574    9.4184  -29.5799 H   0  0  0  0  0  0  0  0  0  0  0  0
   -6.5451   12.3527  -32.8067 H   0  0  0  0  0  0  0  0  0  0  0  0
  1  2  1  0  0  0  0
  1  3  2  0  0  0  0
  2  4  2  0  0  0  0
  3  5  1  0  0  0  0
  4  6  1  0  0  0  0
  4  8  1  0  0  0  0
  5  6  2  0  0  0  0
  5 10  1  0  0  0  0
  6 12  1  0  0  0  0
  7  9  1  0  0  0  0
  8  9  1  0  0  0  0
  9 11  1  0  0  0  0
  1 13  1  0  0  0  0
  2 14  1  0  0  0  0
  3 15  1  0  0  0  0
  7 16  1  0  0  0  0
  7 17  1  0  0  0  0
  7 18  1  0  0  0  0
  8 19  1  0  0  0  0
  8 20  1  0  0  0  0
 10 21  1  0  0  0  0
 11 22  1  0  0  0  0
M  END
> <id>
EN300-1904246

> <smiles>
CN(O)CC=1C=CC=C(O)C1Br

> <IUPAC Name>
2-bromo-3-{[hydroxy(methyl)amino]methyl}phenol

> <CAS>
2229475-57-2

> <URL>
https://www.enaminestore.com/catalog/EN300-1904246

> <ROCS_ShapeQuery>
_x1604L0AP1_x0771L0AP1

> <ROCS_TanimotoCombo>
0.953 

> <ROCS_ShapeTanimoto>
0.456 

> <ROCS_ColorTanimoto>
0.497 

> <ROCS_RefTversky>
0.418 

> <ROCS_RefColorTversky>
0.516 

> <ROCS_RefTverskyCombo>
0.934 

> <ROCS_FitTversky>
1.241 

> <ROCS_FitColorTversky>
0.933 

> <ROCS_FitTverskyCombo>
2.174 

> <ROCS_ColorScore>
-4.883

> <ROCS_Overlap>
700.268

> <ROCS_Rank>
367                 

$$$$
untitled-dbase-145_15
  -OEChem-06052310023D

 27 27  0     0  0  0  0  0  0999 V2000
   -5.0521   11.2344  -31.7748 C   0  0  0  0  0  0  0  0  0  0  0  0
   -4.5242   12.4651  -29.7639 C   0  0  0  0  0  0  0  0  0  0  0  0
   -6.0389   10.5302  -31.0849 C   0  0  0  0  0  0  0  0  0  0  0  0
   -6.2684   10.7935  -29.7345 C   0  0  0  0  0  0  0  0  0  0  0  0
   -4.2947   12.2018  -31.1143 C   0  0  0  0  0  0  0  0  0  0  0  0
   -5.5110   11.7609  -29.0739 C   0  0  0  0  0  0  0  0  0  0  0  0
   -6.8266    9.5144  -31.8069 C   0  0  0  0  0  0  0  0  0  0  0  0
   -6.2107    8.1233  -35.4019 C   0  0  0  0  0  0  0  0  0  0  0  0
   -7.0650   10.3735  -34.7200 C   0  0  0  0  0  0  0  0  0  0  0  0
   -6.1789    8.7646  -32.9712 C   0  0  0  0  0  0  0  0  0  0  0  0
   -6.9346    8.9059  -34.3041 C   0  0  0  0  0  0  0  0  0  0  0  0
   -7.9826    9.2602  -31.4673 O   0  0  0  0  0  0  0  0  0  0  0  0
   -7.2378   10.0982  -29.0708 O   0  0  0  0  0  0  0  0  0  0  0  0
   -3.3470   12.8779  -31.7771 F   0  0  0  0  0  0  0  0  0  0  0  0
   -5.7940   12.1503  -27.2401 Br  0  0  0  0  0  0  0  0  0  0  0  0
   -4.8642   11.0395  -32.8276 H   0  0  0  0  0  0  0  0  0  0  0  0
   -3.9241   13.2223  -29.2662 H   0  0  0  0  0  0  0  0  0  0  0  0
   -5.1943    8.5047  -35.5458 H   0  0  0  0  0  0  0  0  0  0  0  0
   -6.7395    8.1977  -36.3584 H   0  0  0  0  0  0  0  0  0  0  0  0
   -6.1338    7.0632  -35.1382 H   0  0  0  0  0  0  0  0  0  0  0  0
   -6.0848   10.8454  -34.8374 H   0  0  0  0  0  0  0  0  0  0  0  0
   -7.6159   10.9419  -33.9630 H   0  0  0  0  0  0  0  0  0  0  0  0
   -7.6018   10.4708  -35.6700 H   0  0  0  0  0  0  0  0  0  0  0  0
   -5.1513    9.1242  -33.1002 H   0  0  0  0  0  0  0  0  0  0  0  0
   -6.1438    7.7060  -32.6852 H   0  0  0  0  0  0  0  0  0  0  0  0
   -7.9426    8.4852  -34.2016 H   0  0  0  0  0  0  0  0  0  0  0  0
   -7.6664    9.4701  -29.6715 H   0  0  0  0  0  0  0  0  0  0  0  0
  1  3  2  0  0  0  0
  1  5  1  0  0  0  0
  2  5  2  0  0  0  0
  2  6  1  0  0  0  0
  3  4  1  0  0  0  0
  3  7  1  0  0  0  0
  4  6  2  0  0  0  0
  4 13  1  0  0  0  0
  5 14  1  0  0  0  0
  6 15  1  0  0  0  0
  7 10  1  0  0  0  0
  7 12  2  0  0  0  0
  8 11  1  0  0  0  0
  9 11  1  0  0  0  0
 10 11  1  0  0  0  0
  1 16  1  0  0  0  0
  2 17  1  0  0  0  0
  8 18  1  0  0  0  0
  8 19  1  0  0  0  0
  8 20  1  0  0  0  0
  9 21  1  0  0  0  0
  9 22  1  0  0  0  0
  9 23  1  0  0  0  0
 10 24  1  0  0  0  0
 10 25  1  0  0  0  0
 11 26  1  0  0  0  0
 13 27  1  0  0  0  0
M  END
> <id>
EN300-1276629

> <smiles>
CC(C)CC(=O)C=1C=C(F)C=C(Br)C1O

> <MDLNUMBER>
MFCD16742963

> <IUPAC Name>
1-(3-bromo-5-fluoro-2-hydroxyphenyl)-3-methylbutan-1-one

> <CAS>
1249893-61-5

> <URL>
https://www.enaminestore.com/catalog/EN300-1276629

> <ROCS_ShapeQuery>
_x1604L0AP1_x0771L0AP1

> <ROCS_TanimotoCombo>
0.953 

> <ROCS_ShapeTanimoto>
0.624 

> <ROCS_ColorTanimoto>
0.329 

> <ROCS_RefTversky>
0.541 

> <ROCS_RefColorTversky>
0.408 

> <ROCS_RefTverskyCombo>
0.950 

> <ROCS_FitTversky>
1.322 

> <ROCS_FitColorTversky>
0.628 

> <ROCS_FitTverskyCombo>
1.951 

> <ROCS_ColorScore>
-3.887

> <ROCS_Overlap>
909.552

> <ROCS_Rank>
368                 

$$$$
untitled-dbase-299_39
  -OEChem-06052310023D

 24 24  0     1  0  0  0  0  0999 V2000
   -4.5850   12.4742  -29.8308 C   0  0  0  0  0  0  0  0  0  0  0  0
   -4.3120   12.1456  -31.1585 C   0  0  0  0  0  0  0  0  0  0  0  0
   -5.5726   11.7821  -29.1299 C   0  0  0  0  0  0  0  0  0  0  0  0
   -5.0266   11.1249  -31.7855 C   0  0  0  0  0  0  0  0  0  0  0  0
   -6.2873   10.7614  -29.7569 C   0  0  0  0  0  0  0  0  0  0  0  0
   -6.0143   10.4328  -31.0847 C   0  0  0  0  0  0  0  0  0  0  0  0
   -4.6930   10.8086  -33.2234 C   0  0  0  0  0  0  0  0  0  0  0  0
   -5.5113   11.6102  -34.2525 C   0  0  1  0  0  0  0  0  0  0  0  0
   -7.0149   11.4064  -34.1142 C   0  0  0  0  0  0  0  0  0  0  0  0
   -5.2150   13.0349  -34.0751 N   0  0  0  0  0  0  0  0  0  0  0  0
   -7.2456   10.1076  -29.0405 O   0  0  0  0  0  0  0  0  0  0  0  0
   -7.3699   10.1213  -34.3294 F   0  0  0  0  0  0  0  0  0  0  0  0
   -7.4386   11.7490  -32.8756 F   0  0  0  0  0  0  0  0  0  0  0  0
   -7.7006   12.1743  -34.9894 F   0  0  0  0  0  0  0  0  0  0  0  0
   -6.9955    9.0383  -31.9294 Br  0  0  0  0  0  0  0  0  0  0  0  0
   -4.0289   13.2693  -29.3427 H   0  0  0  0  0  0  0  0  0  0  0  0
   -3.5403   12.6917  -31.6952 H   0  0  0  0  0  0  0  0  0  0  0  0
   -5.7800   12.0444  -28.0958 H   0  0  0  0  0  0  0  0  0  0  0  0
   -4.8631    9.7322  -33.3665 H   0  0  0  0  0  0  0  0  0  0  0  0
   -3.6191   10.9600  -33.3979 H   0  0  0  0  0  0  0  0  0  0  0  0
   -5.2145   11.3272  -35.2692 H   0  0  0  0  0  0  0  0  0  0  0  0
   -4.2418   13.1631  -34.2091 H   0  0  0  0  0  0  0  0  0  0  0  0
   -5.7357   13.5404  -34.7497 H   0  0  0  0  0  0  0  0  0  0  0  0
   -7.6651    9.4260  -29.5880 H   0  0  0  0  0  0  0  0  0  0  0  0
  1  2  1  0  0  0  0
  1  3  2  0  0  0  0
  2  4  2  0  0  0  0
  3  5  1  0  0  0  0
  4  6  1  0  0  0  0
  4  7  1  0  0  0  0
  5  6  2  0  0  0  0
  5 11  1  0  0  0  0
  6 15  1  0  0  0  0
  7  8  1  0  0  0  0
  8  9  1  0  0  0  0
  8 10  1  0  0  0  0
  9 12  1  0  0  0  0
  9 13  1  0  0  0  0
  9 14  1  0  0  0  0
  1 16  1  0  0  0  0
  2 17  1  0  0  0  0
  3 18  1  0  0  0  0
  7 19  1  0  0  0  0
  7 20  1  0  0  0  0
  8 21  1  0  0  0  0
 10 22  1  0  0  0  0
 10 23  1  0  0  0  0
 11 24  1  0  0  0  0
M  END
> <id>
EN300-1951054

> <smiles>
NC(CC=1C=CC=C(O)C1Br)C(F)(F)F

> <IUPAC Name>
3-(2-amino-3,3,3-trifluoropropyl)-2-bromophenol

> <CAS>
2229278-71-9

> <URL>
https://www.enaminestore.com/catalog/EN300-1951054

> <ROCS_ShapeQuery>
_x1604L0AP1_x0771L0AP1

> <ROCS_TanimotoCombo>
0.953 

> <ROCS_ShapeTanimoto>
0.501 

> <ROCS_ColorTanimoto>
0.451 

> <ROCS_RefTversky>
0.473 

> <ROCS_RefColorTversky>
0.513 

> <ROCS_RefTverskyCombo>
0.986 

> <ROCS_FitTversky>
1.138 

> <ROCS_FitColorTversky>
0.789 

> <ROCS_FitTverskyCombo>
1.927 

> <ROCS_ColorScore>
-4.883

> <ROCS_Overlap>
794.222

> <ROCS_Rank>
369                 

$$$$
untitled-dbase-1165_380
  -OEChem-06052310023D

 28 28  0     0  0  0  0  0  0999 V2000
   -4.6043   12.4892  -29.8545 C   0  0  0  0  0  0  0  0  0  0  0  0
   -5.0753   11.1429  -31.8044 C   0  0  0  0  0  0  0  0  0  0  0  0
   -4.3539   12.1651  -31.1878 C   0  0  0  0  0  0  0  0  0  0  0  0
   -5.5761   11.7910  -29.1376 C   0  0  0  0  0  0  0  0  0  0  0  0
   -6.2975   10.7688  -29.7542 C   0  0  0  0  0  0  0  0  0  0  0  0
   -6.0471   10.4447  -31.0876 C   0  0  0  0  0  0  0  0  0  0  0  0
   -2.6143   13.9969  -31.1475 C   0  0  0  0  0  0  0  0  0  0  0  0
   -3.2704   15.3535  -31.1304 C   0  0  0  0  0  0  0  0  0  0  0  0
   -4.4179   13.3558  -26.3305 C   0  0  0  0  0  0  0  0  0  0  0  0
   -3.3155   12.9125  -31.9541 C   0  0  0  0  0  0  0  0  0  0  0  0
   -4.7145   11.9980  -26.9306 C   0  0  0  0  0  0  0  0  0  0  0  0
   -1.5665   13.7948  -30.5352 O   0  0  0  0  0  0  0  0  0  0  0  0
   -7.2446   10.0981  -29.0367 O   0  0  0  0  0  0  0  0  0  0  0  0
   -5.8096   12.1196  -27.8362 O   0  0  0  0  0  0  0  0  0  0  0  0
   -7.0072    9.0619  -31.9595 Br  0  0  0  0  0  0  0  0  0  0  0  0
   -4.0434   13.2860  -29.3717 H   0  0  0  0  0  0  0  0  0  0  0  0
   -4.8731   10.8977  -32.8448 H   0  0  0  0  0  0  0  0  0  0  0  0
   -3.9704   15.4143  -30.2926 H   0  0  0  0  0  0  0  0  0  0  0  0
   -2.5081   16.1271  -31.0105 H   0  0  0  0  0  0  0  0  0  0  0  0
   -3.8204   15.5065  -32.0621 H   0  0  0  0  0  0  0  0  0  0  0  0
   -4.1491   14.0759  -27.1083 H   0  0  0  0  0  0  0  0  0  0  0  0
   -5.2875   13.7344  -25.7834 H   0  0  0  0  0  0  0  0  0  0  0  0
   -3.5944   13.2884  -25.6118 H   0  0  0  0  0  0  0  0  0  0  0  0
   -2.5439   12.2210  -32.3277 H   0  0  0  0  0  0  0  0  0  0  0  0
   -3.7628   13.3903  -32.8399 H   0  0  0  0  0  0  0  0  0  0  0  0
   -4.9826   11.2826  -26.1475 H   0  0  0  0  0  0  0  0  0  0  0  0
   -3.8449   11.6216  -27.4776 H   0  0  0  0  0  0  0  0  0  0  0  0
   -7.2889   10.4488  -28.1341 H   0  0  0  0  0  0  0  0  0  0  0  0
  1  3  1  0  0  0  0
  1  4  2  0  0  0  0
  2  3  2  0  0  0  0
  2  6  1  0  0  0  0
  3 10  1  0  0  0  0
  4  5  1  0  0  0  0
  4 14  1  0  0  0  0
  5  6  2  0  0  0  0
  5 13  1  0  0  0  0
  6 15  1  0  0  0  0
  7  8  1  0  0  0  0
  7 10  1  0  0  0  0
  7 12  2  0  0  0  0
  9 11  1  0  0  0  0
 11 14  1  0  0  0  0
  1 16  1  0  0  0  0
  2 17  1  0  0  0  0
  8 18  1  0  0  0  0
  8 19  1  0  0  0  0
  8 20  1  0  0  0  0
  9 21  1  0  0  0  0
  9 22  1  0  0  0  0
  9 23  1  0  0  0  0
 10 24  1  0  0  0  0
 10 25  1  0  0  0  0
 11 26  1  0  0  0  0
 11 27  1  0  0  0  0
 13 28  1  0  0  0  0
M  END
> <id>
EN300-1920211

> <smiles>
CCOC=1C=C(CC(=O)C)C=C(Br)C1O

> <IUPAC Name>
1-(3-bromo-5-ethoxy-4-hydroxyphenyl)propan-2-one

> <CAS>
2229287-61-8

> <URL>
https://www.enaminestore.com/catalog/EN300-1920211

> <ROCS_ShapeQuery>
_x1604L0AP1_x0771L0AP1

> <ROCS_TanimotoCombo>
0.953 

> <ROCS_ShapeTanimoto>
0.502 

> <ROCS_ColorTanimoto>
0.451 

> <ROCS_RefTversky>
0.470 

> <ROCS_RefColorTversky>
0.513 

> <ROCS_RefTverskyCombo>
0.983 

> <ROCS_FitTversky>
1.152 

> <ROCS_FitColorTversky>
0.789 

> <ROCS_FitTverskyCombo>
1.941 

> <ROCS_ColorScore>
-4.881

> <ROCS_Overlap>
789.964

> <ROCS_Rank>
370                 

$$$$
untitled-dbase-863_91
  -OEChem-06052310023D

 21 21  0     0  0  0  0  0  0999 V2000
   -4.5959   12.4812  -29.8253 C   0  0  0  0  0  0  0  0  0  0  0  0
   -5.5752   11.7816  -29.1203 C   0  0  0  0  0  0  0  0  0  0  0  0
   -5.0595   11.1520  -31.7887 C   0  0  0  0  0  0  0  0  0  0  0  0
   -4.3380   12.1665  -31.1595 C   0  0  0  0  0  0  0  0  0  0  0  0
   -6.2966   10.7671  -29.7495 C   0  0  0  0  0  0  0  0  0  0  0  0
   -6.0388   10.4522  -31.0837 C   0  0  0  0  0  0  0  0  0  0  0  0
   -2.7902   10.9648  -33.4565 C   0  0  0  0  0  0  0  0  0  0  0  0
   -3.2907   12.9151  -31.9121 C   0  0  0  0  0  0  0  0  0  0  0  0
   -3.1545   12.4266  -33.3573 C   0  0  0  0  0  0  0  0  0  0  0  0
   -2.0956   10.3606  -32.6466 O   0  0  0  0  0  0  0  0  0  0  0  0
   -7.2457   10.1012  -29.0324 O   0  0  0  0  0  0  0  0  0  0  0  0
   -6.9986    9.0789  -31.9700 Br  0  0  0  0  0  0  0  0  0  0  0  0
   -4.0391   13.2699  -29.3259 H   0  0  0  0  0  0  0  0  0  0  0  0
   -5.7705   12.0324  -28.0810 H   0  0  0  0  0  0  0  0  0  0  0  0
   -4.8520   10.9137  -32.8298 H   0  0  0  0  0  0  0  0  0  0  0  0
   -3.2013   10.4429  -34.3379 H   0  0  0  0  0  0  0  0  0  0  0  0
   -3.5150   13.9951  -31.9068 H   0  0  0  0  0  0  0  0  0  0  0  0
   -2.3176   12.8287  -31.3998 H   0  0  0  0  0  0  0  0  0  0  0  0
   -2.3787   12.9951  -33.8825 H   0  0  0  0  0  0  0  0  0  0  0  0
   -4.0964   12.5678  -33.8997 H   0  0  0  0  0  0  0  0  0  0  0  0
   -7.6695    9.4262  -29.5848 H   0  0  0  0  0  0  0  0  0  0  0  0
  1  2  1  0  0  0  0
  1  4  2  0  0  0  0
  2  5  2  0  0  0  0
  3  4  1  0  0  0  0
  3  6  2  0  0  0  0
  4  8  1  0  0  0  0
  5  6  1  0  0  0  0
  5 11  1  0  0  0  0
  6 12  1  0  0  0  0
  7  9  1  0  0  0  0
  7 10  2  0  0  0  0
  8  9  1  0  0  0  0
  1 13  1  0  0  0  0
  2 14  1  0  0  0  0
  3 15  1  0  0  0  0
  7 16  1  0  0  0  0
  8 17  1  0  0  0  0
  8 18  1  0  0  0  0
  9 19  1  0  0  0  0
  9 20  1  0  0  0  0
 11 21  1  0  0  0  0
M  END
> <id>
EN300-1896934

> <smiles>
OC=1C=CC(CCC=O)=CC1Br

> <MDLNUMBER>
MFCD18391533

> <IUPAC Name>
3-(3-bromo-4-hydroxyphenyl)propanal

> <CAS>
1261515-12-1

> <URL>
https://www.enaminestore.com/catalog/EN300-1896934

> <ROCS_ShapeQuery>
_x1604L0AP1_x0771L0AP1

> <ROCS_TanimotoCombo>
0.952 

> <ROCS_ShapeTanimoto>
0.456 

> <ROCS_ColorTanimoto>
0.497 

> <ROCS_RefTversky>
0.418 

> <ROCS_RefColorTversky>
0.515 

> <ROCS_RefTverskyCombo>
0.933 

> <ROCS_FitTversky>
1.252 

> <ROCS_FitColorTversky>
0.932 

> <ROCS_FitTverskyCombo>
2.184 

> <ROCS_ColorScore>
-4.877

> <ROCS_Overlap>
698.533

> <ROCS_Rank>
371                 

$$$$
untitled-dbase-9_0
  -OEChem-06052310023D

 15 15  0     0  0  0  0  0  0999 V2000
   -4.5821   12.4651  -29.8251 C   0  0  0  0  0  0  0  0  0  0  0  0
   -5.5670   11.7728  -29.1206 C   0  0  0  0  0  0  0  0  0  0  0  0
   -5.0489   11.1335  -31.7862 C   0  0  0  0  0  0  0  0  0  0  0  0
   -4.3230   12.1454  -31.1579 C   0  0  0  0  0  0  0  0  0  0  0  0
   -6.2928   10.7608  -29.7489 C   0  0  0  0  0  0  0  0  0  0  0  0
   -6.0338   10.4411  -31.0817 C   0  0  0  0  0  0  0  0  0  0  0  0
   -3.3187   12.8495  -31.8735 N   0  3  0  0  0  0  0  0  0  0  0  0
   -2.6766   13.7548  -31.2882 O   0  5  0  0  0  0  0  0  0  0  0  0
   -3.1010   12.5473  -33.0718 O   0  0  0  0  0  0  0  0  0  0  0  0
   -7.2477   10.1026  -29.0324 O   0  0  0  0  0  0  0  0  0  0  0  0
   -6.9985    9.0698  -31.9658 Br  0  0  0  0  0  0  0  0  0  0  0  0
   -4.0242   13.2514  -29.3222 H   0  0  0  0  0  0  0  0  0  0  0  0
   -5.7626   12.0265  -28.0821 H   0  0  0  0  0  0  0  0  0  0  0  0
   -4.8424   10.8864  -32.8259 H   0  0  0  0  0  0  0  0  0  0  0  0
   -7.6740    9.4285  -29.5841 H   0  0  0  0  0  0  0  0  0  0  0  0
  1  2  1  0  0  0  0
  1  4  2  0  0  0  0
  2  5  2  0  0  0  0
  3  4  1  0  0  0  0
  3  6  2  0  0  0  0
  4  7  1  0  0  0  0
  5  6  1  0  0  0  0
  5 10  1  0  0  0  0
  6 11  1  0  0  0  0
  7  8  1  0  0  0  0
  7  9  2  0  0  0  0
  1 12  1  0  0  0  0
  2 13  1  0  0  0  0
  3 14  1  0  0  0  0
 10 15  1  0  0  0  0
M  CHG  2   7   1   8  -1
M  END
> <id>
EN300-79098

> <smiles>
OC=1C=CC(=CC1Br)[N+](=O)[O-]

> <MDLNUMBER>
MFCD06656567

> <IUPAC Name>
2-bromo-4-nitrophenol

> <CAS>
5847-59-6

> <Purity>
95

> <URL>
https://www.enaminestore.com/catalog/EN300-79098

> <MP>
113-114

> <ROCS_ShapeQuery>
_x1604L0AP1_x0771L0AP1

> <ROCS_TanimotoCombo>
0.952 

> <ROCS_ShapeTanimoto>
0.502 

> <ROCS_ColorTanimoto>
0.450 

> <ROCS_RefTversky>
0.442 

> <ROCS_RefColorTversky>
0.513 

> <ROCS_RefTverskyCombo>
0.955 

> <ROCS_FitTversky>
1.373 

> <ROCS_FitColorTversky>
0.787 

> <ROCS_FitTverskyCombo>
2.160 

> <ROCS_ColorScore>
-4.878

> <ROCS_Overlap>
738.852

> <ROCS_Rank>
372                 

$$$$
untitled-dbase-364_23
  -OEChem-06052310023D

 19 19  0     0  0  0  0  0  0999 V2000
   -4.6080   12.4945  -29.8721 C   0  0  0  0  0  0  0  0  0  0  0  0
   -4.3655   12.1784  -31.2088 C   0  0  0  0  0  0  0  0  0  0  0  0
   -5.5728   11.7893  -29.1526 C   0  0  0  0  0  0  0  0  0  0  0  0
   -5.0878   11.1572  -31.8261 C   0  0  0  0  0  0  0  0  0  0  0  0
   -6.2951   10.7682  -29.7699 C   0  0  0  0  0  0  0  0  0  0  0  0
   -6.0526   10.4521  -31.1067 C   0  0  0  0  0  0  0  0  0  0  0  0
   -4.7859   10.8762  -33.2254 C   0  0  0  0  0  0  0  0  0  0  0  0
   -5.6711   10.9372  -34.2399 C   0  0  0  0  0  0  0  0  0  0  0  0
   -5.2224   10.6145  -35.6093 C   0  0  0  0  0  0  0  0  0  0  0  0
   -5.2717    9.4744  -36.0551 O   0  0  0  0  0  0  0  0  0  0  0  0
   -7.2294   10.1021  -29.0334 O   0  0  0  0  0  0  0  0  0  0  0  0
   -7.0548    9.0503  -31.9239 Br  0  0  0  0  0  0  0  0  0  0  0  0
   -4.0456   13.2897  -29.3908 H   0  0  0  0  0  0  0  0  0  0  0  0
   -3.6087   12.7386  -31.7532 H   0  0  0  0  0  0  0  0  0  0  0  0
   -5.7555   12.0409  -28.1113 H   0  0  0  0  0  0  0  0  0  0  0  0
   -3.7564   10.5760  -33.4446 H   0  0  0  0  0  0  0  0  0  0  0  0
   -6.7123   11.2041  -34.1065 H   0  0  0  0  0  0  0  0  0  0  0  0
   -4.8398   11.4561  -36.2105 H   0  0  0  0  0  0  0  0  0  0  0  0
   -7.6582    9.4214  -29.5747 H   0  0  0  0  0  0  0  0  0  0  0  0
  1  2  2  0  0  0  0
  1  3  1  0  0  0  0
  2  4  1  0  0  0  0
  3  5  2  0  0  0  0
  4  6  2  0  0  0  0
  4  7  1  0  0  0  0
  5  6  1  0  0  0  0
  5 11  1  0  0  0  0
  6 12  1  0  0  0  0
  7  8  2  3  0  0  0
  8  9  1  0  0  0  0
  9 10  2  0  0  0  0
  1 13  1  0  0  0  0
  2 14  1  0  0  0  0
  3 15  1  0  0  0  0
  7 16  1  0  0  0  0
  8 17  1  0  0  0  0
  9 18  1  0  0  0  0
 11 19  1  0  0  0  0
M  END
> <id>
EN300-1904561

> <smiles>
OC=1C=CC=C(C=CC=O)C1Br

> <IUPAC Name>
3-(2-bromo-3-hydroxyphenyl)prop-2-enal

> <CAS>
2229652-46-2

> <URL>
https://www.enaminestore.com/catalog/EN300-1904561

> <ROCS_ShapeQuery>
_x1604L0AP1_x0771L0AP1

> <ROCS_TanimotoCombo>
0.952 

> <ROCS_ShapeTanimoto>
0.455 

> <ROCS_ColorTanimoto>
0.497 

> <ROCS_RefTversky>
0.418 

> <ROCS_RefColorTversky>
0.516 

> <ROCS_RefTverskyCombo>
0.934 

> <ROCS_FitTversky>
1.242 

> <ROCS_FitColorTversky>
0.932 

> <ROCS_FitTverskyCombo>
2.174 

> <ROCS_ColorScore>
-4.881

> <ROCS_Overlap>
699.683

> <ROCS_Rank>
373                 

$$$$
untitled-dbase-108_0
  -OEChem-06052310023D

 16 16  0     0  0  0  0  0  0999 V2000
   -4.5743   12.4782  -29.8623 C   0  0  0  0  0  0  0  0  0  0  0  0
   -5.0647   11.1285  -31.8051 C   0  0  0  0  0  0  0  0  0  0  0  0
   -4.3316   12.1464  -31.1951 C   0  0  0  0  0  0  0  0  0  0  0  0
   -6.2830   10.7739  -29.7491 C   0  0  0  0  0  0  0  0  0  0  0  0
   -5.5500   11.7919  -29.1392 C   0  0  0  0  0  0  0  0  0  0  0  0
   -6.0404   10.4422  -31.0821 C   0  0  0  0  0  0  0  0  0  0  0  0
   -3.2881   12.8801  -31.9681 C   0  0  0  0  0  0  0  0  0  0  0  0
   -7.2391   10.1029  -29.0420 O   0  0  0  0  0  0  0  0  0  0  0  0
   -5.8483   12.2747  -27.3299 Br  0  0  0  0  0  0  0  0  0  0  0  0
   -7.0139    9.0647  -31.9483 Br  0  0  0  0  0  0  0  0  0  0  0  0
   -3.9968   13.2727  -29.3956 H   0  0  0  0  0  0  0  0  0  0  0  0
   -4.8685   10.8770  -32.8451 H   0  0  0  0  0  0  0  0  0  0  0  0
   -2.3166   12.3812  -31.8668 H   0  0  0  0  0  0  0  0  0  0  0  0
   -3.5440   12.9305  -33.0344 H   0  0  0  0  0  0  0  0  0  0  0  0
   -3.1862   13.9151  -31.6167 H   0  0  0  0  0  0  0  0  0  0  0  0
   -7.2872   10.4486  -28.1380 H   0  0  0  0  0  0  0  0  0  0  0  0
  1  3  2  0  0  0  0
  1  5  1  0  0  0  0
  2  3  1  0  0  0  0
  2  6  2  0  0  0  0
  3  7  1  0  0  0  0
  4  5  2  0  0  0  0
  4  6  1  0  0  0  0
  4  8  1  0  0  0  0
  5  9  1  0  0  0  0
  6 10  1  0  0  0  0
  1 11  1  0  0  0  0
  2 12  1  0  0  0  0
  7 13  1  0  0  0  0
  7 14  1  0  0  0  0
  7 15  1  0  0  0  0
  8 16  1  0  0  0  0
M  END
> <id>
EN300-18841

> <smiles>
CC=1C=C(Br)C(O)=C(Br)C1

> <MDLNUMBER>
MFCD00002154

> <IUPAC Name>
2,6-dibromo-4-methylphenol

> <CAS>
2432-14-6

> <URL>
https://www.enaminestore.com/catalog/EN300-18841

> <MP>
16-17

> <ROCS_ShapeQuery>
_x1604L0AP1_x0771L0AP1

> <ROCS_TanimotoCombo>
0.952 

> <ROCS_ShapeTanimoto>
0.455 

> <ROCS_ColorTanimoto>
0.497 

> <ROCS_RefTversky>
0.401 

> <ROCS_RefColorTversky>
0.516 

> <ROCS_RefTverskyCombo>
0.917 

> <ROCS_FitTversky>
1.418 

> <ROCS_FitColorTversky>
0.933 

> <ROCS_FitTverskyCombo>
2.351 

> <ROCS_ColorScore>
-4.882

> <ROCS_Overlap>
669.164

> <ROCS_Rank>
374                 

$$$$
untitled-dbase-1569_17
  -OEChem-06052310023D

 21 21  0     1  0  0  0  0  0999 V2000
   -4.6161   12.5005  -29.8414 C   0  0  0  0  0  0  0  0  0  0  0  0
   -5.5866   11.7944  -29.1306 C   0  0  0  0  0  0  0  0  0  0  0  0
   -5.0753   11.1610  -31.7989 C   0  0  0  0  0  0  0  0  0  0  0  0
   -4.3605   12.1838  -31.1756 C   0  0  0  0  0  0  0  0  0  0  0  0
   -6.3013   10.7716  -29.7539 C   0  0  0  0  0  0  0  0  0  0  0  0
   -6.0457   10.4549  -31.0881 C   0  0  0  0  0  0  0  0  0  0  0  0
   -2.6530   12.1076  -33.0386 C   0  0  0  0  0  0  0  0  0  0  0  0
   -3.3226   12.9393  -31.9344 C   0  0  2  0  0  0  0  0  0  0  0  0
   -2.3063   13.5004  -31.0602 N   0  0  0  0  0  0  0  0  0  0  0  0
   -7.2418   10.0996  -29.0312 O   0  0  0  0  0  0  0  0  0  0  0  0
   -6.9965    9.0703  -31.9665 Br  0  0  0  0  0  0  0  0  0  0  0  0
   -4.0645   13.2956  -29.3466 H   0  0  0  0  0  0  0  0  0  0  0  0
   -5.7802   12.0468  -28.0914 H   0  0  0  0  0  0  0  0  0  0  0  0
   -4.8695   10.9213  -32.8400 H   0  0  0  0  0  0  0  0  0  0  0  0
   -2.1804   11.2138  -32.6168 H   0  0  0  0  0  0  0  0  0  0  0  0
   -3.3821   11.7836  -33.7898 H   0  0  0  0  0  0  0  0  0  0  0  0
   -1.8818   12.6810  -33.5652 H   0  0  0  0  0  0  0  0  0  0  0  0
   -3.7746   13.8174  -32.4287 H   0  0  0  0  0  0  0  0  0  0  0  0
   -1.6502   14.0008  -31.6158 H   0  0  0  0  0  0  0  0  0  0  0  0
   -2.7481   14.1123  -30.4121 H   0  0  0  0  0  0  0  0  0  0  0  0
   -7.6617    9.4191  -29.5799 H   0  0  0  0  0  0  0  0  0  0  0  0
  1  2  1  0  0  0  0
  1  4  2  0  0  0  0
  2  5  2  0  0  0  0
  3  4  1  0  0  0  0
  3  6  2  0  0  0  0
  4  8  1  0  0  0  0
  5  6  1  0  0  0  0
  5 10  1  0  0  0  0
  6 11  1  0  0  0  0
  7  8  1  6  0  0  0
  8  9  1  0  0  0  0
  1 12  1  0  0  0  0
  2 13  1  0  0  0  0
  3 14  1  0  0  0  0
  7 15  1  0  0  0  0
  7 16  1  0  0  0  0
  7 17  1  0  0  0  0
  8 18  1  0  0  0  0
  9 19  1  0  0  0  0
  9 20  1  0  0  0  0
 10 21  1  0  0  0  0
M  END
> <id>
EN300-1915697

> <smiles>
C[C@H](N)C=1C=CC(O)=C(Br)C1

> <MDLNUMBER>
MFCD08057397

> <IUPAC Name>
4-[(1S)-1-aminoethyl]-2-bromophenol

> <CAS>
1213363-90-6

> <URL>
https://www.enaminestore.com/catalog/EN300-1915697

> <ROCS_ShapeQuery>
_x1604L0AP1_x0771L0AP1

> <ROCS_TanimotoCombo>
0.952 

> <ROCS_ShapeTanimoto>
0.501 

> <ROCS_ColorTanimoto>
0.451 

> <ROCS_RefTversky>
0.438 

> <ROCS_RefColorTversky>
0.513 

> <ROCS_RefTverskyCombo>
0.950 

> <ROCS_FitTversky>
1.407 

> <ROCS_FitColorTversky>
0.789 

> <ROCS_FitTverskyCombo>
2.196 

> <ROCS_ColorScore>
-4.877

> <ROCS_Overlap>
731.766

> <ROCS_Rank>
375                 

$$$$
untitled-dbase-218_17
  -OEChem-06052310023D

 21 21  0     1  0  0  0  0  0999 V2000
   -4.6161   12.5005  -29.8414 C   0  0  0  0  0  0  0  0  0  0  0  0
   -5.5866   11.7944  -29.1306 C   0  0  0  0  0  0  0  0  0  0  0  0
   -5.0753   11.1610  -31.7989 C   0  0  0  0  0  0  0  0  0  0  0  0
   -4.3605   12.1838  -31.1756 C   0  0  0  0  0  0  0  0  0  0  0  0
   -6.3013   10.7716  -29.7539 C   0  0  0  0  0  0  0  0  0  0  0  0
   -6.0457   10.4549  -31.0881 C   0  0  0  0  0  0  0  0  0  0  0  0
   -2.6530   12.1076  -33.0386 C   0  0  0  0  0  0  0  0  0  0  0  0
   -3.3226   12.9393  -31.9344 C   0  0  2  0  0  0  0  0  0  0  0  0
   -2.3063   13.5004  -31.0602 N   0  0  0  0  0  0  0  0  0  0  0  0
   -7.2418   10.0996  -29.0312 O   0  0  0  0  0  0  0  0  0  0  0  0
   -6.9965    9.0703  -31.9665 Br  0  0  0  0  0  0  0  0  0  0  0  0
   -4.0645   13.2956  -29.3466 H   0  0  0  0  0  0  0  0  0  0  0  0
   -5.7802   12.0468  -28.0914 H   0  0  0  0  0  0  0  0  0  0  0  0
   -4.8695   10.9213  -32.8400 H   0  0  0  0  0  0  0  0  0  0  0  0
   -2.1804   11.2138  -32.6168 H   0  0  0  0  0  0  0  0  0  0  0  0
   -3.3821   11.7836  -33.7898 H   0  0  0  0  0  0  0  0  0  0  0  0
   -1.8818   12.6810  -33.5652 H   0  0  0  0  0  0  0  0  0  0  0  0
   -3.7746   13.8174  -32.4287 H   0  0  0  0  0  0  0  0  0  0  0  0
   -1.6502   14.0008  -31.6158 H   0  0  0  0  0  0  0  0  0  0  0  0
   -2.7481   14.1123  -30.4121 H   0  0  0  0  0  0  0  0  0  0  0  0
   -7.6617    9.4191  -29.5799 H   0  0  0  0  0  0  0  0  0  0  0  0
  1  2  1  0  0  0  0
  1  4  2  0  0  0  0
  2  5  2  0  0  0  0
  3  4  1  0  0  0  0
  3  6  2  0  0  0  0
  4  8  1  0  0  0  0
  5  6  1  0  0  0  0
  5 10  1  0  0  0  0
  6 11  1  0  0  0  0
  7  8  1  0  0  0  0
  8  9  1  0  0  0  0
  1 12  1  0  0  0  0
  2 13  1  0  0  0  0
  3 14  1  0  0  0  0
  7 15  1  0  0  0  0
  7 16  1  0  0  0  0
  7 17  1  0  0  0  0
  8 18  1  0  0  0  0
  9 19  1  0  0  0  0
  9 20  1  0  0  0  0
 10 21  1  0  0  0  0
M  END
> <id>
EN300-1895194

> <smiles>
CC(N)C=1C=CC(O)=C(Br)C1

> <MDLNUMBER>
MFCD17247765

> <IUPAC Name>
4-(1-aminoethyl)-2-bromophenol

> <CAS>
1337139-52-2

> <URL>
https://www.enaminestore.com/catalog/EN300-1895194

> <ROCS_ShapeQuery>
_x1604L0AP1_x0771L0AP1

> <ROCS_TanimotoCombo>
0.952 

> <ROCS_ShapeTanimoto>
0.501 

> <ROCS_ColorTanimoto>
0.451 

> <ROCS_RefTversky>
0.438 

> <ROCS_RefColorTversky>
0.513 

> <ROCS_RefTverskyCombo>
0.950 

> <ROCS_FitTversky>
1.407 

> <ROCS_FitColorTversky>
0.789 

> <ROCS_FitTverskyCombo>
2.196 

> <ROCS_ColorScore>
-4.877

> <ROCS_Overlap>
731.766

> <ROCS_Rank>
376                 

$$$$
untitled-dbase-1148_178
  -OEChem-06052310023D

 24 24  0     0  0  0  0  0  0999 V2000
   -2.6616   13.9126  -31.1081 C   0  0  0  0  0  0  0  0  0  0  0  0
   -4.5881   12.4740  -29.8547 C   0  0  0  0  0  0  0  0  0  0  0  0
   -5.0681   11.1324  -31.8057 C   0  0  0  0  0  0  0  0  0  0  0  0
   -4.3402   12.1496  -31.1884 C   0  0  0  0  0  0  0  0  0  0  0  0
   -5.5640   11.7812  -29.1382 C   0  0  0  0  0  0  0  0  0  0  0  0
   -6.2920   10.7640  -29.7555 C   0  0  0  0  0  0  0  0  0  0  0  0
   -6.0441   10.4396  -31.0892 C   0  0  0  0  0  0  0  0  0  0  0  0
   -6.1023   14.4682  -27.5599 C   0  0  0  0  0  0  0  0  0  0  0  0
   -3.2974   12.8912  -31.9543 C   0  0  0  0  0  0  0  0  0  0  0  0
   -6.7772   13.1134  -27.5860 C   0  0  0  0  0  0  0  0  0  0  0  0
   -2.1604   14.7194  -30.4415 N   0  0  0  0  0  0  0  0  0  0  0  0
   -7.2431   10.0986  -29.0383 O   0  0  0  0  0  0  0  0  0  0  0  0
   -5.7951   12.1100  -27.8364 O   0  0  0  0  0  0  0  0  0  0  0  0
   -7.0130    9.0636  -31.9621 Br  0  0  0  0  0  0  0  0  0  0  0  0
   -4.0222   13.2668  -29.3713 H   0  0  0  0  0  0  0  0  0  0  0  0
   -4.8678   10.8869  -32.8464 H   0  0  0  0  0  0  0  0  0  0  0  0
   -5.3480   14.5132  -26.7694 H   0  0  0  0  0  0  0  0  0  0  0  0
   -5.6206   14.6782  -28.5205 H   0  0  0  0  0  0  0  0  0  0  0  0
   -6.8374   15.2623  -27.3922 H   0  0  0  0  0  0  0  0  0  0  0  0
   -3.7368   13.3692  -32.8404 H   0  0  0  0  0  0  0  0  0  0  0  0
   -2.5326   12.1999  -32.3339 H   0  0  0  0  0  0  0  0  0  0  0  0
   -7.5303   13.0751  -28.3787 H   0  0  0  0  0  0  0  0  0  0  0  0
   -7.2572   12.9049  -26.6252 H   0  0  0  0  0  0  0  0  0  0  0  0
   -7.6655    9.4236  -29.5912 H   0  0  0  0  0  0  0  0  0  0  0  0
  1  9  1  0  0  0  0
  1 11  3  0  0  0  0
  2  4  1  0  0  0  0
  2  5  2  0  0  0  0
  3  4  2  0  0  0  0
  3  7  1  0  0  0  0
  4  9  1  0  0  0  0
  5  6  1  0  0  0  0
  5 13  1  0  0  0  0
  6  7  2  0  0  0  0
  6 12  1  0  0  0  0
  7 14  1  0  0  0  0
  8 10  1  0  0  0  0
 10 13  1  0  0  0  0
  2 15  1  0  0  0  0
  3 16  1  0  0  0  0
  8 17  1  0  0  0  0
  8 18  1  0  0  0  0
  8 19  1  0  0  0  0
  9 20  1  0  0  0  0
  9 21  1  0  0  0  0
 10 22  1  0  0  0  0
 10 23  1  0  0  0  0
 12 24  1  0  0  0  0
M  END
> <id>
EN300-1920232

> <smiles>
CCOC=1C=C(CC#N)C=C(Br)C1O

> <IUPAC Name>
2-(3-bromo-5-ethoxy-4-hydroxyphenyl)acetonitrile

> <CAS>
1499731-31-5

> <URL>
https://www.enaminestore.com/catalog/EN300-1920232

> <ROCS_ShapeQuery>
_x1604L0AP1_x0771L0AP1

> <ROCS_TanimotoCombo>
0.952 

> <ROCS_ShapeTanimoto>
0.501 

> <ROCS_ColorTanimoto>
0.451 

> <ROCS_RefTversky>
0.462 

> <ROCS_RefColorTversky>
0.513 

> <ROCS_RefTverskyCombo>
0.975 

> <ROCS_FitTversky>
1.201 

> <ROCS_FitColorTversky>
0.789 

> <ROCS_FitTverskyCombo>
1.990 

> <ROCS_ColorScore>
-4.881

> <ROCS_Overlap>
775.377

> <ROCS_Rank>
377                 

$$$$
untitled-dbase-239_12
  -OEChem-06052310023D

 27 27  0     1  0  0  0  0  0999 V2000
   -4.2951   12.2861  -31.0658 C   0  0  0  0  0  0  0  0  0  0  0  0
   -5.1259   11.4486  -31.8102 C   0  0  0  0  0  0  0  0  0  0  0  0
   -4.4450   12.3658  -29.6813 C   0  0  0  0  0  0  0  0  0  0  0  0
   -6.1066   10.6909  -31.1700 C   0  0  0  0  0  0  0  0  0  0  0  0
   -6.2565   10.7706  -29.7855 C   0  0  0  0  0  0  0  0  0  0  0  0
   -5.4257   11.6081  -29.0411 C   0  0  0  0  0  0  0  0  0  0  0  0
   -7.5938    8.7000  -34.9763 C   0  0  0  0  0  0  0  0  0  0  0  0
   -6.9945    9.7929  -31.9941 C   0  0  0  0  0  0  0  0  0  0  0  0
   -6.2267    8.7841  -32.8615 C   0  0  0  0  0  0  0  0  0  0  0  0
   -7.1163    7.9101  -33.7611 C   0  0  2  0  0  0  0  0  0  0  0  0
   -6.4188    6.7227  -34.1951 N   0  0  0  0  0  0  0  0  0  0  0  0
   -7.2216   10.0244  -29.1739 O   0  0  0  0  0  0  0  0  0  0  0  0
   -5.5970   11.7437  -27.1580 Br  0  0  0  0  0  0  0  0  0  0  0  0
   -3.5312   12.8757  -31.5641 H   0  0  0  0  0  0  0  0  0  0  0  0
   -5.0006   11.3907  -32.8881 H   0  0  0  0  0  0  0  0  0  0  0  0
   -3.7880   13.0237  -29.1179 H   0  0  0  0  0  0  0  0  0  0  0  0
   -6.7486    9.0642  -35.5710 H   0  0  0  0  0  0  0  0  0  0  0  0
   -8.2267    8.0821  -35.6216 H   0  0  0  0  0  0  0  0  0  0  0  0
   -8.1780    9.5735  -34.6664 H   0  0  0  0  0  0  0  0  0  0  0  0
   -7.7083    9.2688  -31.3468 H   0  0  0  0  0  0  0  0  0  0  0  0
   -7.6070   10.4281  -32.6477 H   0  0  0  0  0  0  0  0  0  0  0  0
   -5.6184    8.1368  -32.2170 H   0  0  0  0  0  0  0  0  0  0  0  0
   -5.5238    9.3478  -33.4893 H   0  0  0  0  0  0  0  0  0  0  0  0
   -7.9961    7.5707  -33.2040 H   0  0  0  0  0  0  0  0  0  0  0  0
   -6.1527    6.1889  -33.3953 H   0  0  0  0  0  0  0  0  0  0  0  0
   -7.0239    6.1826  -34.7763 H   0  0  0  0  0  0  0  0  0  0  0  0
   -7.2076   10.1816  -28.2176 H   0  0  0  0  0  0  0  0  0  0  0  0
  1  2  1  0  0  0  0
  1  3  2  0  0  0  0
  2  4  2  0  0  0  0
  3  6  1  0  0  0  0
  4  5  1  0  0  0  0
  4  8  1  0  0  0  0
  5  6  2  0  0  0  0
  5 12  1  0  0  0  0
  6 13  1  0  0  0  0
  7 10  1  1  0  0  0
  8  9  1  0  0  0  0
  9 10  1  0  0  0  0
 10 11  1  0  0  0  0
  1 14  1  0  0  0  0
  2 15  1  0  0  0  0
  3 16  1  0  0  0  0
  7 17  1  0  0  0  0
  7 18  1  0  0  0  0
  7 19  1  0  0  0  0
  8 20  1  0  0  0  0
  8 21  1  0  0  0  0
  9 22  1  0  0  0  0
  9 23  1  0  0  0  0
 10 24  1  0  0  0  0
 11 25  1  0  0  0  0
 11 26  1  0  0  0  0
 12 27  1  0  0  0  0
M  END
> <id>
EN300-1911033

> <smiles>
C[C@@H](N)CCC=1C=CC=C(Br)C1O

> <MDLNUMBER>
MFCD21352636

> <IUPAC Name>
2-[(3R)-3-aminobutyl]-6-bromophenol

> <CAS>
1344457-02-8

> <URL>
https://www.enaminestore.com/catalog/EN300-1911033

> <ROCS_ShapeQuery>
_x1604L0AP1_x0771L0AP1

> <ROCS_TanimotoCombo>
0.952 

> <ROCS_ShapeTanimoto>
0.527 

> <ROCS_ColorTanimoto>
0.425 

> <ROCS_RefTversky>
0.468 

> <ROCS_RefColorTversky>
0.492 

> <ROCS_RefTverskyCombo>
0.960 

> <ROCS_FitTversky>
1.316 

> <ROCS_FitColorTversky>
0.757 

> <ROCS_FitTverskyCombo>
2.074 

> <ROCS_ColorScore>
-4.685

> <ROCS_Overlap>
783.146

> <ROCS_Rank>
378                 

$$$$
untitled-dbase-1580_10
  -OEChem-06052310023D

 25 26  0     1  0  0  0  0  0999 V2000
   -4.9789   11.7043  -31.4650 C   0  0  0  0  0  0  0  0  0  0  0  0
   -4.2977   12.3109  -29.2278 C   0  0  0  0  0  0  0  0  0  0  0  0
   -6.0202   10.9387  -30.9404 C   0  0  0  0  0  0  0  0  0  0  0  0
   -6.2003   10.8593  -29.5595 C   0  0  0  0  0  0  0  0  0  0  0  0
   -4.1176   12.3903  -30.6087 C   0  0  0  0  0  0  0  0  0  0  0  0
   -5.3391   11.5454  -28.7032 C   0  0  0  0  0  0  0  0  0  0  0  0
   -6.1033   10.0080  -34.1663 C   0  0  0  0  0  0  0  0  0  0  0  0
   -6.3019    9.2206  -32.8745 C   0  0  0  0  0  0  0  0  0  0  0  0
   -6.8244   11.3286  -33.9510 C   0  0  0  0  0  0  0  0  0  0  0  0
   -6.9465   10.1996  -31.8913 C   0  0  2  0  0  0  0  0  0  0  0  0
   -7.6794   11.1023  -32.7906 N   0  0  0  0  0  0  0  0  0  0  0  0
   -7.2237   10.1061  -29.0616 O   0  0  0  0  0  0  0  0  0  0  0  0
   -2.8326   13.3346  -31.2566 Cl  0  0  0  0  0  0  0  0  0  0  0  0
   -5.5516   11.4619  -26.8210 Br  0  0  0  0  0  0  0  0  0  0  0  0
   -4.8420   11.7640  -32.5427 H   0  0  0  0  0  0  0  0  0  0  0  0
   -3.6236   12.8470  -28.5634 H   0  0  0  0  0  0  0  0  0  0  0  0
   -5.0273   10.1844  -34.3332 H   0  0  0  0  0  0  0  0  0  0  0  0
   -6.4836    9.4637  -35.0440 H   0  0  0  0  0  0  0  0  0  0  0  0
   -6.9864    8.3809  -33.0633 H   0  0  0  0  0  0  0  0  0  0  0  0
   -5.3486    8.7970  -32.5299 H   0  0  0  0  0  0  0  0  0  0  0  0
   -6.1208   12.1607  -33.7844 H   0  0  0  0  0  0  0  0  0  0  0  0
   -7.4394   11.5908  -34.8298 H   0  0  0  0  0  0  0  0  0  0  0  0
   -7.6937    9.6603  -31.2723 H   0  0  0  0  0  0  0  0  0  0  0  0
   -7.8160   12.0021  -32.3225 H   0  0  0  0  0  0  0  0  0  0  0  0
   -7.2249   10.1450  -28.0932 H   0  0  0  0  0  0  0  0  0  0  0  0
  1  3  2  0  0  0  0
  1  5  1  0  0  0  0
  2  5  2  0  0  0  0
  2  6  1  0  0  0  0
  3  4  1  0  0  0  0
  3 10  1  0  0  0  0
  4  6  2  0  0  0  0
  4 12  1  0  0  0  0
  5 13  1  0  0  0  0
  6 14  1  0  0  0  0
  7  8  1  0  0  0  0
  7  9  1  0  0  0  0
  8 10  1  0  0  0  0
  9 11  1  0  0  0  0
 10 11  1  0  0  0  0
  1 15  1  0  0  0  0
  2 16  1  0  0  0  0
  7 17  1  0  0  0  0
  7 18  1  0  0  0  0
  8 19  1  0  0  0  0
  8 20  1  0  0  0  0
  9 21  1  0  0  0  0
  9 22  1  0  0  0  0
 10 23  1  0  0  0  0
 11 24  1  0  0  0  0
 12 25  1  0  0  0  0
M  END
> <id>
EN300-1911780

> <smiles>
OC=1C(Br)=CC(Cl)=CC1C2CCCN2

> <MDLNUMBER>
MFCD24521287

> <IUPAC Name>
2-bromo-4-chloro-6-(pyrrolidin-2-yl)phenol

> <CAS>
1337266-87-1

> <URL>
https://www.enaminestore.com/catalog/EN300-1911780

> <ROCS_ShapeQuery>
_x1604L0AP1_x0771L0AP1

> <ROCS_TanimotoCombo>
0.952 

> <ROCS_ShapeTanimoto>
0.583 

> <ROCS_ColorTanimoto>
0.369 

> <ROCS_RefTversky>
0.511 

> <ROCS_RefColorTversky>
0.471 

> <ROCS_RefTverskyCombo>
0.982 

> <ROCS_FitTversky>
1.314 

> <ROCS_FitColorTversky>
0.631 

> <ROCS_FitTverskyCombo>
1.946 

> <ROCS_ColorScore>
-4.506

> <ROCS_Overlap>
857.935

> <ROCS_Rank>
379                 

$$$$
untitled-dbase-1280_19
  -OEChem-06052310023D

 21 21  0     0  0  0  0  0  0999 V2000
   -1.3297    9.9993  -32.0586 C   0  0  0  0  0  0  0  0  0  0  0  0
   -1.9155   10.9515  -32.4961 C   0  0  0  0  0  0  0  0  0  0  0  0
   -4.6133   12.4983  -29.8413 C   0  0  0  0  0  0  0  0  0  0  0  0
   -5.5839   11.7927  -29.1303 C   0  0  0  0  0  0  0  0  0  0  0  0
   -5.0751   11.1606  -31.7995 C   0  0  0  0  0  0  0  0  0  0  0  0
   -4.3589   12.1823  -31.1760 C   0  0  0  0  0  0  0  0  0  0  0  0
   -6.3001   10.7710  -29.7539 C   0  0  0  0  0  0  0  0  0  0  0  0
   -6.0457   10.4549  -31.0885 C   0  0  0  0  0  0  0  0  0  0  0  0
   -2.6310   12.1175  -33.0364 C   0  0  0  0  0  0  0  0  0  0  0  0
   -3.3208   12.9373  -31.9350 C   0  0  0  0  0  0  0  0  0  0  0  0
   -7.2407   10.0995  -29.0309 O   0  0  0  0  0  0  0  0  0  0  0  0
   -6.9986    9.0719  -31.9671 Br  0  0  0  0  0  0  0  0  0  0  0  0
   -0.8099    9.1550  -31.6699 H   0  0  0  0  0  0  0  0  0  0  0  0
   -4.0605   13.2926  -29.3464 H   0  0  0  0  0  0  0  0  0  0  0  0
   -5.7766   12.0446  -28.0908 H   0  0  0  0  0  0  0  0  0  0  0  0
   -4.8703   10.9214  -32.8409 H   0  0  0  0  0  0  0  0  0  0  0  0
   -1.9350   12.7489  -33.6012 H   0  0  0  0  0  0  0  0  0  0  0  0
   -3.3883   11.7667  -33.7479 H   0  0  0  0  0  0  0  0  0  0  0  0
   -2.5450   13.2879  -31.2352 H   0  0  0  0  0  0  0  0  0  0  0  0
   -3.7487   13.8528  -32.3750 H   0  0  0  0  0  0  0  0  0  0  0  0
   -7.6616    9.4197  -29.5798 H   0  0  0  0  0  0  0  0  0  0  0  0
  1  2  3  0  0  0  0
  2  9  1  0  0  0  0
  3  4  1  0  0  0  0
  3  6  2  0  0  0  0
  4  7  2  0  0  0  0
  5  6  1  0  0  0  0
  5  8  2  0  0  0  0
  6 10  1  0  0  0  0
  7  8  1  0  0  0  0
  7 11  1  0  0  0  0
  8 12  1  0  0  0  0
  9 10  1  0  0  0  0
  1 13  1  0  0  0  0
  3 14  1  0  0  0  0
  4 15  1  0  0  0  0
  5 16  1  0  0  0  0
  9 17  1  0  0  0  0
  9 18  1  0  0  0  0
 10 19  1  0  0  0  0
 10 20  1  0  0  0  0
 11 21  1  0  0  0  0
M  END
> <id>
EN300-1906680

> <smiles>
OC=1C=CC(CCC#C)=CC1Br

> <IUPAC Name>
2-bromo-4-(but-3-yn-1-yl)phenol

> <CAS>
2228635-01-4

> <URL>
https://www.enaminestore.com/catalog/EN300-1906680

> <ROCS_ShapeQuery>
_x1604L0AP1_x0771L0AP1

> <ROCS_TanimotoCombo>
0.952 

> <ROCS_ShapeTanimoto>
0.455 

> <ROCS_ColorTanimoto>
0.496 

> <ROCS_RefTversky>
0.417 

> <ROCS_RefColorTversky>
0.515 

> <ROCS_RefTverskyCombo>
0.932 

> <ROCS_FitTversky>
1.253 

> <ROCS_FitColorTversky>
0.932 

> <ROCS_FitTverskyCombo>
2.185 

> <ROCS_ColorScore>
-4.877

> <ROCS_Overlap>
697.597

> <ROCS_Rank>
380                 

$$$$
untitled-dbase-117_0
  -OEChem-06052310023D

 15 15  0     0  0  0  0  0  0999 V2000
   -4.5760   12.4743  -29.8689 C   0  0  0  0  0  0  0  0  0  0  0  0
   -5.0652   11.1253  -31.8126 C   0  0  0  0  0  0  0  0  0  0  0  0
   -5.5526   11.7882  -29.1469 C   0  0  0  0  0  0  0  0  0  0  0  0
   -6.2855   10.7707  -29.7577 C   0  0  0  0  0  0  0  0  0  0  0  0
   -4.3324   12.1428  -31.2017 C   0  0  0  0  0  0  0  0  0  0  0  0
   -6.0418   10.4392  -31.0906 C   0  0  0  0  0  0  0  0  0  0  0  0
   -5.7862   12.1524  -27.7558 C   0  0  0  0  0  0  0  0  0  0  0  0
   -5.1581   13.0437  -27.1806 O   0  0  0  0  0  0  0  0  0  0  0  0
   -7.2377   10.1061  -29.0400 O   0  0  0  0  0  0  0  0  0  0  0  0
   -3.3945   12.8019  -31.8949 F   0  0  0  0  0  0  0  0  0  0  0  0
   -7.0141    9.0607  -31.9562 Br  0  0  0  0  0  0  0  0  0  0  0  0
   -3.9972   13.2684  -29.4042 H   0  0  0  0  0  0  0  0  0  0  0  0
   -4.8613   10.8812  -32.8519 H   0  0  0  0  0  0  0  0  0  0  0  0
   -6.5700   11.5886  -27.2068 H   0  0  0  0  0  0  0  0  0  0  0  0
   -7.6604    9.4319  -29.5930 H   0  0  0  0  0  0  0  0  0  0  0  0
  1  3  2  0  0  0  0
  1  5  1  0  0  0  0
  2  5  2  0  0  0  0
  2  6  1  0  0  0  0
  3  4  1  0  0  0  0
  3  7  1  0  0  0  0
  4  6  2  0  0  0  0
  4  9  1  0  0  0  0
  5 10  1  0  0  0  0
  6 11  1  0  0  0  0
  7  8  2  0  0  0  0
  1 12  1  0  0  0  0
  2 13  1  0  0  0  0
  7 14  1  0  0  0  0
  9 15  1  0  0  0  0
M  END
> <id>
EN300-177154

> <smiles>
OC=1C(Br)=CC(F)=CC1C=O

> <MDLNUMBER>
MFCD08458073

> <IUPAC Name>
3-bromo-5-fluoro-2-hydroxybenzaldehyde

> <CAS>
178546-34-4

> <Purity>
95

> <URL>
https://www.enaminestore.com/catalog/EN300-177154

> <ROCS_ShapeQuery>
_x1604L0AP1_x0771L0AP1

> <ROCS_TanimotoCombo>
0.952 

> <ROCS_ShapeTanimoto>
0.455 

> <ROCS_ColorTanimoto>
0.497 

> <ROCS_RefTversky>
0.412 

> <ROCS_RefColorTversky>
0.516 

> <ROCS_RefTverskyCombo>
0.928 

> <ROCS_FitTversky>
1.294 

> <ROCS_FitColorTversky>
0.932 

> <ROCS_FitTverskyCombo>
2.226 

> <ROCS_ColorScore>
-4.881

> <ROCS_Overlap>
689.128

> <ROCS_Rank>
381                 

$$$$
untitled-dbase-446_16
  -OEChem-06052310023D

 23 23  0     0  0  0  0  0  0999 V2000
   -5.0334   11.3333  -31.7702 C   0  0  0  0  0  0  0  0  0  0  0  0
   -4.5017   12.4593  -29.6998 C   0  0  0  0  0  0  0  0  0  0  0  0
   -6.0257   10.6019  -31.1176 C   0  0  0  0  0  0  0  0  0  0  0  0
   -6.2560   10.7991  -29.7561 C   0  0  0  0  0  0  0  0  0  0  0  0
   -4.2713   12.2620  -31.0613 C   0  0  0  0  0  0  0  0  0  0  0  0
   -5.4941   11.7278  -29.0472 C   0  0  0  0  0  0  0  0  0  0  0  0
   -8.2758    9.4012  -31.3806 C   0  0  0  0  0  0  0  0  0  0  0  0
   -6.1130    8.2455  -31.9467 C   0  0  0  0  0  0  0  0  0  0  0  0
   -6.8300    9.6127  -31.8955 C   0  0  0  0  0  0  0  0  0  0  0  0
   -7.2304   10.0756  -29.1319 O   0  0  0  0  0  0  0  0  0  0  0  0
   -6.9849   10.0537  -33.2634 O   0  0  0  0  0  0  0  0  0  0  0  0
   -3.0468   13.1643  -31.8670 Cl  0  0  0  0  0  0  0  0  0  0  0  0
   -5.7773   12.0238  -27.1960 Br  0  0  0  0  0  0  0  0  0  0  0  0
   -4.8571   11.1769  -32.8324 H   0  0  0  0  0  0  0  0  0  0  0  0
   -3.9050   13.1841  -29.1504 H   0  0  0  0  0  0  0  0  0  0  0  0
   -8.8225    8.6671  -31.9848 H   0  0  0  0  0  0  0  0  0  0  0  0
   -8.2982    9.0555  -30.3423 H   0  0  0  0  0  0  0  0  0  0  0  0
   -8.8419   10.3380  -31.4458 H   0  0  0  0  0  0  0  0  0  0  0  0
   -6.6844    7.5011  -32.5132 H   0  0  0  0  0  0  0  0  0  0  0  0
   -5.9373    7.8512  -30.9399 H   0  0  0  0  0  0  0  0  0  0  0  0
   -5.1435    8.3385  -32.4506 H   0  0  0  0  0  0  0  0  0  0  0  0
   -7.2756   10.3178  -28.1945 H   0  0  0  0  0  0  0  0  0  0  0  0
   -7.5093    9.3695  -33.6950 H   0  0  0  0  0  0  0  0  0  0  0  0
  1  3  2  0  0  0  0
  1  5  1  0  0  0  0
  2  5  2  0  0  0  0
  2  6  1  0  0  0  0
  3  4  1  0  0  0  0
  3  9  1  0  0  0  0
  4  6  2  0  0  0  0
  4 10  1  0  0  0  0
  5 12  1  0  0  0  0
  6 13  1  0  0  0  0
  7  9  1  0  0  0  0
  8  9  1  0  0  0  0
  9 11  1  0  0  0  0
  1 14  1  0  0  0  0
  2 15  1  0  0  0  0
  7 16  1  0  0  0  0
  7 17  1  0  0  0  0
  7 18  1  0  0  0  0
  8 19  1  0  0  0  0
  8 20  1  0  0  0  0
  8 21  1  0  0  0  0
 10 22  1  0  0  0  0
 11 23  1  0  0  0  0
M  END
> <id>
EN300-1922594

> <smiles>
CC(C)(O)C=1C=C(Cl)C=C(Br)C1O

> <IUPAC Name>
2-bromo-4-chloro-6-(2-hydroxypropan-2-yl)phenol

> <CAS>
2228329-35-7

> <URL>
https://www.enaminestore.com/catalog/EN300-1922594

> <ROCS_ShapeQuery>
_x1604L0AP1_x0771L0AP1

> <ROCS_TanimotoCombo>
0.952 

> <ROCS_ShapeTanimoto>
0.544 

> <ROCS_ColorTanimoto>
0.408 

> <ROCS_RefTversky>
0.479 

> <ROCS_RefColorTversky>
0.506 

> <ROCS_RefTverskyCombo>
0.985 

> <ROCS_FitTversky>
1.333 

> <ROCS_FitColorTversky>
0.678 

> <ROCS_FitTverskyCombo>
2.011 

> <ROCS_ColorScore>
-4.839

> <ROCS_Overlap>
802.155

> <ROCS_Rank>
382                 

$$$$
untitled-dbase-1320_1
  -OEChem-06052310023D

 20 20  0     0  0  0  0  0  0999 V2000
   -4.5985   12.4935  -29.8586 C   0  0  0  0  0  0  0  0  0  0  0  0
   -4.3505   12.1793  -31.1947 C   0  0  0  0  0  0  0  0  0  0  0  0
   -5.5680   11.7891  -29.1447 C   0  0  0  0  0  0  0  0  0  0  0  0
   -6.2896   10.7705  -29.7672 C   0  0  0  0  0  0  0  0  0  0  0  0
   -5.0722   11.1608  -31.8172 C   0  0  0  0  0  0  0  0  0  0  0  0
   -6.0417   10.4564  -31.1034 C   0  0  0  0  0  0  0  0  0  0  0  0
   -5.0163   13.1616  -27.2826 C   0  0  0  0  0  0  0  0  0  0  0  0
   -5.9612   10.6347  -34.1907 O   0  0  0  0  0  0  0  0  0  0  0  0
   -3.7091   11.7841  -33.9278 O   0  0  0  0  0  0  0  0  0  0  0  0
   -7.2326   10.0971  -29.0458 O   0  0  0  0  0  0  0  0  0  0  0  0
   -5.7986   12.1076  -27.8403 O   0  0  0  0  0  0  0  0  0  0  0  0
   -3.9787    9.4142  -33.5464 F   0  0  0  0  0  0  0  0  0  0  0  0
   -4.7040   10.8242  -33.4982 S   0  0  0  0  0  0  0  0  0  0  0  0
   -7.0431    9.0601  -31.9271 Br  0  0  0  0  0  0  0  0  0  0  0  0
   -4.0328   13.2881  -29.3796 H   0  0  0  0  0  0  0  0  0  0  0  0
   -3.5921   12.7365  -31.7385 H   0  0  0  0  0  0  0  0  0  0  0  0
   -5.2999   13.3136  -26.2383 H   0  0  0  0  0  0  0  0  0  0  0  0
   -5.1803   14.0793  -27.8531 H   0  0  0  0  0  0  0  0  0  0  0  0
   -3.9603   12.8863  -27.3347 H   0  0  0  0  0  0  0  0  0  0  0  0
   -7.2706   10.4447  -28.1419 H   0  0  0  0  0  0  0  0  0  0  0  0
  1  2  1  0  0  0  0
  1  3  2  0  0  0  0
  2  5  2  0  0  0  0
  3  4  1  0  0  0  0
  3 11  1  0  0  0  0
  4  6  2  0  0  0  0
  4 10  1  0  0  0  0
  5  6  1  0  0  0  0
  5 13  1  0  0  0  0
  6 14  1  0  0  0  0
  7 11  1  0  0  0  0
  8 13  2  0  0  0  0
  9 13  2  0  0  0  0
 12 13  1  0  0  0  0
  1 15  1  0  0  0  0
  2 16  1  0  0  0  0
  7 17  1  0  0  0  0
  7 18  1  0  0  0  0
  7 19  1  0  0  0  0
 10 20  1  0  0  0  0
M  END
> <id>
EN300-6493402

> <smiles>
COC=1C=CC(=C(Br)C1O)S(=O)(=O)F

> <IUPAC Name>
2-bromo-3-hydroxy-4-methoxybenzene-1-sulfonyl fluoride

> <CAS>
2247104-48-7

> <URL>
https://www.enaminestore.com/catalog/EN300-6493402

> <ROCS_ShapeQuery>
_x1604L0AP1_x0771L0AP1

> <ROCS_TanimotoCombo>
0.952 

> <ROCS_ShapeTanimoto>
0.454 

> <ROCS_ColorTanimoto>
0.498 

> <ROCS_RefTversky>
0.432 

> <ROCS_RefColorTversky>
0.516 

> <ROCS_RefTverskyCombo>
0.948 

> <ROCS_FitTversky>
1.126 

> <ROCS_FitColorTversky>
0.933 

> <ROCS_FitTverskyCombo>
2.059 

> <ROCS_ColorScore>
-4.885

> <ROCS_Overlap>
724.772

> <ROCS_Rank>
383                 

$$$$
untitled-dbase-177_147
  -OEChem-06052310023D

 30 30  0     0  0  0  0  0  0999 V2000
   -5.0494   11.1325  -31.7885 C   0  0  0  0  0  0  0  0  0  0  0  0
   -5.5660   11.7756  -29.1235 C   0  0  0  0  0  0  0  0  0  0  0  0
   -4.3233   12.1455  -31.1621 C   0  0  0  0  0  0  0  0  0  0  0  0
   -4.5816   12.4670  -29.8296 C   0  0  0  0  0  0  0  0  0  0  0  0
   -6.2921   10.7626  -29.7499 C   0  0  0  0  0  0  0  0  0  0  0  0
   -6.0338   10.4411  -31.0824 C   0  0  0  0  0  0  0  0  0  0  0  0
   -3.2891   12.8611  -31.9315 C   0  0  0  0  0  0  0  0  0  0  0  0
   -3.8200   13.5485  -29.1354 C   0  0  0  0  0  0  0  0  0  0  0  0
   -4.2530   12.7125  -34.8058 C   0  0  0  0  0  0  0  0  0  0  0  0
   -1.9700   11.9739  -35.5134 C   0  0  0  0  0  0  0  0  0  0  0  0
   -2.5536   12.1221  -33.0497 C   0  0  0  0  0  0  0  0  0  0  0  0
   -2.7655   12.7311  -34.4468 C   0  0  0  0  0  0  0  0  0  0  0  0
   -3.0329   14.0411  -31.6900 O   0  0  0  0  0  0  0  0  0  0  0  0
   -7.2475   10.1058  -29.0328 O   0  0  0  0  0  0  0  0  0  0  0  0
   -7.0011    9.0709  -31.9652 Br  0  0  0  0  0  0  0  0  0  0  0  0
   -4.8431   10.8860  -32.8281 H   0  0  0  0  0  0  0  0  0  0  0  0
   -5.7699   12.0239  -28.0845 H   0  0  0  0  0  0  0  0  0  0  0  0
   -2.9255   13.1348  -28.6558 H   0  0  0  0  0  0  0  0  0  0  0  0
   -3.5097   14.3294  -29.8403 H   0  0  0  0  0  0  0  0  0  0  0  0
   -4.4346   14.0359  -28.3686 H   0  0  0  0  0  0  0  0  0  0  0  0
   -4.6369   11.6870  -34.8206 H   0  0  0  0  0  0  0  0  0  0  0  0
   -4.4300   13.1552  -35.7921 H   0  0  0  0  0  0  0  0  0  0  0  0
   -4.8379   13.2759  -34.0711 H   0  0  0  0  0  0  0  0  0  0  0  0
   -2.2615   10.9201  -35.5579 H   0  0  0  0  0  0  0  0  0  0  0  0
   -0.8976   12.0102  -35.2935 H   0  0  0  0  0  0  0  0  0  0  0  0
   -2.1243   12.4085  -36.5070 H   0  0  0  0  0  0  0  0  0  0  0  0
   -1.4812   12.1069  -32.8226 H   0  0  0  0  0  0  0  0  0  0  0  0
   -2.9251   11.0900  -33.0443 H   0  0  0  0  0  0  0  0  0  0  0  0
   -2.4339   13.7768  -34.4463 H   0  0  0  0  0  0  0  0  0  0  0  0
   -7.6737    9.4309  -29.5834 H   0  0  0  0  0  0  0  0  0  0  0  0
  1  3  2  0  0  0  0
  1  6  1  0  0  0  0
  2  4  2  0  0  0  0
  2  5  1  0  0  0  0
  3  4  1  0  0  0  0
  3  7  1  0  0  0  0
  4  8  1  0  0  0  0
  5  6  2  0  0  0  0
  5 14  1  0  0  0  0
  6 15  1  0  0  0  0
  7 11  1  0  0  0  0
  7 13  2  0  0  0  0
  9 12  1  0  0  0  0
 10 12  1  0  0  0  0
 11 12  1  0  0  0  0
  1 16  1  0  0  0  0
  2 17  1  0  0  0  0
  8 18  1  0  0  0  0
  8 19  1  0  0  0  0
  8 20  1  0  0  0  0
  9 21  1  0  0  0  0
  9 22  1  0  0  0  0
  9 23  1  0  0  0  0
 10 24  1  0  0  0  0
 10 25  1  0  0  0  0
 10 26  1  0  0  0  0
 11 27  1  0  0  0  0
 11 28  1  0  0  0  0
 12 29  1  0  0  0  0
 14 30  1  0  0  0  0
M  END
> <id>
EN300-1276440

> <smiles>
CC(C)CC(=O)C=1C=C(Br)C(O)=CC1C

> <IUPAC Name>
1-(5-bromo-4-hydroxy-2-methylphenyl)-3-methylbutan-1-one

> <CAS>
2106584-90-9

> <URL>
https://www.enaminestore.com/catalog/EN300-1276440

> <ROCS_ShapeQuery>
_x1604L0AP1_x0771L0AP1

> <ROCS_TanimotoCombo>
0.952 

> <ROCS_ShapeTanimoto>
0.501 

> <ROCS_ColorTanimoto>
0.451 

> <ROCS_RefTversky>
0.469 

> <ROCS_RefColorTversky>
0.513 

> <ROCS_RefTverskyCombo>
0.982 

> <ROCS_FitTversky>
1.157 

> <ROCS_FitColorTversky>
0.789 

> <ROCS_FitTverskyCombo>
1.946 

> <ROCS_ColorScore>
-4.878

> <ROCS_Overlap>
787.777

> <ROCS_Rank>
384                 

$$$$
untitled-dbase-1537_0
  -OEChem-06052310023D

 15 15  0     0  0  0  0  0  0999 V2000
   -4.5748   12.4710  -29.8667 C   0  0  0  0  0  0  0  0  0  0  0  0
   -5.0646   11.1231  -31.8110 C   0  0  0  0  0  0  0  0  0  0  0  0
   -5.5515   11.7849  -29.1450 C   0  0  0  0  0  0  0  0  0  0  0  0
   -6.2847   10.7678  -29.7562 C   0  0  0  0  0  0  0  0  0  0  0  0
   -4.3314   12.1402  -31.1998 C   0  0  0  0  0  0  0  0  0  0  0  0
   -6.0413   10.4369  -31.0893 C   0  0  0  0  0  0  0  0  0  0  0  0
   -5.7885   12.1495  -27.7549 C   0  0  0  0  0  0  0  0  0  0  0  0
   -5.1630   13.0422  -27.1787 O   0  0  0  0  0  0  0  0  0  0  0  0
   -7.2390   10.1049  -29.0396 O   0  0  0  0  0  0  0  0  0  0  0  0
   -3.1262   12.9874  -32.0898 Cl  0  0  0  0  0  0  0  0  0  0  0  0
   -7.0164    9.0608  -31.9555 Br  0  0  0  0  0  0  0  0  0  0  0  0
   -4.0044   13.2642  -29.3880 H   0  0  0  0  0  0  0  0  0  0  0  0
   -4.8718   10.8683  -32.8510 H   0  0  0  0  0  0  0  0  0  0  0  0
   -6.5726   11.5849  -27.2068 H   0  0  0  0  0  0  0  0  0  0  0  0
   -7.6616    9.4308  -29.5930 H   0  0  0  0  0  0  0  0  0  0  0  0
  1  3  2  0  0  0  0
  1  5  1  0  0  0  0
  2  5  2  0  0  0  0
  2  6  1  0  0  0  0
  3  4  1  0  0  0  0
  3  7  1  0  0  0  0
  4  6  2  0  0  0  0
  4  9  1  0  0  0  0
  5 10  1  0  0  0  0
  6 11  1  0  0  0  0
  7  8  2  0  0  0  0
  1 12  1  0  0  0  0
  2 13  1  0  0  0  0
  7 14  1  0  0  0  0
  9 15  1  0  0  0  0
M  END
> <id>
EN300-370866

> <smiles>
OC=1C(Br)=CC(Cl)=CC1C=O

> <MDLNUMBER>
MFCD00051690

> <IUPAC Name>
3-bromo-5-chloro-2-hydroxybenzaldehyde

> <CAS>
19652-32-5

> <Purity>
95

> <URL>
https://www.enaminestore.com/catalog/EN300-370866

> <MP>
84-88

> <ROCS_ShapeQuery>
_x1604L0AP1_x0771L0AP1

> <ROCS_TanimotoCombo>
0.952 

> <ROCS_ShapeTanimoto>
0.455 

> <ROCS_ColorTanimoto>
0.497 

> <ROCS_RefTversky>
0.410 

> <ROCS_RefColorTversky>
0.516 

> <ROCS_RefTverskyCombo>
0.926 

> <ROCS_FitTversky>
1.313 

> <ROCS_FitColorTversky>
0.932 

> <ROCS_FitTverskyCombo>
2.246 

> <ROCS_ColorScore>
-4.881

> <ROCS_Overlap>
685.391

> <ROCS_Rank>
385                 

$$$$
untitled-dbase-1926_0
  -OEChem-06052310023D

 13 13  0     0  0  0  0  0  0999 V2000
   -5.0651   11.1421  -31.7993 C   0  0  0  0  0  0  0  0  0  0  0  0
   -4.5985   12.4999  -29.8563 C   0  0  0  0  0  0  0  0  0  0  0  0
   -6.2920   10.7801  -29.7498 C   0  0  0  0  0  0  0  0  0  0  0  0
   -4.3451   12.1680  -31.1872 C   0  0  0  0  0  0  0  0  0  0  0  0
   -6.0386   10.4482  -31.0806 C   0  0  0  0  0  0  0  0  0  0  0  0
   -5.5720   11.8060  -29.1376 C   0  0  0  0  0  0  0  0  0  0  0  0
   -7.2440   10.1006  -29.0453 O   0  0  0  0  0  0  0  0  0  0  0  0
   -3.1434   13.0238  -32.0735 Cl  0  0  0  0  0  0  0  0  0  0  0  0
   -6.9956    9.0611  -31.9499 Br  0  0  0  0  0  0  0  0  0  0  0  0
   -5.8859   12.2900  -27.3310 Br  0  0  0  0  0  0  0  0  0  0  0  0
   -4.8657   10.8867  -32.8380 H   0  0  0  0  0  0  0  0  0  0  0  0
   -4.0345   13.3003  -29.3820 H   0  0  0  0  0  0  0  0  0  0  0  0
   -7.6515    9.4232  -29.6057 H   0  0  0  0  0  0  0  0  0  0  0  0
  1  4  2  0  0  0  0
  1  5  1  0  0  0  0
  2  4  1  0  0  0  0
  2  6  2  0  0  0  0
  3  5  2  0  0  0  0
  3  6  1  0  0  0  0
  3  7  1  0  0  0  0
  4  8  1  0  0  0  0
  5  9  1  0  0  0  0
  6 10  1  0  0  0  0
  1 11  1  0  0  0  0
  2 12  1  0  0  0  0
  7 13  1  0  0  0  0
M  END
> <id>
EN300-1265459

> <smiles>
OC=1C(Br)=CC(Cl)=CC1Br

> <MDLNUMBER>
MFCD00029751

> <IUPAC Name>
2,6-dibromo-4-chlorophenol

> <CAS>
5324-13-0

> <URL>
https://www.enaminestore.com/catalog/EN300-1265459

> <ROCS_ShapeQuery>
_x1604L0AP1_x0771L0AP1

> <ROCS_TanimotoCombo>
0.952 

> <ROCS_ShapeTanimoto>
0.455 

> <ROCS_ColorTanimoto>
0.497 

> <ROCS_RefTversky>
0.400 

> <ROCS_RefColorTversky>
0.516 

> <ROCS_RefTverskyCombo>
0.915 

> <ROCS_FitTversky>
1.432 

> <ROCS_FitColorTversky>
0.932 

> <ROCS_FitTverskyCombo>
2.364 

> <ROCS_ColorScore>
-4.881

> <ROCS_Overlap>
666.891

> <ROCS_Rank>
386                 

$$$$
untitled-dbase-705_795
  -OEChem-06052310023D

 29 29  0     1  0  0  0  0  0999 V2000
   -4.5857   12.4706  -29.8543 C   0  0  0  0  0  0  0  0  0  0  0  0
   -5.0644   11.1263  -31.8038 C   0  0  0  0  0  0  0  0  0  0  0  0
   -4.3360   12.1435  -31.1870 C   0  0  0  0  0  0  0  0  0  0  0  0
   -5.5638   11.7804  -29.1382 C   0  0  0  0  0  0  0  0  0  0  0  0
   -6.2922   10.7632  -29.7550 C   0  0  0  0  0  0  0  0  0  0  0  0
   -6.0425   10.4361  -31.0878 C   0  0  0  0  0  0  0  0  0  0  0  0
   -5.4234   13.3898  -25.8476 C   0  0  0  0  0  0  0  0  0  0  0  0
   -1.1576   13.9762  -31.7582 C   0  0  0  0  0  0  0  0  0  0  0  0
   -3.2909   12.8823  -31.9525 C   0  0  0  0  0  0  0  0  0  0  0  0
   -5.0075   13.1638  -27.2855 C   0  0  0  0  0  0  0  0  0  0  0  0
   -2.4224   13.6482  -31.0949 N   0  0  2  0  0  0  0  0  0  0  0  0
   -7.2454   10.1003  -29.0383 O   0  0  0  0  0  0  0  0  0  0  0  0
   -3.0818   14.9383  -30.9348 O   0  0  0  0  0  0  0  0  0  0  0  0
   -5.7965   12.1117  -27.8374 O   0  0  0  0  0  0  0  0  0  0  0  0
   -7.0119    9.0601  -31.9600 Br  0  0  0  0  0  0  0  0  0  0  0  0
   -4.0194   13.2634  -29.3713 H   0  0  0  0  0  0  0  0  0  0  0  0
   -4.8627   10.8788  -32.8438 H   0  0  0  0  0  0  0  0  0  0  0  0
   -6.4773   13.6752  -25.7865 H   0  0  0  0  0  0  0  0  0  0  0  0
   -5.2675   12.4833  -25.2536 H   0  0  0  0  0  0  0  0  0  0  0  0
   -4.8168   14.1784  -25.3900 H   0  0  0  0  0  0  0  0  0  0  0  0
   -0.5243   14.5593  -31.0734 H   0  0  0  0  0  0  0  0  0  0  0  0
   -0.6381   13.0475  -32.0367 H   0  0  0  0  0  0  0  0  0  0  0  0
   -1.3609   14.5680  -32.6629 H   0  0  0  0  0  0  0  0  0  0  0  0
   -2.6596   12.1916  -32.5291 H   0  0  0  0  0  0  0  0  0  0  0  0
   -3.7375   13.5805  -32.6737 H   0  0  0  0  0  0  0  0  0  0  0  0
   -3.9526   12.8787  -27.3396 H   0  0  0  0  0  0  0  0  0  0  0  0
   -5.1647   14.0702  -27.8778 H   0  0  0  0  0  0  0  0  0  0  0  0
   -7.2882   10.4521  -28.1360 H   0  0  0  0  0  0  0  0  0  0  0  0
   -2.4216   15.3961  -30.3871 H   0  0  0  0  0  0  0  0  0  0  0  0
  1  3  1  0  0  0  0
  1  4  2  0  0  0  0
  2  3  2  0  0  0  0
  2  6  1  0  0  0  0
  3  9  1  0  0  0  0
  4  5  1  0  0  0  0
  4 14  1  0  0  0  0
  5  6  2  0  0  0  0
  5 12  1  0  0  0  0
  6 15  1  0  0  0  0
  7 10  1  0  0  0  0
  8 11  1  0  0  0  0
  9 11  1  0  0  0  0
 10 14  1  0  0  0  0
 11 13  1  0  0  0  0
  1 16  1  0  0  0  0
  2 17  1  0  0  0  0
  7 18  1  0  0  0  0
  7 19  1  0  0  0  0
  7 20  1  0  0  0  0
  8 21  1  0  0  0  0
  8 22  1  0  0  0  0
  8 23  1  0  0  0  0
  9 24  1  0  0  0  0
  9 25  1  0  0  0  0
 10 26  1  0  0  0  0
 10 27  1  0  0  0  0
 12 28  1  0  0  0  0
 13 29  1  0  0  0  0
M  END
> <id>
EN300-1920226

> <smiles>
CCOC=1C=C(CN(C)O)C=C(Br)C1O

> <IUPAC Name>
2-bromo-6-ethoxy-4-{[hydroxy(methyl)amino]methyl}phenol

> <CAS>
2229416-83-3

> <URL>
https://www.enaminestore.com/catalog/EN300-1920226

> <ROCS_ShapeQuery>
_x1604L0AP1_x0771L0AP1

> <ROCS_TanimotoCombo>
0.952 

> <ROCS_ShapeTanimoto>
0.501 

> <ROCS_ColorTanimoto>
0.451 

> <ROCS_RefTversky>
0.470 

> <ROCS_RefColorTversky>
0.513 

> <ROCS_RefTverskyCombo>
0.983 

> <ROCS_FitTversky>
1.150 

> <ROCS_FitColorTversky>
0.789 

> <ROCS_FitTverskyCombo>
1.939 

> <ROCS_ColorScore>
-4.881

> <ROCS_Overlap>
789.305

> <ROCS_Rank>
387                 

$$$$
untitled-dbase-72_628
  -OEChem-06052310023D

 36 36  0     0  0  0  0  0  0999 V2000
   -4.3083   12.1597  -31.2009 C   0  0  0  0  0  0  0  0  0  0  0  0
   -5.1356   11.2659  -31.8808 C   0  0  0  0  0  0  0  0  0  0  0  0
   -4.4601   12.3431  -29.8264 C   0  0  0  0  0  0  0  0  0  0  0  0
   -6.1147   10.5555  -31.1863 C   0  0  0  0  0  0  0  0  0  0  0  0
   -6.2666   10.7390  -29.8119 C   0  0  0  0  0  0  0  0  0  0  0  0
   -5.4392   11.6328  -29.1320 C   0  0  0  0  0  0  0  0  0  0  0  0
   -6.6356    7.9778  -33.8021 C   0  0  0  0  0  0  0  0  0  0  0  0
   -7.7412    7.2513  -36.3405 C   0  0  0  0  0  0  0  0  0  0  0  0
   -8.1033    9.7136  -36.6796 C   0  0  0  0  0  0  0  0  0  0  0  0
   -5.7728    8.8183  -36.4057 C   0  0  0  0  0  0  0  0  0  0  0  0
   -5.0027    8.1347  -31.9155 C   0  0  0  0  0  0  0  0  0  0  0  0
   -6.9951    9.5994  -31.9380 C   0  0  0  0  0  0  0  0  0  0  0  0
   -7.2373    8.6536  -36.0024 C   0  0  0  0  0  0  0  0  0  0  0  0
   -6.2261    8.5514  -32.5937 N   0  0  0  0  0  0  0  0  0  0  0  0
   -6.3916    6.8201  -34.1375 O   0  0  0  0  0  0  0  0  0  0  0  0
   -7.2302   10.0379  -29.1467 O   0  0  0  0  0  0  0  0  0  0  0  0
   -7.3453    8.8478  -34.5873 O   0  0  0  0  0  0  0  0  0  0  0  0
   -5.6132   11.9093  -27.2646 Br  0  0  0  0  0  0  0  0  0  0  0  0
   -3.5456   12.7125  -31.7414 H   0  0  0  0  0  0  0  0  0  0  0  0
   -5.0088   11.1273  -32.9512 H   0  0  0  0  0  0  0  0  0  0  0  0
   -3.8058   13.0437  -29.3136 H   0  0  0  0  0  0  0  0  0  0  0  0
   -7.1223    6.4875  -35.8563 H   0  0  0  0  0  0  0  0  0  0  0  0
   -8.7798    7.1087  -36.0247 H   0  0  0  0  0  0  0  0  0  0  0  0
   -7.6783    7.0625  -37.4183 H   0  0  0  0  0  0  0  0  0  0  0  0
   -7.7454   10.7214  -36.4397 H   0  0  0  0  0  0  0  0  0  0  0  0
   -9.1376    9.6600  -36.3211 H   0  0  0  0  0  0  0  0  0  0  0  0
   -8.1072    9.5971  -37.7681 H   0  0  0  0  0  0  0  0  0  0  0  0
   -5.4111    9.8241  -36.1632 H   0  0  0  0  0  0  0  0  0  0  0  0
   -5.1309    8.0891  -35.9006 H   0  0  0  0  0  0  0  0  0  0  0  0
   -5.6509    8.6985  -37.4883 H   0  0  0  0  0  0  0  0  0  0  0  0
   -4.1605    8.7487  -32.2672 H   0  0  0  0  0  0  0  0  0  0  0  0
   -5.1229    8.2647  -30.8299 H   0  0  0  0  0  0  0  0  0  0  0  0
   -4.8026    7.0762  -32.1381 H   0  0  0  0  0  0  0  0  0  0  0  0
   -7.7104    9.1196  -31.2610 H   0  0  0  0  0  0  0  0  0  0  0  0
   -7.5746   10.1206  -32.7072 H   0  0  0  0  0  0  0  0  0  0  0  0
   -7.2178   10.2668  -28.2050 H   0  0  0  0  0  0  0  0  0  0  0  0
  1  2  1  0  0  0  0
  1  3  2  0  0  0  0
  2  4  2  0  0  0  0
  3  6  1  0  0  0  0
  4  5  1  0  0  0  0
  4 12  1  0  0  0  0
  5  6  2  0  0  0  0
  5 16  1  0  0  0  0
  6 18  1  0  0  0  0
  7 14  1  0  0  0  0
  7 15  2  0  0  0  0
  7 17  1  0  0  0  0
  8 13  1  0  0  0  0
  9 13  1  0  0  0  0
 10 13  1  0  0  0  0
 11 14  1  0  0  0  0
 12 14  1  0  0  0  0
 13 17  1  0  0  0  0
  1 19  1  0  0  0  0
  2 20  1  0  0  0  0
  3 21  1  0  0  0  0
  8 22  1  0  0  0  0
  8 23  1  0  0  0  0
  8 24  1  0  0  0  0
  9 25  1  0  0  0  0
  9 26  1  0  0  0  0
  9 27  1  0  0  0  0
 10 28  1  0  0  0  0
 10 29  1  0  0  0  0
 10 30  1  0  0  0  0
 11 31  1  0  0  0  0
 11 32  1  0  0  0  0
 11 33  1  0  0  0  0
 12 34  1  0  0  0  0
 12 35  1  0  0  0  0
 16 36  1  0  0  0  0
M  END
> <id>
EN300-170351

> <smiles>
CN(CC=1C=CC=C(Br)C1O)C(=O)OC(C)(C)C

> <MDLNUMBER>
MFCD27980875

> <IUPAC Name>
tert-butyl N-[(3-bromo-2-hydroxyphenyl)methyl]-N-methylcarbamate

> <CAS>
1798003-45-8

> <Purity>
95

> <URL>
https://www.enaminestore.com/catalog/EN300-170351

> <ROCS_ShapeQuery>
_x1604L0AP1_x0771L0AP1

> <ROCS_TanimotoCombo>
0.952 

> <ROCS_ShapeTanimoto>
0.533 

> <ROCS_ColorTanimoto>
0.418 

> <ROCS_RefTversky>
0.517 

> <ROCS_RefColorTversky>
0.487 

> <ROCS_RefTverskyCombo>
1.003 

> <ROCS_FitTversky>
1.063 

> <ROCS_FitColorTversky>
0.749 

> <ROCS_FitTverskyCombo>
1.812 

> <ROCS_ColorScore>
-4.631

> <ROCS_Overlap>
871.698

> <ROCS_Rank>
388                 

$$$$
untitled-dbase-805_112
  -OEChem-06052310023D

 23 23  0     0  0  0  0  0  0999 V2000
   -4.6200   12.5072  -29.8794 C   0  0  0  0  0  0  0  0  0  0  0  0
   -5.0944   11.1520  -31.8224 C   0  0  0  0  0  0  0  0  0  0  0  0
   -4.3765   12.1814  -31.2136 C   0  0  0  0  0  0  0  0  0  0  0  0
   -5.5814   11.8035  -29.1539 C   0  0  0  0  0  0  0  0  0  0  0  0
   -6.2993   10.7742  -29.7627 C   0  0  0  0  0  0  0  0  0  0  0  0
   -6.0558   10.4484  -31.0969 C   0  0  0  0  0  0  0  0  0  0  0  0
   -6.8020   13.1251  -27.5984 C   0  0  0  0  0  0  0  0  0  0  0  0
   -3.3492   12.9346  -31.9891 C   0  0  0  0  0  0  0  0  0  0  0  0
   -2.0376   12.8366  -31.4004 N   0  0  0  0  0  0  0  0  0  0  0  0
   -7.2363   10.0982  -29.0368 O   0  0  0  0  0  0  0  0  0  0  0  0
   -1.9286   13.9490  -30.4689 O   0  0  0  0  0  0  0  0  0  0  0  0
   -5.8084   12.1338  -27.8518 O   0  0  0  0  0  0  0  0  0  0  0  0
   -7.0114    9.0560  -31.9584 Br  0  0  0  0  0  0  0  0  0  0  0  0
   -4.0619   13.3095  -29.4026 H   0  0  0  0  0  0  0  0  0  0  0  0
   -4.8976   10.9056  -32.8635 H   0  0  0  0  0  0  0  0  0  0  0  0
   -6.8829   13.2940  -26.5218 H   0  0  0  0  0  0  0  0  0  0  0  0
   -7.7623   12.7903  -27.9987 H   0  0  0  0  0  0  0  0  0  0  0  0
   -6.5090   14.0558  -28.0899 H   0  0  0  0  0  0  0  0  0  0  0  0
   -3.2771   12.5595  -33.0196 H   0  0  0  0  0  0  0  0  0  0  0  0
   -3.5984   14.0025  -32.0572 H   0  0  0  0  0  0  0  0  0  0  0  0
   -1.3041   13.0591  -32.0795 H   0  0  0  0  0  0  0  0  0  0  0  0
   -7.2770   10.4510  -28.1349 H   0  0  0  0  0  0  0  0  0  0  0  0
   -1.0308   13.8140  -30.1194 H   0  0  0  0  0  0  0  0  0  0  0  0
  1  3  1  0  0  0  0
  1  4  2  0  0  0  0
  2  3  2  0  0  0  0
  2  6  1  0  0  0  0
  3  8  1  0  0  0  0
  4  5  1  0  0  0  0
  4 12  1  0  0  0  0
  5  6  2  0  0  0  0
  5 10  1  0  0  0  0
  6 13  1  0  0  0  0
  7 12  1  0  0  0  0
  8  9  1  0  0  0  0
  9 11  1  0  0  0  0
  1 14  1  0  0  0  0
  2 15  1  0  0  0  0
  7 16  1  0  0  0  0
  7 17  1  0  0  0  0
  7 18  1  0  0  0  0
  8 19  1  0  0  0  0
  8 20  1  0  0  0  0
  9 21  1  0  0  0  0
 10 22  1  0  0  0  0
 11 23  1  0  0  0  0
M  END
> <id>
EN300-1912444

> <smiles>
COC=1C=C(CNO)C=C(Br)C1O

> <MDLNUMBER>
MFCD24284787

> <IUPAC Name>
2-bromo-4-[(hydroxyamino)methyl]-6-methoxyphenol

> <CAS>
1554105-74-6

> <URL>
https://www.enaminestore.com/catalog/EN300-1912444

> <ROCS_ShapeQuery>
_x1604L0AP1_x0771L0AP1

> <ROCS_TanimotoCombo>
0.951 

> <ROCS_ShapeTanimoto>
0.501 

> <ROCS_ColorTanimoto>
0.451 

> <ROCS_RefTversky>
0.454 

> <ROCS_RefColorTversky>
0.513 

> <ROCS_RefTverskyCombo>
0.967 

> <ROCS_FitTversky>
1.257 

> <ROCS_FitColorTversky>
0.789 

> <ROCS_FitTverskyCombo>
2.046 

> <ROCS_ColorScore>
-4.880

> <ROCS_Overlap>
760.751

> <ROCS_Rank>
389                 

$$$$
untitled-dbase-1126_212
  -OEChem-06052310023D

 25 25  0     0  0  0  0  0  0999 V2000
   -2.1505   14.7649  -30.4301 C   0  0  0  0  0  0  0  0  0  0  0  0
   -2.6672   13.9272  -31.1179 C   0  0  0  0  0  0  0  0  0  0  0  0
   -4.5971   12.4818  -29.8587 C   0  0  0  0  0  0  0  0  0  0  0  0
   -5.0708   11.1333  -31.8064 C   0  0  0  0  0  0  0  0  0  0  0  0
   -4.3466   12.1543  -31.1912 C   0  0  0  0  0  0  0  0  0  0  0  0
   -5.5718   11.7881  -29.1413 C   0  0  0  0  0  0  0  0  0  0  0  0
   -6.2960   10.7670  -29.7566 C   0  0  0  0  0  0  0  0  0  0  0  0
   -6.0455   10.4396  -31.0892 C   0  0  0  0  0  0  0  0  0  0  0  0
   -4.4503   11.7332  -25.9052 C   0  0  0  0  0  0  0  0  0  0  0  0
   -3.3051   12.8969  -31.9579 C   0  0  0  0  0  0  0  0  0  0  0  0
   -4.7036   12.6340  -27.0952 C   0  0  0  0  0  0  0  0  0  0  0  0
   -7.2460   10.1008  -29.0387 O   0  0  0  0  0  0  0  0  0  0  0  0
   -5.8054   12.1199  -27.8408 O   0  0  0  0  0  0  0  0  0  0  0  0
   -7.0094    9.0583  -31.9593 Br  0  0  0  0  0  0  0  0  0  0  0  0
   -1.6927   15.5077  -29.8197 H   0  0  0  0  0  0  0  0  0  0  0  0
   -4.0341   13.2776  -29.3769 H   0  0  0  0  0  0  0  0  0  0  0  0
   -4.8685   10.8855  -32.8462 H   0  0  0  0  0  0  0  0  0  0  0  0
   -5.3262   11.6944  -25.2517 H   0  0  0  0  0  0  0  0  0  0  0  0
   -4.2097   10.7170  -26.2346 H   0  0  0  0  0  0  0  0  0  0  0  0
   -3.5928   12.0913  -25.3259 H   0  0  0  0  0  0  0  0  0  0  0  0
   -3.7404   13.3742  -32.8504 H   0  0  0  0  0  0  0  0  0  0  0  0
   -2.5330   12.2091  -32.3385 H   0  0  0  0  0  0  0  0  0  0  0  0
   -3.8239   12.6683  -27.7447 H   0  0  0  0  0  0  0  0  0  0  0  0
   -4.9447   13.6486  -26.7643 H   0  0  0  0  0  0  0  0  0  0  0  0
   -7.2899   10.4534  -28.1368 H   0  0  0  0  0  0  0  0  0  0  0  0
  1  2  3  0  0  0  0
  2 10  1  0  0  0  0
  3  5  1  0  0  0  0
  3  6  2  0  0  0  0
  4  5  2  0  0  0  0
  4  8  1  0  0  0  0
  5 10  1  0  0  0  0
  6  7  1  0  0  0  0
  6 13  1  0  0  0  0
  7  8  2  0  0  0  0
  7 12  1  0  0  0  0
  8 14  1  0  0  0  0
  9 11  1  0  0  0  0
 11 13  1  0  0  0  0
  1 15  1  0  0  0  0
  3 16  1  0  0  0  0
  4 17  1  0  0  0  0
  9 18  1  0  0  0  0
  9 19  1  0  0  0  0
  9 20  1  0  0  0  0
 10 21  1  0  0  0  0
 10 22  1  0  0  0  0
 11 23  1  0  0  0  0
 11 24  1  0  0  0  0
 12 25  1  0  0  0  0
M  END
> <id>
EN300-1920240

> <smiles>
CCOC=1C=C(CC#C)C=C(Br)C1O

> <IUPAC Name>
2-bromo-6-ethoxy-4-(prop-2-yn-1-yl)phenol

> <CAS>
2229013-83-4

> <URL>
https://www.enaminestore.com/catalog/EN300-1920240

> <ROCS_ShapeQuery>
_x1604L0AP1_x0771L0AP1

> <ROCS_TanimotoCombo>
0.951 

> <ROCS_ShapeTanimoto>
0.500 

> <ROCS_ColorTanimoto>
0.451 

> <ROCS_RefTversky>
0.462 

> <ROCS_RefColorTversky>
0.513 

> <ROCS_RefTverskyCombo>
0.975 

> <ROCS_FitTversky>
1.201 

> <ROCS_FitColorTversky>
0.789 

> <ROCS_FitTverskyCombo>
1.990 

> <ROCS_ColorScore>
-4.881

> <ROCS_Overlap>
774.326

> <ROCS_Rank>
390                 

$$$$
untitled-dbase-2187_203
  -OEChem-06052310023D

 25 25  0     0  0  0  0  0  0999 V2000
   -4.5643   12.4536  -29.8577 C   0  0  0  0  0  0  0  0  0  0  0  0
   -5.0487   11.1046  -31.8024 C   0  0  0  0  0  0  0  0  0  0  0  0
   -4.3142   12.1190  -31.1885 C   0  0  0  0  0  0  0  0  0  0  0  0
   -5.5489   11.7737  -29.1407 C   0  0  0  0  0  0  0  0  0  0  0  0
   -6.2835   10.7593  -29.7547 C   0  0  0  0  0  0  0  0  0  0  0  0
   -6.0334   10.4247  -31.0856 C   0  0  0  0  0  0  0  0  0  0  0  0
   -4.9859   13.1605  -27.2926 C   0  0  0  0  0  0  0  0  0  0  0  0
   -3.2620   12.8468  -31.9548 C   0  0  0  0  0  0  0  0  0  0  0  0
   -3.5509   12.9387  -33.4577 C   0  0  0  0  0  0  0  0  0  0  0  0
   -6.5277   12.4578  -34.7990 N   0  5  0  0  0  0  0  0  0  0  0  0
   -4.8049   13.6647  -33.6767 N   0  0  0  0  0  0  0  0  0  0  0  0
   -5.7007   13.0315  -34.2625 N   0  3  0  0  0  0  0  0  0  0  0  0
   -7.2431   10.1065  -29.0372 O   0  0  0  0  0  0  0  0  0  0  0  0
   -5.7820   12.1124  -27.8419 O   0  0  0  0  0  0  0  0  0  0  0  0
   -7.0110    9.0520  -31.9539 Br  0  0  0  0  0  0  0  0  0  0  0  0
   -3.9932   13.2443  -29.3769 H   0  0  0  0  0  0  0  0  0  0  0  0
   -4.8466   10.8511  -32.8409 H   0  0  0  0  0  0  0  0  0  0  0  0
   -5.2732   13.3301  -26.2520 H   0  0  0  0  0  0  0  0  0  0  0  0
   -5.1315   14.0735  -27.8754 H   0  0  0  0  0  0  0  0  0  0  0  0
   -3.9342   12.8674  -27.3347 H   0  0  0  0  0  0  0  0  0  0  0  0
   -3.1181   13.8631  -31.5494 H   0  0  0  0  0  0  0  0  0  0  0  0
   -2.2921   12.3402  -31.8147 H   0  0  0  0  0  0  0  0  0  0  0  0
   -2.7464   13.4817  -33.9641 H   0  0  0  0  0  0  0  0  0  0  0  0
   -3.6181   11.9442  -33.9116 H   0  0  0  0  0  0  0  0  0  0  0  0
   -7.2853   10.4624  -28.1366 H   0  0  0  0  0  0  0  0  0  0  0  0
  1  3  1  0  0  0  0
  1  4  2  0  0  0  0
  2  3  2  0  0  0  0
  2  6  1  0  0  0  0
  3  8  1  0  0  0  0
  4  5  1  0  0  0  0
  4 14  1  0  0  0  0
  5  6  2  0  0  0  0
  5 13  1  0  0  0  0
  6 15  1  0  0  0  0
  7 14  1  0  0  0  0
  8  9  1  0  0  0  0
  9 11  1  0  0  0  0
 10 12  2  0  0  0  0
 11 12  2  0  0  0  0
  1 16  1  0  0  0  0
  2 17  1  0  0  0  0
  7 18  1  0  0  0  0
  7 19  1  0  0  0  0
  7 20  1  0  0  0  0
  8 21  1  0  0  0  0
  8 22  1  0  0  0  0
  9 23  1  0  0  0  0
  9 24  1  0  0  0  0
 13 25  1  0  0  0  0
M  CHG  2  10  -1  12   1
M  END
> <id>
EN300-1925671

> <smiles>
COC=1C=C(CCN=[N+]=[N-])C=C(Br)C1O

> <IUPAC Name>
4-(2-azidoethyl)-2-bromo-6-methoxyphenol

> <CAS>
2228242-76-8

> <URL>
https://www.enaminestore.com/catalog/EN300-1925671

> <ROCS_ShapeQuery>
_x1604L0AP1_x0771L0AP1

> <ROCS_TanimotoCombo>
0.951 

> <ROCS_ShapeTanimoto>
0.454 

> <ROCS_ColorTanimoto>
0.497 

> <ROCS_RefTversky>
0.440 

> <ROCS_RefColorTversky>
0.516 

> <ROCS_RefTverskyCombo>
0.956 

> <ROCS_FitTversky>
1.073 

> <ROCS_FitColorTversky>
0.932 

> <ROCS_FitTverskyCombo>
2.005 

> <ROCS_ColorScore>
-4.882

> <ROCS_Overlap>
739.625

> <ROCS_Rank>
391                 

$$$$
untitled-dbase-385_156
  -OEChem-06052310023D

 23 23  0     0  0  0  0  0  0999 V2000
   -4.4017   11.2399  -31.1481 C   0  0  0  0  0  0  0  0  0  0  0  0
   -4.9061   11.0582  -32.4357 C   0  0  0  0  0  0  0  0  0  0  0  0
   -5.1818   10.9085  -30.0402 C   0  0  0  0  0  0  0  0  0  0  0  0
   -6.1907   10.5451  -32.6156 C   0  0  0  0  0  0  0  0  0  0  0  0
   -6.4663   10.3955  -30.2200 C   0  0  0  0  0  0  0  0  0  0  0  0
   -6.9708   10.2137  -31.5077 C   0  0  0  0  0  0  0  0  0  0  0  0
   -6.6848   10.3697  -34.0156 C   0  0  0  0  0  0  0  0  0  0  0  0
   -7.0757    8.9160  -34.3084 C   0  0  0  0  0  0  0  0  0  0  0  0
   -5.9153    7.9561  -34.0857 C   0  0  0  0  0  0  0  0  0  0  0  0
   -7.1996   10.0836  -29.1137 O   0  0  0  0  0  0  0  0  0  0  0  0
   -6.3457    6.6367  -34.3898 O   0  0  0  0  0  0  0  0  0  0  0  0
   -8.7245    9.5127  -31.7406 Br  0  0  0  0  0  0  0  0  0  0  0  0
   -3.4017   11.6399  -31.0080 H   0  0  0  0  0  0  0  0  0  0  0  0
   -4.2896   11.3199  -33.2919 H   0  0  0  0  0  0  0  0  0  0  0  0
   -4.7820   11.0536  -29.0401 H   0  0  0  0  0  0  0  0  0  0  0  0
   -5.9157   10.6906  -34.7369 H   0  0  0  0  0  0  0  0  0  0  0  0
   -7.5531   11.0228  -34.2003 H   0  0  0  0  0  0  0  0  0  0  0  0
   -7.4339    8.8185  -35.3417 H   0  0  0  0  0  0  0  0  0  0  0  0
   -7.9221    8.6148  -33.6770 H   0  0  0  0  0  0  0  0  0  0  0  0
   -5.0715    8.2056  -34.7369 H   0  0  0  0  0  0  0  0  0  0  0  0
   -5.5817    7.9821  -33.0434 H   0  0  0  0  0  0  0  0  0  0  0  0
   -8.0677    9.7391  -29.3746 H   0  0  0  0  0  0  0  0  0  0  0  0
   -5.5857    6.0517  -34.2382 H   0  0  0  0  0  0  0  0  0  0  0  0
  1  2  1  0  0  0  0
  1  3  2  0  0  0  0
  2  4  2  0  0  0  0
  3  5  1  0  0  0  0
  4  6  1  0  0  0  0
  4  7  1  0  0  0  0
  5  6  2  0  0  0  0
  5 10  1  0  0  0  0
  6 12  1  0  0  0  0
  7  8  1  0  0  0  0
  8  9  1  0  0  0  0
  9 11  1  0  0  0  0
  1 13  1  0  0  0  0
  2 14  1  0  0  0  0
  3 15  1  0  0  0  0
  7 16  1  0  0  0  0
  7 17  1  0  0  0  0
  8 18  1  0  0  0  0
  8 19  1  0  0  0  0
  9 20  1  0  0  0  0
  9 21  1  0  0  0  0
 10 22  1  0  0  0  0
 11 23  1  0  0  0  0
M  END
> <id>
EN300-1904595

> <smiles>
OCCCC=1C=CC=C(O)C1Br

> <IUPAC Name>
2-bromo-3-(3-hydroxypropyl)phenol

> <CAS>
2228576-08-5

> <URL>
https://www.enaminestore.com/catalog/EN300-1904595

> <ROCS_ShapeQuery>
_x1604L0AP1_x0771L0AP1

> <ROCS_TanimotoCombo>
0.951 

> <ROCS_ShapeTanimoto>
0.461 

> <ROCS_ColorTanimoto>
0.490 

> <ROCS_RefTversky>
0.420 

> <ROCS_RefColorTversky>
0.542 

> <ROCS_RefTverskyCombo>
0.962 

> <ROCS_FitTversky>
1.270 

> <ROCS_FitColorTversky>
0.834 

> <ROCS_FitTverskyCombo>
2.104 

> <ROCS_ColorScore>
-5.160

> <ROCS_Overlap>
702.771

> <ROCS_Rank>
392                 

$$$$
untitled-dbase-1196_39
  -OEChem-06052310023D

 30 30  0     1  0  0  0  0  0999 V2000
   -6.3123   10.8898  -33.0728 C   0  0  0  0  0  0  0  0  0  0  0  0
   -5.5109   11.4284  -32.0662 C   0  0  0  0  0  0  0  0  0  0  0  0
   -7.4218   10.1125  -32.7401 C   0  0  0  0  0  0  0  0  0  0  0  0
   -5.8188   11.1896  -30.7269 C   0  0  0  0  0  0  0  0  0  0  0  0
   -6.9282   10.4123  -30.3941 C   0  0  0  0  0  0  0  0  0  0  0  0
   -7.7297    9.8738  -31.4007 C   0  0  0  0  0  0  0  0  0  0  0  0
   -6.0707    8.4956  -35.7792 C   0  0  0  0  0  0  0  0  0  0  0  0
   -3.9131   12.5044  -30.1833 C   0  0  0  0  0  0  0  0  0  0  0  0
   -8.2560    9.5551  -33.8658 C   0  0  0  0  0  0  0  0  0  0  0  0
   -7.9705    8.0785  -34.1758 C   0  0  0  0  0  0  0  0  0  0  0  0
   -6.5020    7.7817  -34.5044 C   0  0  1  0  0  0  0  0  0  0  0  0
   -7.2089   10.1933  -29.0766 O   0  0  0  0  0  0  0  0  0  0  0  0
   -6.3358    6.3784  -34.6842 O   0  0  0  0  0  0  0  0  0  0  0  0
   -5.0264   11.7226  -29.7552 O   0  0  0  0  0  0  0  0  0  0  0  0
   -9.2469    8.8219  -30.9376 Br  0  0  0  0  0  0  0  0  0  0  0  0
   -6.0634   11.0825  -34.1131 H   0  0  0  0  0  0  0  0  0  0  0  0
   -4.6488   12.0339  -32.3325 H   0  0  0  0  0  0  0  0  0  0  0  0
   -6.7001    8.2013  -36.6263 H   0  0  0  0  0  0  0  0  0  0  0  0
   -6.1218    9.5824  -35.6629 H   0  0  0  0  0  0  0  0  0  0  0  0
   -5.0430    8.2224  -36.0418 H   0  0  0  0  0  0  0  0  0  0  0  0
   -3.3657   12.8689  -29.3106 H   0  0  0  0  0  0  0  0  0  0  0  0
   -4.2673   13.3469  -30.7826 H   0  0  0  0  0  0  0  0  0  0  0  0
   -3.2528   11.8802  -30.7901 H   0  0  0  0  0  0  0  0  0  0  0  0
   -9.3227    9.6965  -33.6524 H   0  0  0  0  0  0  0  0  0  0  0  0
   -8.0566   10.1521  -34.7654 H   0  0  0  0  0  0  0  0  0  0  0  0
   -8.6079    7.7374  -35.0007 H   0  0  0  0  0  0  0  0  0  0  0  0
   -8.2581    7.5003  -33.2879 H   0  0  0  0  0  0  0  0  0  0  0  0
   -5.8545    8.0973  -33.6793 H   0  0  0  0  0  0  0  0  0  0  0  0
   -6.5537   10.6386  -28.5183 H   0  0  0  0  0  0  0  0  0  0  0  0
   -6.6187    5.9578  -33.8571 H   0  0  0  0  0  0  0  0  0  0  0  0
  1  2  1  0  0  0  0
  1  3  2  0  0  0  0
  2  4  2  0  0  0  0
  3  6  1  0  0  0  0
  3  9  1  0  0  0  0
  4  5  1  0  0  0  0
  4 14  1  0  0  0  0
  5  6  2  0  0  0  0
  5 12  1  0  0  0  0
  6 15  1  0  0  0  0
  7 11  1  0  0  0  0
  8 14  1  0  0  0  0
  9 10  1  0  0  0  0
 10 11  1  0  0  0  0
 11 13  1  0  0  0  0
  1 16  1  0  0  0  0
  2 17  1  0  0  0  0
  7 18  1  0  0  0  0
  7 19  1  0  0  0  0
  7 20  1  0  0  0  0
  8 21  1  0  0  0  0
  8 22  1  0  0  0  0
  8 23  1  0  0  0  0
  9 24  1  0  0  0  0
  9 25  1  0  0  0  0
 10 26  1  0  0  0  0
 10 27  1  0  0  0  0
 11 28  1  0  0  0  0
 12 29  1  0  0  0  0
 13 30  1  0  0  0  0
M  END
> <id>
EN300-1935902

> <smiles>
COC=1C=CC(CCC(C)O)=C(Br)C1O

> <IUPAC Name>
2-bromo-3-(3-hydroxybutyl)-6-methoxyphenol

> <CAS>
2228221-09-6

> <URL>
https://www.enaminestore.com/catalog/EN300-1935902

> <ROCS_ShapeQuery>
_x1604L0AP1_x0771L0AP1

> <ROCS_TanimotoCombo>
0.951 

> <ROCS_ShapeTanimoto>
0.499 

> <ROCS_ColorTanimoto>
0.451 

> <ROCS_RefTversky>
0.468 

> <ROCS_RefColorTversky>
0.543 

> <ROCS_RefTverskyCombo>
1.011 

> <ROCS_FitTversky>
1.156 

> <ROCS_FitColorTversky>
0.728 

> <ROCS_FitTverskyCombo>
1.884 

> <ROCS_ColorScore>
-5.193

> <ROCS_Overlap>
785.784

> <ROCS_Rank>
393                 

$$$$
untitled-dbase-1573_39
  -OEChem-06052310023D

 30 30  0     1  0  0  0  0  0999 V2000
   -6.3123   10.8898  -33.0728 C   0  0  0  0  0  0  0  0  0  0  0  0
   -5.5109   11.4284  -32.0662 C   0  0  0  0  0  0  0  0  0  0  0  0
   -7.4218   10.1125  -32.7401 C   0  0  0  0  0  0  0  0  0  0  0  0
   -5.8188   11.1896  -30.7269 C   0  0  0  0  0  0  0  0  0  0  0  0
   -6.9282   10.4123  -30.3941 C   0  0  0  0  0  0  0  0  0  0  0  0
   -7.7297    9.8738  -31.4007 C   0  0  0  0  0  0  0  0  0  0  0  0
   -6.0707    8.4956  -35.7792 C   0  0  0  0  0  0  0  0  0  0  0  0
   -3.9131   12.5044  -30.1833 C   0  0  0  0  0  0  0  0  0  0  0  0
   -8.2560    9.5551  -33.8658 C   0  0  0  0  0  0  0  0  0  0  0  0
   -7.9705    8.0785  -34.1758 C   0  0  0  0  0  0  0  0  0  0  0  0
   -6.5020    7.7817  -34.5044 C   0  0  1  0  0  0  0  0  0  0  0  0
   -7.2089   10.1933  -29.0766 O   0  0  0  0  0  0  0  0  0  0  0  0
   -6.3358    6.3784  -34.6842 O   0  0  0  0  0  0  0  0  0  0  0  0
   -5.0264   11.7226  -29.7552 O   0  0  0  0  0  0  0  0  0  0  0  0
   -9.2469    8.8219  -30.9376 Br  0  0  0  0  0  0  0  0  0  0  0  0
   -6.0634   11.0825  -34.1131 H   0  0  0  0  0  0  0  0  0  0  0  0
   -4.6488   12.0339  -32.3325 H   0  0  0  0  0  0  0  0  0  0  0  0
   -6.7001    8.2013  -36.6263 H   0  0  0  0  0  0  0  0  0  0  0  0
   -6.1218    9.5824  -35.6629 H   0  0  0  0  0  0  0  0  0  0  0  0
   -5.0430    8.2224  -36.0418 H   0  0  0  0  0  0  0  0  0  0  0  0
   -3.3657   12.8689  -29.3106 H   0  0  0  0  0  0  0  0  0  0  0  0
   -4.2673   13.3469  -30.7826 H   0  0  0  0  0  0  0  0  0  0  0  0
   -3.2528   11.8802  -30.7901 H   0  0  0  0  0  0  0  0  0  0  0  0
   -9.3227    9.6965  -33.6524 H   0  0  0  0  0  0  0  0  0  0  0  0
   -8.0566   10.1521  -34.7654 H   0  0  0  0  0  0  0  0  0  0  0  0
   -8.6079    7.7374  -35.0007 H   0  0  0  0  0  0  0  0  0  0  0  0
   -8.2581    7.5003  -33.2879 H   0  0  0  0  0  0  0  0  0  0  0  0
   -5.8545    8.0973  -33.6793 H   0  0  0  0  0  0  0  0  0  0  0  0
   -6.5537   10.6386  -28.5183 H   0  0  0  0  0  0  0  0  0  0  0  0
   -6.6187    5.9578  -33.8571 H   0  0  0  0  0  0  0  0  0  0  0  0
  1  2  1  0  0  0  0
  1  3  2  0  0  0  0
  2  4  2  0  0  0  0
  3  6  1  0  0  0  0
  3  9  1  0  0  0  0
  4  5  1  0  0  0  0
  4 14  1  0  0  0  0
  5  6  2  0  0  0  0
  5 12  1  0  0  0  0
  6 15  1  0  0  0  0
  7 11  1  6  0  0  0
  8 14  1  0  0  0  0
  9 10  1  0  0  0  0
 10 11  1  0  0  0  0
 11 13  1  0  0  0  0
  1 16  1  0  0  0  0
  2 17  1  0  0  0  0
  7 18  1  0  0  0  0
  7 19  1  0  0  0  0
  7 20  1  0  0  0  0
  8 21  1  0  0  0  0
  8 22  1  0  0  0  0
  8 23  1  0  0  0  0
  9 24  1  0  0  0  0
  9 25  1  0  0  0  0
 10 26  1  0  0  0  0
 10 27  1  0  0  0  0
 11 28  1  0  0  0  0
 12 29  1  0  0  0  0
 13 30  1  0  0  0  0
M  END
> <id>
EN300-1935904

> <smiles>
COC=1C=CC(CC[C@H](C)O)=C(Br)C1O

> <IUPAC Name>
2-bromo-3-[(3S)-3-hydroxybutyl]-6-methoxyphenol

> <CAS>
2227842-90-0

> <URL>
https://www.enaminestore.com/catalog/EN300-1935904

> <ROCS_ShapeQuery>
_x1604L0AP1_x0771L0AP1

> <ROCS_TanimotoCombo>
0.951 

> <ROCS_ShapeTanimoto>
0.499 

> <ROCS_ColorTanimoto>
0.451 

> <ROCS_RefTversky>
0.468 

> <ROCS_RefColorTversky>
0.543 

> <ROCS_RefTverskyCombo>
1.011 

> <ROCS_FitTversky>
1.156 

> <ROCS_FitColorTversky>
0.728 

> <ROCS_FitTverskyCombo>
1.884 

> <ROCS_ColorScore>
-5.193

> <ROCS_Overlap>
785.784

> <ROCS_Rank>
394                 

$$$$
untitled-dbase-272_29
  -OEChem-06052310023D

 20 20  0     0  0  0  0  0  0999 V2000
   -4.3220   12.6084  -34.1625 C   0  0  0  0  0  0  0  0  0  0  0  0
   -4.5771   12.4613  -29.8309 C   0  0  0  0  0  0  0  0  0  0  0  0
   -5.5625   11.7719  -29.1242 C   0  0  0  0  0  0  0  0  0  0  0  0
   -5.0487   11.1279  -31.7896 C   0  0  0  0  0  0  0  0  0  0  0  0
   -4.3202   12.1393  -31.1636 C   0  0  0  0  0  0  0  0  0  0  0  0
   -6.2910   10.7605  -29.7502 C   0  0  0  0  0  0  0  0  0  0  0  0
   -6.0341   10.4384  -31.0829 C   0  0  0  0  0  0  0  0  0  0  0  0
   -3.0976   12.4118  -33.3724 C   0  0  0  0  0  0  0  0  0  0  0  0
   -3.2663   12.8768  -31.9179 C   0  0  0  0  0  0  0  0  0  0  0  0
   -5.2872   12.7649  -34.7871 N   0  0  0  0  0  0  0  0  0  0  0  0
   -7.2460   10.1048  -29.0316 O   0  0  0  0  0  0  0  0  0  0  0  0
   -7.0034    9.0690  -31.9648 Br  0  0  0  0  0  0  0  0  0  0  0  0
   -4.0148   13.2477  -29.3340 H   0  0  0  0  0  0  0  0  0  0  0  0
   -5.7570   12.0284  -28.0862 H   0  0  0  0  0  0  0  0  0  0  0  0
   -4.8419   10.8838  -32.8294 H   0  0  0  0  0  0  0  0  0  0  0  0
   -2.8420   11.3455  -33.3800 H   0  0  0  0  0  0  0  0  0  0  0  0
   -2.2631   12.9411  -33.8472 H   0  0  0  0  0  0  0  0  0  0  0  0
   -3.5148   13.9505  -31.9301 H   0  0  0  0  0  0  0  0  0  0  0  0
   -2.2965   12.8100  -31.3982 H   0  0  0  0  0  0  0  0  0  0  0  0
   -7.6743    9.4308  -29.5818 H   0  0  0  0  0  0  0  0  0  0  0  0
  1  8  1  0  0  0  0
  1 10  3  0  0  0  0
  2  3  1  0  0  0  0
  2  5  2  0  0  0  0
  3  6  2  0  0  0  0
  4  5  1  0  0  0  0
  4  7  2  0  0  0  0
  5  9  1  0  0  0  0
  6  7  1  0  0  0  0
  6 11  1  0  0  0  0
  7 12  1  0  0  0  0
  8  9  1  0  0  0  0
  2 13  1  0  0  0  0
  3 14  1  0  0  0  0
  4 15  1  0  0  0  0
  8 16  1  0  0  0  0
  8 17  1  0  0  0  0
  9 18  1  0  0  0  0
  9 19  1  0  0  0  0
 11 20  1  0  0  0  0
M  END
> <id>
EN300-1896635

> <smiles>
OC=1C=CC(CCC#N)=CC1Br

> <MDLNUMBER>
MFCD28816995

> <IUPAC Name>
3-(3-bromo-4-hydroxyphenyl)propanenitrile

> <CAS>
29064-87-7

> <URL>
https://www.enaminestore.com/catalog/EN300-1896635

> <ROCS_ShapeQuery>
_x1604L0AP1_x0771L0AP1

> <ROCS_TanimotoCombo>
0.951 

> <ROCS_ShapeTanimoto>
0.454 

> <ROCS_ColorTanimoto>
0.497 

> <ROCS_RefTversky>
0.416 

> <ROCS_RefColorTversky>
0.515 

> <ROCS_RefTverskyCombo>
0.932 

> <ROCS_FitTversky>
1.249 

> <ROCS_FitColorTversky>
0.932 

> <ROCS_FitTverskyCombo>
2.181 

> <ROCS_ColorScore>
-4.879

> <ROCS_Overlap>
696.431

> <ROCS_Rank>
395                 

$$$$
untitled-dbase-259_18
  -OEChem-06052310023D

 21 21  0     1  0  0  0  0  0999 V2000
   -4.6170   12.4998  -29.8435 C   0  0  0  0  0  0  0  0  0  0  0  0
   -5.5850   11.7920  -29.1311 C   0  0  0  0  0  0  0  0  0  0  0  0
   -5.0809   11.1632  -31.8019 C   0  0  0  0  0  0  0  0  0  0  0  0
   -4.3650   12.1855  -31.1790 C   0  0  0  0  0  0  0  0  0  0  0  0
   -6.3009   10.7698  -29.7540 C   0  0  0  0  0  0  0  0  0  0  0  0
   -6.0489   10.4553  -31.0894 C   0  0  0  0  0  0  0  0  0  0  0  0
   -2.1862   13.4670  -31.0583 C   0  0  0  0  0  0  0  0  0  0  0  0
   -3.3297   12.9428  -31.9396 C   0  0  1  0  0  0  0  0  0  0  0  0
   -2.7635   12.1643  -33.0282 N   0  0  0  0  0  0  0  0  0  0  0  0
   -7.2390   10.0961  -29.0297 O   0  0  0  0  0  0  0  0  0  0  0  0
   -7.0014    9.0716  -31.9673 Br  0  0  0  0  0  0  0  0  0  0  0  0
   -4.0645   13.2946  -29.3490 H   0  0  0  0  0  0  0  0  0  0  0  0
   -5.7759   12.0427  -28.0909 H   0  0  0  0  0  0  0  0  0  0  0  0
   -4.8780   10.9253  -32.8439 H   0  0  0  0  0  0  0  0  0  0  0  0
   -1.6891   12.6411  -30.5378 H   0  0  0  0  0  0  0  0  0  0  0  0
   -1.4334   13.9938  -31.6555 H   0  0  0  0  0  0  0  0  0  0  0  0
   -2.5491   14.1730  -30.3028 H   0  0  0  0  0  0  0  0  0  0  0  0
   -3.7837   13.8214  -32.4312 H   0  0  0  0  0  0  0  0  0  0  0  0
   -3.4959   11.9099  -33.6515 H   0  0  0  0  0  0  0  0  0  0  0  0
   -2.0875   12.7221  -33.4989 H   0  0  0  0  0  0  0  0  0  0  0  0
   -7.2779   10.4457  -28.1260 H   0  0  0  0  0  0  0  0  0  0  0  0
  1  2  1  0  0  0  0
  1  4  2  0  0  0  0
  2  5  2  0  0  0  0
  3  4  1  0  0  0  0
  3  6  2  0  0  0  0
  4  8  1  0  0  0  0
  5  6  1  0  0  0  0
  5 10  1  0  0  0  0
  6 11  1  0  0  0  0
  7  8  1  1  0  0  0
  8  9  1  0  0  0  0
  1 12  1  0  0  0  0
  2 13  1  0  0  0  0
  3 14  1  0  0  0  0
  7 15  1  0  0  0  0
  7 16  1  0  0  0  0
  7 17  1  0  0  0  0
  8 18  1  0  0  0  0
  9 19  1  0  0  0  0
  9 20  1  0  0  0  0
 10 21  1  0  0  0  0
M  END
> <id>
EN300-1893536

> <smiles>
C[C@@H](N)C=1C=CC(O)=C(Br)C1

> <MDLNUMBER>
MFCD08057398

> <IUPAC Name>
4-[(1R)-1-aminoethyl]-2-bromophenol

> <CAS>
1213957-83-5

> <URL>
https://www.enaminestore.com/catalog/EN300-1893536

> <ROCS_ShapeQuery>
_x1604L0AP1_x0771L0AP1

> <ROCS_TanimotoCombo>
0.951 

> <ROCS_ShapeTanimoto>
0.500 

> <ROCS_ColorTanimoto>
0.451 

> <ROCS_RefTversky>
0.437 

> <ROCS_RefColorTversky>
0.513 

> <ROCS_RefTverskyCombo>
0.950 

> <ROCS_FitTversky>
1.404 

> <ROCS_FitColorTversky>
0.789 

> <ROCS_FitTverskyCombo>
2.193 

> <ROCS_ColorScore>
-4.877

> <ROCS_Overlap>
730.311

> <ROCS_Rank>
396                 

$$$$
untitled-dbase-1016_664
  -OEChem-06052310023D

 30 30  0     1  0  0  0  0  0999 V2000
   -4.2957   12.5428  -30.7672 C   0  0  0  0  0  0  0  0  0  0  0  0
   -5.0088   11.6727  -31.5918 C   0  0  0  0  0  0  0  0  0  0  0  0
   -4.5578   12.5777  -29.3976 C   0  0  0  0  0  0  0  0  0  0  0  0
   -5.9840   10.8375  -31.0468 C   0  0  0  0  0  0  0  0  0  0  0  0
   -6.2461   10.8723  -29.6772 C   0  0  0  0  0  0  0  0  0  0  0  0
   -5.5330   11.7425  -28.8526 C   0  0  0  0  0  0  0  0  0  0  0  0
   -6.2044    7.5124  -33.9232 C   0  0  0  0  0  0  0  0  0  0  0  0
   -4.7069    6.5034  -32.3970 C   0  0  0  0  0  0  0  0  0  0  0  0
   -6.8239    8.8350  -34.3091 C   0  0  0  0  0  0  0  0  0  0  0  0
   -6.3299   10.0012  -33.4469 C   0  0  0  0  0  0  0  0  0  0  0  0
   -6.7481    9.9002  -31.9618 C   0  0  2  0  0  0  0  0  0  0  0  0
   -8.1936   10.1428  -31.8525 N   0  0  0  0  0  0  0  0  0  0  0  0
   -6.4596    6.4480  -34.4716 O   0  0  0  0  0  0  0  0  0  0  0  0
   -7.2044   10.0502  -29.1592 O   0  0  0  0  0  0  0  0  0  0  0  0
   -5.3490    7.6894  -32.8757 O   0  0  0  0  0  0  0  0  0  0  0  0
   -5.8588   11.8189  -26.9866 Br  0  0  0  0  0  0  0  0  0  0  0  0
   -3.5360   13.1929  -31.1913 H   0  0  0  0  0  0  0  0  0  0  0  0
   -4.7966   11.6503  -32.6574 H   0  0  0  0  0  0  0  0  0  0  0  0
   -3.9915   13.2620  -28.7707 H   0  0  0  0  0  0  0  0  0  0  0  0
   -4.0479    6.7562  -31.5628 H   0  0  0  0  0  0  0  0  0  0  0  0
   -4.1300    6.0484  -33.2061 H   0  0  0  0  0  0  0  0  0  0  0  0
   -5.4696    5.7995  -32.0555 H   0  0  0  0  0  0  0  0  0  0  0  0
   -6.5525    9.0079  -35.3574 H   0  0  0  0  0  0  0  0  0  0  0  0
   -7.9174    8.7709  -34.2705 H   0  0  0  0  0  0  0  0  0  0  0  0
   -5.2424   10.1137  -33.5406 H   0  0  0  0  0  0  0  0  0  0  0  0
   -6.7708   10.9164  -33.8654 H   0  0  0  0  0  0  0  0  0  0  0  0
   -6.5781    8.8655  -31.6372 H   0  0  0  0  0  0  0  0  0  0  0  0
   -8.6533    9.4942  -32.4418 H   0  0  0  0  0  0  0  0  0  0  0  0
   -8.4500   10.0101  -30.9059 H   0  0  0  0  0  0  0  0  0  0  0  0
   -7.2753   10.1838  -28.2018 H   0  0  0  0  0  0  0  0  0  0  0  0
  1  2  1  0  0  0  0
  1  3  2  0  0  0  0
  2  4  2  0  0  0  0
  3  6  1  0  0  0  0
  4  5  1  0  0  0  0
  4 11  1  0  0  0  0
  5  6  2  0  0  0  0
  5 14  1  0  0  0  0
  6 16  1  0  0  0  0
  7  9  1  0  0  0  0
  7 13  2  0  0  0  0
  7 15  1  0  0  0  0
  8 15  1  0  0  0  0
  9 10  1  0  0  0  0
 10 11  1  0  0  0  0
 11 12  1  0  0  0  0
  1 17  1  0  0  0  0
  2 18  1  0  0  0  0
  3 19  1  0  0  0  0
  8 20  1  0  0  0  0
  8 21  1  0  0  0  0
  8 22  1  0  0  0  0
  9 23  1  0  0  0  0
  9 24  1  0  0  0  0
 10 25  1  0  0  0  0
 10 26  1  0  0  0  0
 11 27  1  0  0  0  0
 12 28  1  0  0  0  0
 12 29  1  0  0  0  0
 14 30  1  0  0  0  0
M  END
> <id>
EN300-1935210

> <smiles>
COC(=O)CCC(N)C=1C=CC=C(Br)C1O

> <IUPAC Name>
methyl 4-amino-4-(3-bromo-2-hydroxyphenyl)butanoate

> <CAS>
1823447-93-3

> <URL>
https://www.enaminestore.com/catalog/EN300-1935210

> <ROCS_ShapeQuery>
_x1604L0AP1_x0771L0AP1

> <ROCS_TanimotoCombo>
0.950 

> <ROCS_ShapeTanimoto>
0.554 

> <ROCS_ColorTanimoto>
0.396 

> <ROCS_RefTversky>
0.510 

> <ROCS_RefColorTversky>
0.495 

> <ROCS_RefTverskyCombo>
1.006 

> <ROCS_FitTversky>
1.184 

> <ROCS_FitColorTversky>
0.664 

> <ROCS_FitTverskyCombo>
1.849 

> <ROCS_ColorScore>
-4.739

> <ROCS_Overlap>
858.078

> <ROCS_Rank>
397                 

$$$$
untitled-dbase-1925_0
  -OEChem-06052310023D

 19 20  0     0  0  0  0  0  0999 V2000
   -7.4580    9.8255  -33.2397 C   0  0  0  0  0  0  0  0  0  0  0  0
   -7.3974    9.9038  -31.8481 C   0  0  0  0  0  0  0  0  0  0  0  0
   -4.4636   12.1285  -31.3747 C   0  0  0  0  0  0  0  0  0  0  0  0
   -6.5280   10.5091  -34.0173 C   0  0  0  0  0  0  0  0  0  0  0  0
   -4.4030   12.2067  -29.9831 C   0  0  0  0  0  0  0  0  0  0  0  0
   -6.4034   10.6686  -31.2160 C   0  0  0  0  0  0  0  0  0  0  0  0
   -5.4576   11.3637  -32.0068 C   0  0  0  0  0  0  0  0  0  0  0  0
   -6.3274   10.7587  -29.8166 C   0  0  0  0  0  0  0  0  0  0  0  0
   -5.5338   11.2736  -33.4062 C   0  0  0  0  0  0  0  0  0  0  0  0
   -5.3331   11.5231  -29.2055 C   0  0  0  0  0  0  0  0  0  0  0  0
   -7.2346   10.0925  -29.0388 O   0  0  0  0  0  0  0  0  0  0  0  0
   -4.3268   12.1555  -34.5932 Br  0  0  0  0  0  0  0  0  0  0  0  0
   -5.2111   11.6592  -27.3176 Br  0  0  0  0  0  0  0  0  0  0  0  0
   -8.2312    9.2297  -33.7161 H   0  0  0  0  0  0  0  0  0  0  0  0
   -8.1396    9.3560  -31.2721 H   0  0  0  0  0  0  0  0  0  0  0  0
   -3.7123   12.6823  -31.9297 H   0  0  0  0  0  0  0  0  0  0  0  0
   -6.5960   10.4317  -35.0997 H   0  0  0  0  0  0  0  0  0  0  0  0
   -3.6216   12.8069  -29.5237 H   0  0  0  0  0  0  0  0  0  0  0  0
   -7.0481   10.2550  -28.1029 H   0  0  0  0  0  0  0  0  0  0  0  0
  1  2  1  0  0  0  0
  1  4  2  0  0  0  0
  2  6  2  0  0  0  0
  3  5  2  0  0  0  0
  3  7  1  0  0  0  0
  4  9  1  0  0  0  0
  5 10  1  0  0  0  0
  6  7  1  0  0  0  0
  6  8  1  0  0  0  0
  7  9  2  0  0  0  0
  8 10  2  0  0  0  0
  8 11  1  0  0  0  0
  9 12  1  0  0  0  0
 10 13  1  0  0  0  0
  1 14  1  0  0  0  0
  2 15  1  0  0  0  0
  3 16  1  0  0  0  0
  4 17  1  0  0  0  0
  5 18  1  0  0  0  0
 11 19  1  0  0  0  0
M  END
> <id>
EN300-1144195

> <smiles>
OC=1C(Br)=CC=C2C(Br)=CC=CC12

> <MDLNUMBER>
MFCD31608349

> <IUPAC Name>
2,5-dibromonaphthalen-1-ol

> <CAS>
857091-24-8

> <URL>
https://www.enaminestore.com/catalog/EN300-1144195

> <ROCS_ShapeQuery>
_x1604L0AP1_x0771L0AP1

> <ROCS_TanimotoCombo>
0.950 

> <ROCS_ShapeTanimoto>
0.506 

> <ROCS_ColorTanimoto>
0.445 

> <ROCS_RefTversky>
0.461 

> <ROCS_RefColorTversky>
0.508 

> <ROCS_RefTverskyCombo>
0.969 

> <ROCS_FitTversky>
1.239 

> <ROCS_FitColorTversky>
0.781 

> <ROCS_FitTverskyCombo>
2.020 

> <ROCS_ColorScore>
-4.834

> <ROCS_Overlap>
772.358

> <ROCS_Rank>
398                 

$$$$
untitled-dbase-762_9
  -OEChem-06052310023D

 24 24  0     0  0  0  0  0  0999 V2000
   -5.0215   11.3433  -31.7664 C   0  0  0  0  0  0  0  0  0  0  0  0
   -4.5037   12.4662  -29.6907 C   0  0  0  0  0  0  0  0  0  0  0  0
   -6.0148   10.6074  -31.1205 C   0  0  0  0  0  0  0  0  0  0  0  0
   -6.2527   10.8008  -29.7597 C   0  0  0  0  0  0  0  0  0  0  0  0
   -4.2659   12.2727  -31.0515 C   0  0  0  0  0  0  0  0  0  0  0  0
   -5.4971   11.7302  -29.0448 C   0  0  0  0  0  0  0  0  0  0  0  0
   -6.1513    8.2105  -31.8901 C   0  0  0  0  0  0  0  0  0  0  0  0
   -8.2546    9.4712  -31.3438 C   0  0  0  0  0  0  0  0  0  0  0  0
   -6.8340    9.5903  -31.9261 C   0  0  0  0  0  0  0  0  0  0  0  0
   -6.9651    9.9779  -33.3253 N   0  0  0  0  0  0  0  0  0  0  0  0
   -7.2279   10.0729  -29.1420 O   0  0  0  0  0  0  0  0  0  0  0  0
   -3.0401   13.1805  -31.8490 Cl  0  0  0  0  0  0  0  0  0  0  0  0
   -5.7905   12.0212  -27.1944 Br  0  0  0  0  0  0  0  0  0  0  0  0
   -4.8394   11.1898  -32.8280 H   0  0  0  0  0  0  0  0  0  0  0  0
   -3.9120   13.1916  -29.1368 H   0  0  0  0  0  0  0  0  0  0  0  0
   -6.7262    7.4723  -32.4624 H   0  0  0  0  0  0  0  0  0  0  0  0
   -5.1484    8.2541  -32.3324 H   0  0  0  0  0  0  0  0  0  0  0  0
   -6.0467    7.8244  -30.8704 H   0  0  0  0  0  0  0  0  0  0  0  0
   -8.8523    8.7469  -31.9103 H   0  0  0  0  0  0  0  0  0  0  0  0
   -8.7819   10.4321  -31.3886 H   0  0  0  0  0  0  0  0  0  0  0  0
   -8.2500    9.1450  -30.2981 H   0  0  0  0  0  0  0  0  0  0  0  0
   -7.4219   10.8591  -33.3647 H   0  0  0  0  0  0  0  0  0  0  0  0
   -6.0554   10.0386  -33.7195 H   0  0  0  0  0  0  0  0  0  0  0  0
   -7.2785   10.3128  -28.2042 H   0  0  0  0  0  0  0  0  0  0  0  0
  1  3  2  0  0  0  0
  1  5  1  0  0  0  0
  2  5  2  0  0  0  0
  2  6  1  0  0  0  0
  3  4  1  0  0  0  0
  3  9  1  0  0  0  0
  4  6  2  0  0  0  0
  4 11  1  0  0  0  0
  5 12  1  0  0  0  0
  6 13  1  0  0  0  0
  7  9  1  0  0  0  0
  8  9  1  0  0  0  0
  9 10  1  0  0  0  0
  1 14  1  0  0  0  0
  2 15  1  0  0  0  0
  7 16  1  0  0  0  0
  7 17  1  0  0  0  0
  7 18  1  0  0  0  0
  8 19  1  0  0  0  0
  8 20  1  0  0  0  0
  8 21  1  0  0  0  0
 10 22  1  0  0  0  0
 10 23  1  0  0  0  0
 11 24  1  0  0  0  0
M  END
> <id>
EN300-1896882

> <smiles>
CC(C)(N)C=1C=C(Cl)C=C(Br)C1O

> <MDLNUMBER>
MFCD19696996

> <IUPAC Name>
2-(2-aminopropan-2-yl)-6-bromo-4-chlorophenol

> <CAS>
1314785-80-2

> <URL>
https://www.enaminestore.com/catalog/EN300-1896882

> <ROCS_ShapeQuery>
_x1604L0AP1_x0771L0AP1

> <ROCS_TanimotoCombo>
0.950 

> <ROCS_ShapeTanimoto>
0.544 

> <ROCS_ColorTanimoto>
0.406 

> <ROCS_RefTversky>
0.478 

> <ROCS_RefColorTversky>
0.504 

> <ROCS_RefTverskyCombo>
0.983 

> <ROCS_FitTversky>
1.336 

> <ROCS_FitColorTversky>
0.676 

> <ROCS_FitTverskyCombo>
2.012 

> <ROCS_ColorScore>
-4.826

> <ROCS_Overlap>
801.387

> <ROCS_Rank>
399                 

$$$$
untitled-dbase-2140_181
  -OEChem-06052310023D

 24 24  0     0  0  0  0  0  0999 V2000
   -4.4526   12.3841  -29.7411 C   0  0  0  0  0  0  0  0  0  0  0  0
   -6.1298   10.6262  -31.1121 C   0  0  0  0  0  0  0  0  0  0  0  0
   -6.2738   10.7966  -29.7351 C   0  0  0  0  0  0  0  0  0  0  0  0
   -5.1472   11.3348  -31.8035 C   0  0  0  0  0  0  0  0  0  0  0  0
   -4.3086   12.2137  -31.1180 C   0  0  0  0  0  0  0  0  0  0  0  0
   -5.4352   11.6755  -29.0496 C   0  0  0  0  0  0  0  0  0  0  0  0
   -7.0040    9.7010  -31.8539 C   0  0  0  0  0  0  0  0  0  0  0  0
   -6.3301    7.8721  -34.1834 C   0  0  0  0  0  0  0  0  0  0  0  0
   -7.3134   10.0240  -33.3144 C   0  0  0  0  0  0  0  0  0  0  0  0
   -6.3146    9.3890  -34.2823 C   0  0  0  0  0  0  0  0  0  0  0  0
   -7.4820    8.6907  -31.3342 O   0  0  0  0  0  0  0  0  0  0  0  0
   -7.2378   10.0962  -29.0689 O   0  0  0  0  0  0  0  0  0  0  0  0
   -5.0121   11.1697  -33.1284 F   0  0  0  0  0  0  0  0  0  0  0  0
   -3.0939   13.0910  -31.9650 Cl  0  0  0  0  0  0  0  0  0  0  0  0
   -5.5993   11.9340  -27.1785 Br  0  0  0  0  0  0  0  0  0  0  0  0
   -3.7974   13.0711  -29.2096 H   0  0  0  0  0  0  0  0  0  0  0  0
   -7.3289    7.4755  -34.3916 H   0  0  0  0  0  0  0  0  0  0  0  0
   -6.0419    7.5550  -33.1764 H   0  0  0  0  0  0  0  0  0  0  0  0
   -5.6275    7.4256  -34.8941 H   0  0  0  0  0  0  0  0  0  0  0  0
   -7.2916   11.1126  -33.4407 H   0  0  0  0  0  0  0  0  0  0  0  0
   -8.3192    9.6549  -33.5456 H   0  0  0  0  0  0  0  0  0  0  0  0
   -5.3030    9.7545  -34.0689 H   0  0  0  0  0  0  0  0  0  0  0  0
   -6.5497    9.6861  -35.3112 H   0  0  0  0  0  0  0  0  0  0  0  0
   -7.7277    9.5341  -29.6879 H   0  0  0  0  0  0  0  0  0  0  0  0
  1  5  1  0  0  0  0
  1  6  2  0  0  0  0
  2  3  2  0  0  0  0
  2  4  1  0  0  0  0
  2  7  1  0  0  0  0
  3  6  1  0  0  0  0
  3 12  1  0  0  0  0
  4  5  2  0  0  0  0
  4 13  1  0  0  0  0
  5 14  1  0  0  0  0
  6 15  1  0  0  0  0
  7  9  1  0  0  0  0
  7 11  2  0  0  0  0
  8 10  1  0  0  0  0
  9 10  1  0  0  0  0
  1 16  1  0  0  0  0
  8 17  1  0  0  0  0
  8 18  1  0  0  0  0
  8 19  1  0  0  0  0
  9 20  1  0  0  0  0
  9 21  1  0  0  0  0
 10 22  1  0  0  0  0
 10 23  1  0  0  0  0
 12 24  1  0  0  0  0
M  END
> <id>
EN300-1276753

> <smiles>
CCCC(=O)C=1C(O)=C(Br)C=C(Cl)C1F

> <IUPAC Name>
1-(3-bromo-5-chloro-6-fluoro-2-hydroxyphenyl)butan-1-one

> <CAS>
1702124-30-8

> <URL>
https://www.enaminestore.com/catalog/EN300-1276753

> <ROCS_ShapeQuery>
_x1604L0AP1_x0771L0AP1

> <ROCS_TanimotoCombo>
0.950 

> <ROCS_ShapeTanimoto>
0.621 

> <ROCS_ColorTanimoto>
0.329 

> <ROCS_RefTversky>
0.540 

> <ROCS_RefColorTversky>
0.409 

> <ROCS_RefTverskyCombo>
0.948 

> <ROCS_FitTversky>
1.320 

> <ROCS_FitColorTversky>
0.628 

> <ROCS_FitTverskyCombo>
1.948 

> <ROCS_ColorScore>
-3.887

> <ROCS_Overlap>
906.920

> <ROCS_Rank>
400                 

$$$$
untitled-dbase-1237_32
  -OEChem-06052310023D

 21 21  0     0  0  0  0  0  0999 V2000
   -4.3009   12.1956  -31.1298 C   0  0  0  0  0  0  0  0  0  0  0  0
   -5.0514   11.2163  -31.7805 C   0  0  0  0  0  0  0  0  0  0  0  0
   -4.5346   12.4732  -29.7830 C   0  0  0  0  0  0  0  0  0  0  0  0
   -6.0358   10.5148  -31.0844 C   0  0  0  0  0  0  0  0  0  0  0  0
   -6.2695   10.7925  -29.7375 C   0  0  0  0  0  0  0  0  0  0  0  0
   -5.5189   11.7717  -29.0868 C   0  0  0  0  0  0  0  0  0  0  0  0
   -7.0343    9.7629  -33.2795 C   0  0  0  0  0  0  0  0  0  0  0  0
   -6.8285    9.4713  -31.8006 C   0  0  0  0  0  0  0  0  0  0  0  0
   -6.5481    8.7179  -34.2435 C   0  0  0  0  0  0  0  0  0  0  0  0
   -7.5654   10.7961  -33.6844 O   0  0  0  0  0  0  0  0  0  0  0  0
   -7.2371   10.0987  -29.0705 O   0  0  0  0  0  0  0  0  0  0  0  0
   -5.9911    7.6600  -33.6024 F   0  0  0  0  0  0  0  0  0  0  0  0
   -7.5504    8.2272  -35.0154 F   0  0  0  0  0  0  0  0  0  0  0  0
   -5.6068    9.2107  -35.0869 F   0  0  0  0  0  0  0  0  0  0  0  0
   -5.8055   12.1777  -27.2573 Br  0  0  0  0  0  0  0  0  0  0  0  0
   -3.5341   12.7415  -31.6716 H   0  0  0  0  0  0  0  0  0  0  0  0
   -4.8611   11.0047  -32.8293 H   0  0  0  0  0  0  0  0  0  0  0  0
   -3.9394   13.2395  -29.2927 H   0  0  0  0  0  0  0  0  0  0  0  0
   -6.3333    8.4920  -31.7159 H   0  0  0  0  0  0  0  0  0  0  0  0
   -7.8210    9.3629  -31.3373 H   0  0  0  0  0  0  0  0  0  0  0  0
   -7.2856   10.3972  -28.1496 H   0  0  0  0  0  0  0  0  0  0  0  0
  1  2  1  0  0  0  0
  1  3  2  0  0  0  0
  2  4  2  0  0  0  0
  3  6  1  0  0  0  0
  4  5  1  0  0  0  0
  4  8  1  0  0  0  0
  5  6  2  0  0  0  0
  5 11  1  0  0  0  0
  6 15  1  0  0  0  0
  7  8  1  0  0  0  0
  7  9  1  0  0  0  0
  7 10  2  0  0  0  0
  9 12  1  0  0  0  0
  9 13  1  0  0  0  0
  9 14  1  0  0  0  0
  1 16  1  0  0  0  0
  2 17  1  0  0  0  0
  3 18  1  0  0  0  0
  8 19  1  0  0  0  0
  8 20  1  0  0  0  0
 11 21  1  0  0  0  0
M  END
> <id>
EN300-1957648

> <smiles>
OC=1C(Br)=CC=CC1CC(=O)C(F)(F)F

> <IUPAC Name>
3-(3-bromo-2-hydroxyphenyl)-1,1,1-trifluoropropan-2-one

> <CAS>
2229318-21-0

> <URL>
https://www.enaminestore.com/catalog/EN300-1957648

> <ROCS_ShapeQuery>
_x1604L0AP1_x0771L0AP1

> <ROCS_TanimotoCombo>
0.950 

> <ROCS_ShapeTanimoto>
0.591 

> <ROCS_ColorTanimoto>
0.359 

> <ROCS_RefTversky>
0.527 

> <ROCS_RefColorTversky>
0.411 

> <ROCS_RefTverskyCombo>
0.938 

> <ROCS_FitTversky>
1.255 

> <ROCS_FitColorTversky>
0.742 

> <ROCS_FitTverskyCombo>
1.997 

> <ROCS_ColorScore>
-3.886

> <ROCS_Overlap>
886.525

> <ROCS_Rank>
401                 

$$$$
untitled-dbase-1020_87
  -OEChem-06052310023D

 27 27  0     0  0  0  0  0  0999 V2000
   -4.3736   12.0117  -31.3652 C   0  0  0  0  0  0  0  0  0  0  0  0
   -5.4054   11.2911  -31.9665 C   0  0  0  0  0  0  0  0  0  0  0  0
   -4.3014   12.0981  -29.9748 C   0  0  0  0  0  0  0  0  0  0  0  0
   -6.3652   10.6571  -31.1775 C   0  0  0  0  0  0  0  0  0  0  0  0
   -6.2931   10.7435  -29.7872 C   0  0  0  0  0  0  0  0  0  0  0  0
   -5.2611   11.4641  -29.1858 C   0  0  0  0  0  0  0  0  0  0  0  0
   -7.4723    9.8847  -31.8481 C   0  0  0  0  0  0  0  0  0  0  0  0
   -6.9878    8.5231  -32.3524 C   0  0  0  0  0  0  0  0  0  0  0  0
   -5.8339    8.6807  -33.3471 C   0  0  0  0  0  0  0  0  0  0  0  0
   -5.3156    7.3417  -33.8613 C   0  0  0  0  0  0  0  0  0  0  0  0
   -6.3367    6.5755  -34.5207 N   0  0  0  0  0  0  0  0  0  0  0  0
   -7.2404   10.1191  -29.0289 O   0  0  0  0  0  0  0  0  0  0  0  0
   -5.1276   11.6044  -27.3000 Br  0  0  0  0  0  0  0  0  0  0  0  0
   -3.6259   12.5050  -31.9794 H   0  0  0  0  0  0  0  0  0  0  0  0
   -5.4527   11.2269  -33.0503 H   0  0  0  0  0  0  0  0  0  0  0  0
   -3.4897   12.6638  -29.5242 H   0  0  0  0  0  0  0  0  0  0  0  0
   -7.8748   10.4751  -32.6812 H   0  0  0  0  0  0  0  0  0  0  0  0
   -8.3032    9.7536  -31.1433 H   0  0  0  0  0  0  0  0  0  0  0  0
   -7.8161    7.9882  -32.8340 H   0  0  0  0  0  0  0  0  0  0  0  0
   -6.6667    7.9087  -31.5023 H   0  0  0  0  0  0  0  0  0  0  0  0
   -6.1772    9.2736  -34.2036 H   0  0  0  0  0  0  0  0  0  0  0  0
   -5.0156    9.2382  -32.8749 H   0  0  0  0  0  0  0  0  0  0  0  0
   -4.9517    6.7359  -33.0255 H   0  0  0  0  0  0  0  0  0  0  0  0
   -4.4904    7.4792  -34.5670 H   0  0  0  0  0  0  0  0  0  0  0  0
   -5.9483    5.7148  -34.8503 H   0  0  0  0  0  0  0  0  0  0  0  0
   -7.0768    6.3817  -33.8765 H   0  0  0  0  0  0  0  0  0  0  0  0
   -7.0626   10.2654  -28.0874 H   0  0  0  0  0  0  0  0  0  0  0  0
  1  2  1  0  0  0  0
  1  3  2  0  0  0  0
  2  4  2  0  0  0  0
  3  6  1  0  0  0  0
  4  5  1  0  0  0  0
  4  7  1  0  0  0  0
  5  6  2  0  0  0  0
  5 12  1  0  0  0  0
  6 13  1  0  0  0  0
  7  8  1  0  0  0  0
  8  9  1  0  0  0  0
  9 10  1  0  0  0  0
 10 11  1  0  0  0  0
  1 14  1  0  0  0  0
  2 15  1  0  0  0  0
  3 16  1  0  0  0  0
  7 17  1  0  0  0  0
  7 18  1  0  0  0  0
  8 19  1  0  0  0  0
  8 20  1  0  0  0  0
  9 21  1  0  0  0  0
  9 22  1  0  0  0  0
 10 23  1  0  0  0  0
 10 24  1  0  0  0  0
 11 25  1  0  0  0  0
 11 26  1  0  0  0  0
 12 27  1  0  0  0  0
M  END
> <id>
EN300-1923459

> <smiles>
NCCCCC=1C=CC=C(Br)C1O

> <IUPAC Name>
2-(4-aminobutyl)-6-bromophenol

> <CAS>
1897086-11-1

> <URL>
https://www.enaminestore.com/catalog/EN300-1923459

> <ROCS_ShapeQuery>
_x1604L0AP1_x0771L0AP1

> <ROCS_TanimotoCombo>
0.950 

> <ROCS_ShapeTanimoto>
0.502 

> <ROCS_ColorTanimoto>
0.447 

> <ROCS_RefTversky>
0.452 

> <ROCS_RefColorTversky>
0.510 

> <ROCS_RefTverskyCombo>
0.962 

> <ROCS_FitTversky>
1.285 

> <ROCS_FitColorTversky>
0.785 

> <ROCS_FitTverskyCombo>
2.069 

> <ROCS_ColorScore>
-4.853

> <ROCS_Overlap>
757.115

> <ROCS_Rank>
402                 

$$$$
untitled-dbase-488_24
  -OEChem-06052310023D

 18 18  0     0  0  0  0  0  0999 V2000
   -4.5617   12.4551  -29.8678 C   0  0  0  0  0  0  0  0  0  0  0  0
   -5.0550   11.1070  -31.8111 C   0  0  0  0  0  0  0  0  0  0  0  0
   -5.5444   11.7763  -29.1474 C   0  0  0  0  0  0  0  0  0  0  0  0
   -6.2824   10.7628  -29.7588 C   0  0  0  0  0  0  0  0  0  0  0  0
   -4.3170   12.1205  -31.1997 C   0  0  0  0  0  0  0  0  0  0  0  0
   -6.0377   10.4282  -31.0907 C   0  0  0  0  0  0  0  0  0  0  0  0
   -5.5327   13.6088  -27.4184 C   0  0  0  0  0  0  0  0  0  0  0  0
   -5.7902   12.1504  -27.7225 C   0  0  0  0  0  0  0  0  0  0  0  0
   -5.1066   14.4255  -28.2283 O   0  0  0  0  0  0  0  0  0  0  0  0
   -7.2406   10.1080  -29.0407 O   0  0  0  0  0  0  0  0  0  0  0  0
   -3.1043   12.9587  -32.0883 Cl  0  0  0  0  0  0  0  0  0  0  0  0
   -7.0200    9.0568  -31.9564 Br  0  0  0  0  0  0  0  0  0  0  0  0
   -3.9879   13.2447  -29.3871 H   0  0  0  0  0  0  0  0  0  0  0  0
   -4.8614   10.8495  -32.8501 H   0  0  0  0  0  0  0  0  0  0  0  0
   -5.7569   13.9190  -26.3830 H   0  0  0  0  0  0  0  0  0  0  0  0
   -5.1548   11.5559  -27.0502 H   0  0  0  0  0  0  0  0  0  0  0  0
   -6.8299   11.9327  -27.4381 H   0  0  0  0  0  0  0  0  0  0  0  0
   -7.6678    9.4350  -29.5921 H   0  0  0  0  0  0  0  0  0  0  0  0
  1  3  2  0  0  0  0
  1  5  1  0  0  0  0
  2  5  2  0  0  0  0
  2  6  1  0  0  0  0
  3  4  1  0  0  0  0
  3  8  1  0  0  0  0
  4  6  2  0  0  0  0
  4 10  1  0  0  0  0
  5 11  1  0  0  0  0
  6 12  1  0  0  0  0
  7  8  1  0  0  0  0
  7  9  2  0  0  0  0
  1 13  1  0  0  0  0
  2 14  1  0  0  0  0
  7 15  1  0  0  0  0
  8 16  1  0  0  0  0
  8 17  1  0  0  0  0
 10 18  1  0  0  0  0
M  END
> <id>
EN300-1922893

> <smiles>
OC=1C(Br)=CC(Cl)=CC1CC=O

> <IUPAC Name>
2-(3-bromo-5-chloro-2-hydroxyphenyl)acetaldehyde

> <CAS>
1782613-72-2

> <URL>
https://www.enaminestore.com/catalog/EN300-1922893

> <ROCS_ShapeQuery>
_x1604L0AP1_x0771L0AP1

> <ROCS_TanimotoCombo>
0.950 

> <ROCS_ShapeTanimoto>
0.453 

> <ROCS_ColorTanimoto>
0.497 

> <ROCS_RefTversky>
0.415 

> <ROCS_RefColorTversky>
0.516 

> <ROCS_RefTverskyCombo>
0.931 

> <ROCS_FitTversky>
1.248 

> <ROCS_FitColorTversky>
0.932 

> <ROCS_FitTverskyCombo>
2.181 

> <ROCS_ColorScore>
-4.880

> <ROCS_Overlap>
694.818

> <ROCS_Rank>
403                 

$$$$
untitled-dbase-1671_200
  -OEChem-06052310023D

 25 25  0     0  0  0  0  0  0999 V2000
   -4.2207   12.0828  -31.2209 C   0  0  0  0  0  0  0  0  0  0  0  0
   -4.9578   11.0743  -31.8414 C   0  0  0  0  0  0  0  0  0  0  0  0
   -4.4839   12.4235  -29.8941 C   0  0  0  0  0  0  0  0  0  0  0  0
   -5.9583   10.4065  -31.1352 C   0  0  0  0  0  0  0  0  0  0  0  0
   -6.2216   10.7472  -29.8085 C   0  0  0  0  0  0  0  0  0  0  0  0
   -5.4844   11.7557  -29.1879 C   0  0  0  0  0  0  0  0  0  0  0  0
   -7.9995    9.0967  -31.4739 C   0  0  0  0  0  0  0  0  0  0  0  0
   -6.7240    9.3394  -31.8216 C   0  0  0  0  0  0  0  0  0  0  0  0
   -6.0296    8.5055  -32.8771 C   0  0  0  0  0  0  0  0  0  0  0  0
   -6.9324    7.3968  -33.4263 C   0  0  0  0  0  0  0  0  0  0  0  0
   -6.2279    6.6331  -34.4507 N   0  0  0  0  0  0  0  0  0  0  0  0
   -7.2032   10.0903  -29.1223 O   0  0  0  0  0  0  0  0  0  0  0  0
   -5.8090   12.2478  -27.3857 Br  0  0  0  0  0  0  0  0  0  0  0  0
   -3.4415   12.6033  -31.7698 H   0  0  0  0  0  0  0  0  0  0  0  0
   -4.7391   10.8197  -32.8759 H   0  0  0  0  0  0  0  0  0  0  0  0
   -3.8987   13.2118  -29.4273 H   0  0  0  0  0  0  0  0  0  0  0  0
   -8.5957    8.3252  -31.9508 H   0  0  0  0  0  0  0  0  0  0  0  0
   -8.4890    9.6777  -30.6985 H   0  0  0  0  0  0  0  0  0  0  0  0
   -5.6725    9.1446  -33.6938 H   0  0  0  0  0  0  0  0  0  0  0  0
   -5.1258    8.0480  -32.4511 H   0  0  0  0  0  0  0  0  0  0  0  0
   -7.2402    6.7212  -32.6198 H   0  0  0  0  0  0  0  0  0  0  0  0
   -7.8404    7.8200  -33.8690 H   0  0  0  0  0  0  0  0  0  0  0  0
   -5.4312    6.2124  -34.0335 H   0  0  0  0  0  0  0  0  0  0  0  0
   -6.8458    5.9400  -34.8024 H   0  0  0  0  0  0  0  0  0  0  0  0
   -7.2656   10.4371  -28.2198 H   0  0  0  0  0  0  0  0  0  0  0  0
  1  2  1  0  0  0  0
  1  3  2  0  0  0  0
  2  4  2  0  0  0  0
  3  6  1  0  0  0  0
  4  5  1  0  0  0  0
  4  8  1  0  0  0  0
  5  6  2  0  0  0  0
  5 12  1  0  0  0  0
  6 13  1  0  0  0  0
  7  8  2  0  0  0  0
  8  9  1  0  0  0  0
  9 10  1  0  0  0  0
 10 11  1  0  0  0  0
  1 14  1  0  0  0  0
  2 15  1  0  0  0  0
  3 16  1  0  0  0  0
  7 17  1  0  0  0  0
  7 18  1  0  0  0  0
  9 19  1  0  0  0  0
  9 20  1  0  0  0  0
 10 21  1  0  0  0  0
 10 22  1  0  0  0  0
 11 23  1  0  0  0  0
 11 24  1  0  0  0  0
 12 25  1  0  0  0  0
M  END
> <id>
EN300-1923468

> <smiles>
NCCC(=C)C=1C=CC=C(Br)C1O

> <IUPAC Name>
2-(4-aminobut-1-en-2-yl)-6-bromophenol

> <CAS>
2228177-60-2

> <URL>
https://www.enaminestore.com/catalog/EN300-1923468

> <ROCS_ShapeQuery>
_x1604L0AP1_x0771L0AP1

> <ROCS_TanimotoCombo>
0.950 

> <ROCS_ShapeTanimoto>
0.504 

> <ROCS_ColorTanimoto>
0.445 

> <ROCS_RefTversky>
0.455 

> <ROCS_RefColorTversky>
0.538 

> <ROCS_RefTverskyCombo>
0.993 

> <ROCS_FitTversky>
1.272 

> <ROCS_FitColorTversky>
0.721 

> <ROCS_FitTverskyCombo>
1.994 

> <ROCS_ColorScore>
-5.147

> <ROCS_Overlap>
762.259

> <ROCS_Rank>
404                 

$$$$
untitled-dbase-816_0
  -OEChem-06052310023D

 14 14  0     0  0  0  0  0  0999 V2000
   -5.5643   11.7789  -29.1354 C   0  0  0  0  0  0  0  0  0  0  0  0
   -4.5841   12.4703  -29.8473 C   0  0  0  0  0  0  0  0  0  0  0  0
   -5.0584   11.1307  -31.8012 C   0  0  0  0  0  0  0  0  0  0  0  0
   -6.2915   10.7633  -29.7563 C   0  0  0  0  0  0  0  0  0  0  0  0
   -4.3312   12.1462  -31.1802 C   0  0  0  0  0  0  0  0  0  0  0  0
   -6.0385   10.4392  -31.0892 C   0  0  0  0  0  0  0  0  0  0  0  0
   -7.2407   10.1052  -29.0324 O   0  0  0  0  0  0  0  0  0  0  0  0
   -3.0782   13.0291  -32.0891 S   0  0  0  0  0  0  0  0  0  0  0  0
   -7.0081    9.0658  -31.9648 Br  0  0  0  0  0  0  0  0  0  0  0  0
   -5.7553   12.0358  -28.0971 H   0  0  0  0  0  0  0  0  0  0  0  0
   -4.0276   13.2581  -29.3457 H   0  0  0  0  0  0  0  0  0  0  0  0
   -4.8621   10.8770  -32.8413 H   0  0  0  0  0  0  0  0  0  0  0  0
   -7.6687    9.4285  -29.5795 H   0  0  0  0  0  0  0  0  0  0  0  0
   -2.6967   13.8512  -31.0998 H   0  0  0  0  0  0  0  0  0  0  0  0
  1  2  1  0  0  0  0
  1  4  2  0  0  0  0
  2  5  2  0  0  0  0
  3  5  1  0  0  0  0
  3  6  2  0  0  0  0
  4  6  1  0  0  0  0
  4  7  1  0  0  0  0
  5  8  1  0  0  0  0
  6  9  1  0  0  0  0
  1 10  1  0  0  0  0
  2 11  1  0  0  0  0
  3 12  1  0  0  0  0
  7 13  1  0  0  0  0
  8 14  1  0  0  0  0
M  END
> <id>
EN300-1893696

> <smiles>
OC=1C=CC(S)=CC1Br

> <MDLNUMBER>
MFCD22481684

> <IUPAC Name>
2-bromo-4-sulfanylphenol

> <CAS>
1361253-65-7

> <URL>
https://www.enaminestore.com/catalog/EN300-1893696

> <ROCS_ShapeQuery>
_x1604L0AP1_x0771L0AP1

> <ROCS_TanimotoCombo>
0.949 

> <ROCS_ShapeTanimoto>
0.453 

> <ROCS_ColorTanimoto>
0.497 

> <ROCS_RefTversky>
0.393 

> <ROCS_RefColorTversky>
0.515 

> <ROCS_RefTverskyCombo>
0.908 

> <ROCS_FitTversky>
1.509 

> <ROCS_FitColorTversky>
0.932 

> <ROCS_FitTverskyCombo>
2.441 

> <ROCS_ColorScore>
-4.879

> <ROCS_Overlap>
654.384

> <ROCS_Rank>
405                 

$$$$
untitled-dbase-374_216
  -OEChem-06052310023D

 24 24  0     0  0  0  0  0  0999 V2000
   -4.6233   12.5072  -29.8438 C   0  0  0  0  0  0  0  0  0  0  0  0
   -5.5895   11.7970  -29.1313 C   0  0  0  0  0  0  0  0  0  0  0  0
   -5.0851   11.1702  -31.8025 C   0  0  0  0  0  0  0  0  0  0  0  0
   -4.3712   12.1938  -31.1795 C   0  0  0  0  0  0  0  0  0  0  0  0
   -6.3034   10.7734  -29.7543 C   0  0  0  0  0  0  0  0  0  0  0  0
   -6.0513   10.4600  -31.0899 C   0  0  0  0  0  0  0  0  0  0  0  0
   -2.3636   10.8719  -33.8615 C   0  0  0  0  0  0  0  0  0  0  0  0
   -3.3266   12.9618  -31.9485 C   0  0  0  0  0  0  0  0  0  0  0  0
   -1.9465   10.9027  -32.4109 C   0  0  0  0  0  0  0  0  0  0  0  0
   -1.9463   12.3131  -31.8303 C   0  0  0  0  0  0  0  0  0  0  0  0
   -3.4590   11.2282  -34.2820 O   0  0  0  0  0  0  0  0  0  0  0  0
   -7.2397   10.0975  -29.0298 O   0  0  0  0  0  0  0  0  0  0  0  0
   -7.0011    9.0745  -31.9678 Br  0  0  0  0  0  0  0  0  0  0  0  0
   -4.0723   13.3029  -29.3493 H   0  0  0  0  0  0  0  0  0  0  0  0
   -5.7805   12.0469  -28.0910 H   0  0  0  0  0  0  0  0  0  0  0  0
   -4.8821   10.9330  -32.8447 H   0  0  0  0  0  0  0  0  0  0  0  0
   -1.5951   10.4936  -34.5576 H   0  0  0  0  0  0  0  0  0  0  0  0
   -3.2910   13.9956  -31.5818 H   0  0  0  0  0  0  0  0  0  0  0  0
   -3.6254   13.0265  -33.0026 H   0  0  0  0  0  0  0  0  0  0  0  0
   -2.6387   10.2606  -31.8558 H   0  0  0  0  0  0  0  0  0  0  0  0
   -0.9456   10.4625  -32.3470 H   0  0  0  0  0  0  0  0  0  0  0  0
   -1.6368   12.2781  -30.7778 H   0  0  0  0  0  0  0  0  0  0  0  0
   -1.1981   12.9258  -32.3496 H   0  0  0  0  0  0  0  0  0  0  0  0
   -7.6595    9.4168  -29.5784 H   0  0  0  0  0  0  0  0  0  0  0  0
  1  2  1  0  0  0  0
  1  4  2  0  0  0  0
  2  5  2  0  0  0  0
  3  4  1  0  0  0  0
  3  6  2  0  0  0  0
  4  8  1  0  0  0  0
  5  6  1  0  0  0  0
  5 12  1  0  0  0  0
  6 13  1  0  0  0  0
  7  9  1  0  0  0  0
  7 11  2  0  0  0  0
  8 10  1  0  0  0  0
  9 10  1  0  0  0  0
  1 14  1  0  0  0  0
  2 15  1  0  0  0  0
  3 16  1  0  0  0  0
  7 17  1  0  0  0  0
  8 18  1  0  0  0  0
  8 19  1  0  0  0  0
  9 20  1  0  0  0  0
  9 21  1  0  0  0  0
 10 22  1  0  0  0  0
 10 23  1  0  0  0  0
 12 24  1  0  0  0  0
M  END
> <id>
EN300-1906693

> <smiles>
OC=1C=CC(CCCC=O)=CC1Br

> <IUPAC Name>
4-(3-bromo-4-hydroxyphenyl)butanal

> <CAS>
2228163-92-4

> <URL>
https://www.enaminestore.com/catalog/EN300-1906693

> <ROCS_ShapeQuery>
_x1604L0AP1_x0771L0AP1

> <ROCS_TanimotoCombo>
0.949 

> <ROCS_ShapeTanimoto>
0.453 

> <ROCS_ColorTanimoto>
0.496 

> <ROCS_RefTversky>
0.422 

> <ROCS_RefColorTversky>
0.515 

> <ROCS_RefTverskyCombo>
0.937 

> <ROCS_FitTversky>
1.191 

> <ROCS_FitColorTversky>
0.931 

> <ROCS_FitTverskyCombo>
2.122 

> <ROCS_ColorScore>
-4.876

> <ROCS_Overlap>
706.980

> <ROCS_Rank>
406                 

$$$$
untitled-dbase-2200_13
  -OEChem-06052310023D

 23 23  0     0  0  0  0  0  0999 V2000
   -4.9546   11.1413  -31.7193 C   0  0  0  0  0  0  0  0  0  0  0  0
   -4.6429   12.5748  -29.7996 C   0  0  0  0  0  0  0  0  0  0  0  0
   -5.9396   10.4333  -31.0307 C   0  0  0  0  0  0  0  0  0  0  0  0
   -6.2762   10.7961  -29.7266 C   0  0  0  0  0  0  0  0  0  0  0  0
   -4.3062   12.2120  -31.1037 C   0  0  0  0  0  0  0  0  0  0  0  0
   -5.6279   11.8668  -29.1110 C   0  0  0  0  0  0  0  0  0  0  0  0
   -6.6751    8.8746  -33.9801 C   0  0  0  0  0  0  0  0  0  0  0  0
   -7.2766    9.6772  -32.8462 C   0  0  0  0  0  0  0  0  0  0  0  0
   -2.2132   13.7693  -31.0097 O   0  0  0  0  0  0  0  0  0  0  0  0
   -2.5399   12.2884  -33.0463 O   0  0  0  0  0  0  0  0  0  0  0  0
   -7.2424   10.0912  -29.0697 O   0  0  0  0  0  0  0  0  0  0  0  0
   -6.5643    9.3898  -31.6446 O   0  0  0  0  0  0  0  0  0  0  0  0
   -3.0732   13.0979  -31.9662 S   0  0  0  0  0  0  0  0  0  0  0  0
   -4.1550   14.5699  -32.8898 Cl  0  0  0  0  0  0  0  0  0  0  0  0
   -6.0579   12.3896  -27.3402 Br  0  0  0  0  0  0  0  0  0  0  0  0
   -4.6952   10.8553  -32.7357 H   0  0  0  0  0  0  0  0  0  0  0  0
   -4.1330   13.4108  -29.3262 H   0  0  0  0  0  0  0  0  0  0  0  0
   -5.6232    9.1348  -34.1272 H   0  0  0  0  0  0  0  0  0  0  0  0
   -6.7485    7.8015  -33.7748 H   0  0  0  0  0  0  0  0  0  0  0  0
   -7.2182    9.0579  -34.9131 H   0  0  0  0  0  0  0  0  0  0  0  0
   -8.3286    9.4122  -32.7044 H   0  0  0  0  0  0  0  0  0  0  0  0
   -7.2018   10.7491  -33.0526 H   0  0  0  0  0  0  0  0  0  0  0  0
   -7.5857    9.3862  -29.6396 H   0  0  0  0  0  0  0  0  0  0  0  0
  1  3  2  0  0  0  0
  1  5  1  0  0  0  0
  2  5  2  0  0  0  0
  2  6  1  0  0  0  0
  3  4  1  0  0  0  0
  3 12  1  0  0  0  0
  4  6  2  0  0  0  0
  4 11  1  0  0  0  0
  5 13  1  0  0  0  0
  6 15  1  0  0  0  0
  7  8  1  0  0  0  0
  8 12  1  0  0  0  0
  9 13  2  0  0  0  0
 10 13  2  0  0  0  0
 13 14  1  0  0  0  0
  1 16  1  0  0  0  0
  2 17  1  0  0  0  0
  7 18  1  0  0  0  0
  7 19  1  0  0  0  0
  7 20  1  0  0  0  0
  8 21  1  0  0  0  0
  8 22  1  0  0  0  0
 11 23  1  0  0  0  0
M  END
> <id>
EN300-6493329

> <smiles>
CCOC=1C=C(C=C(Br)C1O)S(=O)(=O)Cl

> <IUPAC Name>
3-bromo-5-ethoxy-4-hydroxybenzene-1-sulfonyl chloride

> <CAS>
2247107-99-7

> <URL>
https://www.enaminestore.com/catalog/EN300-6493329

> <ROCS_ShapeQuery>
_x1604L0AP1_x0771L0AP1

> <ROCS_TanimotoCombo>
0.949 

> <ROCS_ShapeTanimoto>
0.590 

> <ROCS_ColorTanimoto>
0.359 

> <ROCS_RefTversky>
0.518 

> <ROCS_RefColorTversky>
0.410 

> <ROCS_RefTverskyCombo>
0.929 

> <ROCS_FitTversky>
1.306 

> <ROCS_FitColorTversky>
0.742 

> <ROCS_FitTverskyCombo>
2.048 

> <ROCS_ColorScore>
-3.886

> <ROCS_Overlap>
869.952

> <ROCS_Rank>
407                 

$$$$
untitled-dbase-227_0
  -OEChem-06052310023D

 17 17  0     0  0  0  0  0  0999 V2000
   -5.7778   12.1455  -27.7778 C   0  0  0  0  0  0  0  0  0  0  0  0
   -4.5723   12.4731  -29.8685 C   0  0  0  0  0  0  0  0  0  0  0  0
   -5.0657   11.1235  -31.8108 C   0  0  0  0  0  0  0  0  0  0  0  0
   -5.5481   11.7880  -29.1446 C   0  0  0  0  0  0  0  0  0  0  0  0
   -4.3311   12.1409  -31.2017 C   0  0  0  0  0  0  0  0  0  0  0  0
   -6.2827   10.7707  -29.7537 C   0  0  0  0  0  0  0  0  0  0  0  0
   -6.0415   10.4384  -31.0869 C   0  0  0  0  0  0  0  0  0  0  0  0
   -3.2879   12.8740  -31.9754 C   0  0  0  0  0  0  0  0  0  0  0  0
   -5.9641   12.4355  -26.6697 N   0  0  0  0  0  0  0  0  0  0  0  0
   -7.2387   10.1046  -29.0409 O   0  0  0  0  0  0  0  0  0  0  0  0
   -7.0163    9.0608  -31.9513 Br  0  0  0  0  0  0  0  0  0  0  0  0
   -3.9963   13.2691  -29.4002 H   0  0  0  0  0  0  0  0  0  0  0  0
   -4.8698   10.8709  -32.8505 H   0  0  0  0  0  0  0  0  0  0  0  0
   -2.3165   12.3747  -31.8749 H   0  0  0  0  0  0  0  0  0  0  0  0
   -3.5445   12.9245  -33.0415 H   0  0  0  0  0  0  0  0  0  0  0  0
   -3.1852   13.9090  -31.6241 H   0  0  0  0  0  0  0  0  0  0  0  0
   -7.6587    9.4320  -29.5974 H   0  0  0  0  0  0  0  0  0  0  0  0
  1  4  1  0  0  0  0
  1  9  3  0  0  0  0
  2  4  2  0  0  0  0
  2  5  1  0  0  0  0
  3  5  2  0  0  0  0
  3  7  1  0  0  0  0
  4  6  1  0  0  0  0
  5  8  1  0  0  0  0
  6  7  2  0  0  0  0
  6 10  1  0  0  0  0
  7 11  1  0  0  0  0
  2 12  1  0  0  0  0
  3 13  1  0  0  0  0
  8 14  1  0  0  0  0
  8 15  1  0  0  0  0
  8 16  1  0  0  0  0
 10 17  1  0  0  0  0
M  END
> <id>
EN300-1615109

> <smiles>
CC=1C=C(Br)C(O)=C(C#N)C1

> <MDLNUMBER>
MFCD08457443

> <IUPAC Name>
3-bromo-2-hydroxy-5-methylbenzonitrile

> <CAS>
1032506-48-1

> <URL>
https://www.enaminestore.com/catalog/EN300-1615109

> <ROCS_ShapeQuery>
_x1604L0AP1_x0771L0AP1

> <ROCS_TanimotoCombo>
0.949 

> <ROCS_ShapeTanimoto>
0.452 

> <ROCS_ColorTanimoto>
0.497 

> <ROCS_RefTversky>
0.410 

> <ROCS_RefColorTversky>
0.516 

> <ROCS_RefTverskyCombo>
0.925 

> <ROCS_FitTversky>
1.297 

> <ROCS_FitColorTversky>
0.932 

> <ROCS_FitTverskyCombo>
2.230 

> <ROCS_ColorScore>
-4.882

> <ROCS_Overlap>
684.479

> <ROCS_Rank>
408                 

$$$$
untitled-dbase-173_77
  -OEChem-06052310023D

 24 24  0     0  0  0  0  0  0999 V2000
   -5.0620   11.1324  -31.8027 C   0  0  0  0  0  0  0  0  0  0  0  0
   -5.5671   11.7802  -29.1367 C   0  0  0  0  0  0  0  0  0  0  0  0
   -4.3364   12.1495  -31.1826 C   0  0  0  0  0  0  0  0  0  0  0  0
   -6.2928   10.7630  -29.7568 C   0  0  0  0  0  0  0  0  0  0  0  0
   -4.5889   12.4734  -29.8496 C   0  0  0  0  0  0  0  0  0  0  0  0
   -6.0402   10.4392  -31.0898 C   0  0  0  0  0  0  0  0  0  0  0  0
   -3.3127   12.8532  -31.9747 C   0  0  0  0  0  0  0  0  0  0  0  0
   -3.4495   11.5901  -34.7335 C   0  0  0  0  0  0  0  0  0  0  0  0
   -3.7636   13.5913  -33.2337 C   0  0  0  0  0  0  0  0  0  0  0  0
   -3.1014   13.0516  -34.5016 C   0  0  0  0  0  0  0  0  0  0  0  0
   -2.1234   12.8615  -31.6512 O   0  0  0  0  0  0  0  0  0  0  0  0
   -7.2417   10.1040  -29.0332 O   0  0  0  0  0  0  0  0  0  0  0  0
   -3.7133   13.7254  -29.0451 Cl  0  0  0  0  0  0  0  0  0  0  0  0
   -7.0074    9.0623  -31.9635 Br  0  0  0  0  0  0  0  0  0  0  0  0
   -4.8611   10.8831  -32.8427 H   0  0  0  0  0  0  0  0  0  0  0  0
   -5.7707   12.0257  -28.0968 H   0  0  0  0  0  0  0  0  0  0  0  0
   -4.5327   11.4525  -34.8115 H   0  0  0  0  0  0  0  0  0  0  0  0
   -3.0884   10.9778  -33.9014 H   0  0  0  0  0  0  0  0  0  0  0  0
   -2.9883   11.2183  -35.6539 H   0  0  0  0  0  0  0  0  0  0  0  0
   -3.5121   14.6523  -33.1223 H   0  0  0  0  0  0  0  0  0  0  0  0
   -4.8507   13.4869  -33.3262 H   0  0  0  0  0  0  0  0  0  0  0  0
   -2.0123   13.1561  -34.4281 H   0  0  0  0  0  0  0  0  0  0  0  0
   -3.4195   13.6407  -35.3700 H   0  0  0  0  0  0  0  0  0  0  0  0
   -7.6682    9.4263  -29.5802 H   0  0  0  0  0  0  0  0  0  0  0  0
  1  3  2  0  0  0  0
  1  6  1  0  0  0  0
  2  4  1  0  0  0  0
  2  5  2  0  0  0  0
  3  5  1  0  0  0  0
  3  7  1  0  0  0  0
  4  6  2  0  0  0  0
  4 12  1  0  0  0  0
  5 13  1  0  0  0  0
  6 14  1  0  0  0  0
  7  9  1  0  0  0  0
  7 11  2  0  0  0  0
  8 10  1  0  0  0  0
  9 10  1  0  0  0  0
  1 15  1  0  0  0  0
  2 16  1  0  0  0  0
  8 17  1  0  0  0  0
  8 18  1  0  0  0  0
  8 19  1  0  0  0  0
  9 20  1  0  0  0  0
  9 21  1  0  0  0  0
 10 22  1  0  0  0  0
 10 23  1  0  0  0  0
 12 24  1  0  0  0  0
M  END
> <id>
EN300-1276759

> <smiles>
CCCC(=O)C=1C=C(Br)C(O)=CC1Cl

> <IUPAC Name>
1-(5-bromo-2-chloro-4-hydroxyphenyl)butan-1-one

> <CAS>
2163722-30-1

> <URL>
https://www.enaminestore.com/catalog/EN300-1276759

> <ROCS_ShapeQuery>
_x1604L0AP1_x0771L0AP1

> <ROCS_TanimotoCombo>
0.949 

> <ROCS_ShapeTanimoto>
0.498 

> <ROCS_ColorTanimoto>
0.451 

> <ROCS_RefTversky>
0.458 

> <ROCS_RefColorTversky>
0.513 

> <ROCS_RefTverskyCombo>
0.971 

> <ROCS_FitTversky>
1.211 

> <ROCS_FitColorTversky>
0.789 

> <ROCS_FitTverskyCombo>
2.000 

> <ROCS_ColorScore>
-4.879

> <ROCS_Overlap>
768.585

> <ROCS_Rank>
409                 

$$$$
untitled-dbase-950_15
  -OEChem-06052310023D

 22 22  0     0  0  0  0  0  0999 V2000
   -2.9865   15.3554  -31.0146 C   0  0  0  0  0  0  0  0  0  0  0  0
   -3.1020   14.2324  -31.4238 C   0  0  0  0  0  0  0  0  0  0  0  0
   -4.5579   12.4459  -29.8323 C   0  0  0  0  0  0  0  0  0  0  0  0
   -5.0414   11.1153  -31.7900 C   0  0  0  0  0  0  0  0  0  0  0  0
   -4.3051   12.1218  -31.1652 C   0  0  0  0  0  0  0  0  0  0  0  0
   -5.5470   11.7634  -29.1241 C   0  0  0  0  0  0  0  0  0  0  0  0
   -6.2833   10.7568  -29.7489 C   0  0  0  0  0  0  0  0  0  0  0  0
   -6.0305   10.4327  -31.0818 C   0  0  0  0  0  0  0  0  0  0  0  0
   -6.7535   13.1071  -27.5767 C   0  0  0  0  0  0  0  0  0  0  0  0
   -3.2481   12.8524  -31.9223 C   0  0  0  0  0  0  0  0  0  0  0  0
   -7.2473   10.1013  -29.0398 O   0  0  0  0  0  0  0  0  0  0  0  0
   -5.7828   12.0917  -27.8231 O   0  0  0  0  0  0  0  0  0  0  0  0
   -7.0105    9.0710  -31.9647 Br  0  0  0  0  0  0  0  0  0  0  0  0
   -2.8845   16.3512  -30.6513 H   0  0  0  0  0  0  0  0  0  0  0  0
   -3.9855   13.2305  -29.3432 H   0  0  0  0  0  0  0  0  0  0  0  0
   -4.8371   10.8700  -32.8299 H   0  0  0  0  0  0  0  0  0  0  0  0
   -6.8445   13.2717  -26.5002 H   0  0  0  0  0  0  0  0  0  0  0  0
   -7.7167   12.8001  -27.9918 H   0  0  0  0  0  0  0  0  0  0  0  0
   -6.4298   14.0328  -28.0584 H   0  0  0  0  0  0  0  0  0  0  0  0
   -3.4827   12.8778  -32.9984 H   0  0  0  0  0  0  0  0  0  0  0  0
   -2.2794   12.3334  -31.8439 H   0  0  0  0  0  0  0  0  0  0  0  0
   -7.2909   10.4497  -28.1363 H   0  0  0  0  0  0  0  0  0  0  0  0
  1  2  3  0  0  0  0
  2 10  1  0  0  0  0
  3  5  1  0  0  0  0
  3  6  2  0  0  0  0
  4  5  2  0  0  0  0
  4  8  1  0  0  0  0
  5 10  1  0  0  0  0
  6  7  1  0  0  0  0
  6 12  1  0  0  0  0
  7  8  2  0  0  0  0
  7 11  1  0  0  0  0
  8 13  1  0  0  0  0
  9 12  1  0  0  0  0
  1 14  1  0  0  0  0
  3 15  1  0  0  0  0
  4 16  1  0  0  0  0
  9 17  1  0  0  0  0
  9 18  1  0  0  0  0
  9 19  1  0  0  0  0
 10 20  1  0  0  0  0
 10 21  1  0  0  0  0
 11 22  1  0  0  0  0
M  END
> <id>
EN300-1927015

> <smiles>
COC=1C=C(CC#C)C=C(Br)C1O

> <IUPAC Name>
2-bromo-6-methoxy-4-(prop-2-yn-1-yl)phenol

> <CAS>
2228268-92-4

> <URL>
https://www.enaminestore.com/catalog/EN300-1927015

> <ROCS_ShapeQuery>
_x1604L0AP1_x0771L0AP1

> <ROCS_TanimotoCombo>
0.949 

> <ROCS_ShapeTanimoto>
0.498 

> <ROCS_ColorTanimoto>
0.451 

> <ROCS_RefTversky>
0.453 

> <ROCS_RefColorTversky>
0.513 

> <ROCS_RefTverskyCombo>
0.966 

> <ROCS_FitTversky>
1.250 

> <ROCS_FitColorTversky>
0.789 

> <ROCS_FitTverskyCombo>
2.039 

> <ROCS_ColorScore>
-4.881

> <ROCS_Overlap>
758.801

> <ROCS_Rank>
410                 

$$$$
untitled-dbase-422_0
  -OEChem-06052310023D

 15 15  0     0  0  0  0  0  0999 V2000
   -5.9781   12.4490  -26.6292 C   0  0  0  0  0  0  0  0  0  0  0  0
   -5.7823   12.1482  -27.7751 C   0  0  0  0  0  0  0  0  0  0  0  0
   -4.5689   12.4729  -29.8617 C   0  0  0  0  0  0  0  0  0  0  0  0
   -5.0585   11.1243  -31.8056 C   0  0  0  0  0  0  0  0  0  0  0  0
   -5.5484   11.7896  -29.1410 C   0  0  0  0  0  0  0  0  0  0  0  0
   -6.2829   10.7737  -29.7525 C   0  0  0  0  0  0  0  0  0  0  0  0
   -4.3240   12.1402  -31.1941 C   0  0  0  0  0  0  0  0  0  0  0  0
   -6.0380   10.4410  -31.0849 C   0  0  0  0  0  0  0  0  0  0  0  0
   -7.2411   10.1076  -29.0426 O   0  0  0  0  0  0  0  0  0  0  0  0
   -3.1155   12.9833  -32.0834 Cl  0  0  0  0  0  0  0  0  0  0  0  0
   -7.0141    9.0663  -31.9524 Br  0  0  0  0  0  0  0  0  0  0  0  0
   -6.1514   12.7154  -25.6128 H   0  0  0  0  0  0  0  0  0  0  0  0
   -3.9942   13.2657  -29.3867 H   0  0  0  0  0  0  0  0  0  0  0  0
   -4.8647   10.8682  -32.8449 H   0  0  0  0  0  0  0  0  0  0  0  0
   -7.6605    9.4360  -29.6009 H   0  0  0  0  0  0  0  0  0  0  0  0
  1  2  3  0  0  0  0
  2  5  1  0  0  0  0
  3  5  2  0  0  0  0
  3  7  1  0  0  0  0
  4  7  2  0  0  0  0
  4  8  1  0  0  0  0
  5  6  1  0  0  0  0
  6  8  2  0  0  0  0
  6  9  1  0  0  0  0
  7 10  1  0  0  0  0
  8 11  1  0  0  0  0
  1 12  1  0  0  0  0
  3 13  1  0  0  0  0
  4 14  1  0  0  0  0
  9 15  1  0  0  0  0
M  END
> <id>
EN300-1913784

> <smiles>
OC=1C(Br)=CC(Cl)=CC1C#C

> <MDLNUMBER>
MFCD08703568

> <IUPAC Name>
2-bromo-4-chloro-6-ethynylphenol

> <CAS>
1057670-16-2

> <URL>
https://www.enaminestore.com/catalog/EN300-1913784

> <ROCS_ShapeQuery>
_x1604L0AP1_x0771L0AP1

> <ROCS_TanimotoCombo>
0.949 

> <ROCS_ShapeTanimoto>
0.452 

> <ROCS_ColorTanimoto>
0.497 

> <ROCS_RefTversky>
0.408 

> <ROCS_RefColorTversky>
0.516 

> <ROCS_RefTverskyCombo>
0.924 

> <ROCS_FitTversky>
1.310 

> <ROCS_FitColorTversky>
0.932 

> <ROCS_FitTverskyCombo>
2.242 

> <ROCS_ColorScore>
-4.882

> <ROCS_Overlap>
681.868

> <ROCS_Rank>
411                 

$$$$
untitled-dbase-302_79
  -OEChem-06052310023D

 23 23  0     1  0  0  0  0  0999 V2000
   -4.3227   12.0716  -31.2931 C   0  0  0  0  0  0  0  0  0  0  0  0
   -4.9716   10.9685  -31.8477 C   0  0  0  0  0  0  0  0  0  0  0  0
   -4.6500   12.4992  -30.0063 C   0  0  0  0  0  0  0  0  0  0  0  0
   -5.9480   10.2930  -31.1155 C   0  0  0  0  0  0  0  0  0  0  0  0
   -6.2753   10.7205  -29.8288 C   0  0  0  0  0  0  0  0  0  0  0  0
   -5.6263   11.8236  -29.2742 C   0  0  0  0  0  0  0  0  0  0  0  0
   -6.6312    9.1151  -31.7288 C   0  0  0  0  0  0  0  0  0  0  0  0
   -6.1278    8.8073  -33.1503 C   0  0  2  0  0  0  0  0  0  0  0  0
   -6.7967    9.6831  -34.1925 C   0  0  0  0  0  0  0  0  0  0  0  0
   -7.2339   10.0502  -29.1256 O   0  0  0  0  0  0  0  0  0  0  0  0
   -6.4197    7.4443  -33.4534 O   0  0  0  0  0  0  0  0  0  0  0  0
   -6.3817    9.3528  -35.4355 F   0  0  0  0  0  0  0  0  0  0  0  0
   -6.4957   10.9858  -33.9983 F   0  0  0  0  0  0  0  0  0  0  0  0
   -8.1405    9.5593  -34.1587 F   0  0  0  0  0  0  0  0  0  0  0  0
   -6.0419   12.4351  -27.5285 Br  0  0  0  0  0  0  0  0  0  0  0  0
   -3.5621   12.5974  -31.8629 H   0  0  0  0  0  0  0  0  0  0  0  0
   -4.7087   10.6407  -32.8499 H   0  0  0  0  0  0  0  0  0  0  0  0
   -4.1331   13.3605  -29.5907 H   0  0  0  0  0  0  0  0  0  0  0  0
   -7.7184    9.2990  -31.7515 H   0  0  0  0  0  0  0  0  0  0  0  0
   -6.4927    8.2266  -31.0892 H   0  0  0  0  0  0  0  0  0  0  0  0
   -5.0412    8.9393  -33.2074 H   0  0  0  0  0  0  0  0  0  0  0  0
   -7.3535   10.4578  -28.2545 H   0  0  0  0  0  0  0  0  0  0  0  0
   -6.0906    7.2858  -34.3514 H   0  0  0  0  0  0  0  0  0  0  0  0
  1  2  1  0  0  0  0
  1  3  2  0  0  0  0
  2  4  2  0  0  0  0
  3  6  1  0  0  0  0
  4  5  1  0  0  0  0
  4  7  1  0  0  0  0
  5  6  2  0  0  0  0
  5 10  1  0  0  0  0
  6 15  1  0  0  0  0
  7  8  1  0  0  0  0
  8  9  1  0  0  0  0
  8 11  1  0  0  0  0
  9 12  1  0  0  0  0
  9 13  1  0  0  0  0
  9 14  1  0  0  0  0
  1 16  1  0  0  0  0
  2 17  1  0  0  0  0
  3 18  1  0  0  0  0
  7 19  1  0  0  0  0
  7 20  1  0  0  0  0
  8 21  1  0  0  0  0
 10 22  1  0  0  0  0
 11 23  1  0  0  0  0
M  END
> <id>
EN300-1957653

> <smiles>
OC(CC=1C=CC=C(Br)C1O)C(F)(F)F

> <IUPAC Name>
2-bromo-6-(3,3,3-trifluoro-2-hydroxypropyl)phenol

> <CAS>
2228312-78-3

> <URL>
https://www.enaminestore.com/catalog/EN300-1957653

> <ROCS_ShapeQuery>
_x1604L0AP1_x0771L0AP1

> <ROCS_TanimotoCombo>
0.949 

> <ROCS_ShapeTanimoto>
0.594 

> <ROCS_ColorTanimoto>
0.355 

> <ROCS_RefTversky>
0.528 

> <ROCS_RefColorTversky>
0.432 

> <ROCS_RefTverskyCombo>
0.961 

> <ROCS_FitTversky>
1.264 

> <ROCS_FitColorTversky>
0.665 

> <ROCS_FitTverskyCombo>
1.929 

> <ROCS_ColorScore>
-4.114

> <ROCS_Overlap>
887.696

> <ROCS_Rank>
412                 

$$$$
untitled-dbase-89_0
  -OEChem-06052310023D

 13 13  0     0  0  0  0  0  0999 V2000
   -4.3484   12.1507  -31.2124 C   0  0  0  0  0  0  0  0  0  0  0  0
   -5.0764   11.1297  -31.8232 C   0  0  0  0  0  0  0  0  0  0  0  0
   -5.5640   11.7875  -29.1563 C   0  0  0  0  0  0  0  0  0  0  0  0
   -6.2920   10.7665  -29.7671 C   0  0  0  0  0  0  0  0  0  0  0  0
   -4.5921   12.4796  -29.8789 C   0  0  0  0  0  0  0  0  0  0  0  0
   -6.0482   10.4376  -31.1006 C   0  0  0  0  0  0  0  0  0  0  0  0
   -7.2348   10.1088  -29.0343 O   0  0  0  0  0  0  0  0  0  0  0  0
   -3.6062   13.8632  -29.0511 Br  0  0  0  0  0  0  0  0  0  0  0  0
   -7.0164    9.0547  -31.9622 Br  0  0  0  0  0  0  0  0  0  0  0  0
   -3.5953   12.6802  -31.7903 H   0  0  0  0  0  0  0  0  0  0  0  0
   -4.8720   10.8873  -32.8629 H   0  0  0  0  0  0  0  0  0  0  0  0
   -5.7602   12.0365  -28.1160 H   0  0  0  0  0  0  0  0  0  0  0  0
   -7.6638    9.4281  -29.5755 H   0  0  0  0  0  0  0  0  0  0  0  0
  1  2  1  0  0  0  0
  1  5  2  0  0  0  0
  2  6  2  0  0  0  0
  3  4  2  0  0  0  0
  3  5  1  0  0  0  0
  4  6  1  0  0  0  0
  4  7  1  0  0  0  0
  5  8  1  0  0  0  0
  6  9  1  0  0  0  0
  1 10  1  0  0  0  0
  2 11  1  0  0  0  0
  3 12  1  0  0  0  0
  7 13  1  0  0  0  0
M  END
> <id>
EN300-92071

> <smiles>
OC=1C=C(Br)C=CC1Br

> <MDLNUMBER>
MFCD01851373

> <IUPAC Name>
2,5-dibromophenol

> <CAS>
28165-52-8

> <Purity>
95

> <URL>
https://www.enaminestore.com/catalog/EN300-92071

> <MP>
72-73

> <ROCS_ShapeQuery>
_x1604L0AP1_x0771L0AP1

> <ROCS_TanimotoCombo>
0.949 

> <ROCS_ShapeTanimoto>
0.452 

> <ROCS_ColorTanimoto>
0.497 

> <ROCS_RefTversky>
0.392 

> <ROCS_RefColorTversky>
0.515 

> <ROCS_RefTverskyCombo>
0.907 

> <ROCS_FitTversky>
1.514 

> <ROCS_FitColorTversky>
0.932 

> <ROCS_FitTverskyCombo>
2.446 

> <ROCS_ColorScore>
-4.878

> <ROCS_Overlap>
653.071

> <ROCS_Rank>
413                 

$$$$
untitled-dbase-1516_62
  -OEChem-06052310023D

 32 33  0     0  0  0  0  0  0999 V2000
   -4.3149   12.2594  -31.0796 C   0  0  0  0  0  0  0  0  0  0  0  0
   -4.7679   11.0347  -31.5699 C   0  0  0  0  0  0  0  0  0  0  0  0
   -4.8432   12.7753  -29.8961 C   0  0  0  0  0  0  0  0  0  0  0  0
   -5.7492   10.3259  -30.8769 C   0  0  0  0  0  0  0  0  0  0  0  0
   -6.2775   10.8418  -29.6935 C   0  0  0  0  0  0  0  0  0  0  0  0
   -5.8245   12.0665  -29.2031 C   0  0  0  0  0  0  0  0  0  0  0  0
   -5.2537    8.4208  -33.7571 C   0  0  0  0  0  0  0  0  0  0  0  0
   -7.6998    7.8939  -33.2483 C   0  0  0  0  0  0  0  0  0  0  0  0
   -5.1189    8.2273  -32.2448 C   0  0  0  0  0  0  0  0  0  0  0  0
   -7.5139    9.0975  -32.3277 C   0  0  0  0  0  0  0  0  0  0  0  0
   -6.5658    7.8190  -34.2751 C   0  0  0  0  0  0  0  0  0  0  0  0
   -6.2362    8.9738  -31.4382 C   0  0  0  0  0  0  0  0  0  0  0  0
   -6.5931    8.0947  -30.3026 N   0  0  0  0  0  0  0  0  0  0  0  0
   -7.2382   10.1373  -29.0278 O   0  0  0  0  0  0  0  0  0  0  0  0
   -6.3749    6.4480  -34.6175 O   0  0  0  0  0  0  0  0  0  0  0  0
   -6.5165   12.8008  -27.5982 Br  0  0  0  0  0  0  0  0  0  0  0  0
   -3.5505   12.8112  -31.6188 H   0  0  0  0  0  0  0  0  0  0  0  0
   -4.3491   10.6390  -32.4914 H   0  0  0  0  0  0  0  0  0  0  0  0
   -4.4774   13.7311  -29.5293 H   0  0  0  0  0  0  0  0  0  0  0  0
   -5.2230    9.4849  -34.0002 H   0  0  0  0  0  0  0  0  0  0  0  0
   -4.4068    7.9695  -34.2783 H   0  0  0  0  0  0  0  0  0  0  0  0
   -7.7468    6.9652  -32.6739 H   0  0  0  0  0  0  0  0  0  0  0  0
   -8.6572    7.9698  -33.7705 H   0  0  0  0  0  0  0  0  0  0  0  0
   -5.1349    7.1617  -32.0110 H   0  0  0  0  0  0  0  0  0  0  0  0
   -4.1407    8.6011  -31.9333 H   0  0  0  0  0  0  0  0  0  0  0  0
   -7.4433    9.9987  -32.9406 H   0  0  0  0  0  0  0  0  0  0  0  0
   -8.3983    9.2137  -31.6995 H   0  0  0  0  0  0  0  0  0  0  0  0
   -6.8740    8.3434  -35.1951 H   0  0  0  0  0  0  0  0  0  0  0  0
   -5.7833    7.9705  -29.7443 H   0  0  0  0  0  0  0  0  0  0  0  0
   -7.3137    8.5385  -29.7863 H   0  0  0  0  0  0  0  0  0  0  0  0
   -7.5081   10.6155  -28.2291 H   0  0  0  0  0  0  0  0  0  0  0  0
   -7.2301    6.1195  -34.9370 H   0  0  0  0  0  0  0  0  0  0  0  0
  1  2  1  0  0  0  0
  1  3  2  0  0  0  0
  2  4  2  0  0  0  0
  3  6  1  0  0  0  0
  4  5  1  0  0  0  0
  4 12  1  0  0  0  0
  5  6  2  0  0  0  0
  5 14  1  0  0  0  0
  6 16  1  0  0  0  0
  7  9  1  0  0  0  0
  7 11  1  0  0  0  0
  8 10  1  0  0  0  0
  8 11  1  0  0  0  0
  9 12  1  0  0  0  0
 10 12  1  0  0  0  0
 11 15  1  0  0  0  0
 12 13  1  0  0  0  0
  1 17  1  0  0  0  0
  2 18  1  0  0  0  0
  3 19  1  0  0  0  0
  7 20  1  0  0  0  0
  7 21  1  0  0  0  0
  8 22  1  0  0  0  0
  8 23  1  0  0  0  0
  9 24  1  0  0  0  0
  9 25  1  0  0  0  0
 10 26  1  0  0  0  0
 10 27  1  0  0  0  0
 11 28  1  0  0  0  0
 13 29  1  0  0  0  0
 13 30  1  0  0  0  0
 14 31  1  0  0  0  0
 15 32  1  0  0  0  0
M  END
> <id>
EN300-1923776

> <smiles>
NC1(CCC(O)CC1)C=2C=CC=C(Br)C2O

> <IUPAC Name>
2-(1-amino-4-hydroxycyclohexyl)-6-bromophenol

> <CAS>
2228739-46-4

> <URL>
https://www.enaminestore.com/catalog/EN300-1923776

> <ROCS_ShapeQuery>
_x1604L0AP1_x0771L0AP1

> <ROCS_TanimotoCombo>
0.948 

> <ROCS_ShapeTanimoto>
0.493 

> <ROCS_ColorTanimoto>
0.456 

> <ROCS_RefTversky>
0.475 

> <ROCS_RefColorTversky>
0.606 

> <ROCS_RefTverskyCombo>
1.081 

> <ROCS_FitTversky>
1.081 

> <ROCS_FitColorTversky>
0.648 

> <ROCS_FitTverskyCombo>
1.729 

> <ROCS_ColorScore>
-5.856

> <ROCS_Overlap>
799.167

> <ROCS_Rank>
414                 

$$$$
untitled-dbase-545_20
  -OEChem-06052310023D

 22 22  0     0  0  0  0  0  0999 V2000
   -4.3143   12.1473  -31.2202 C   0  0  0  0  0  0  0  0  0  0  0  0
   -4.8566   10.9822  -31.7625 C   0  0  0  0  0  0  0  0  0  0  0  0
   -4.7503   12.6068  -29.9775 C   0  0  0  0  0  0  0  0  0  0  0  0
   -5.8351   10.2767  -31.0621 C   0  0  0  0  0  0  0  0  0  0  0  0
   -6.2712   10.7363  -29.8193 C   0  0  0  0  0  0  0  0  0  0  0  0
   -5.7288   11.9013  -29.2771 C   0  0  0  0  0  0  0  0  0  0  0  0
   -6.3826    9.0630  -31.6540 C   0  0  0  0  0  0  0  0  0  0  0  0
   -6.4764    8.8224  -32.9788 C   0  0  0  0  0  0  0  0  0  0  0  0
   -7.0443    7.5404  -33.4845 C   0  0  0  0  0  0  0  0  0  0  0  0
   -8.4646    7.2293  -33.0914 C   0  0  0  0  0  0  0  0  0  0  0  0
   -6.4043    6.7790  -34.2061 O   0  0  0  0  0  0  0  0  0  0  0  0
   -7.2303   10.0417  -29.1385 O   0  0  0  0  0  0  0  0  0  0  0  0
   -6.2921   12.5589  -27.5901 Br  0  0  0  0  0  0  0  0  0  0  0  0
   -3.5525   12.6971  -31.7646 H   0  0  0  0  0  0  0  0  0  0  0  0
   -4.5047   10.6365  -32.7317 H   0  0  0  0  0  0  0  0  0  0  0  0
   -4.3156   13.5165  -29.5708 H   0  0  0  0  0  0  0  0  0  0  0  0
   -6.7190    8.2953  -30.9500 H   0  0  0  0  0  0  0  0  0  0  0  0
   -6.1344    9.5383  -33.7176 H   0  0  0  0  0  0  0  0  0  0  0  0
   -9.1455    7.6385  -33.8421 H   0  0  0  0  0  0  0  0  0  0  0  0
   -8.5898    6.1447  -33.0266 H   0  0  0  0  0  0  0  0  0  0  0  0
   -8.7068    7.6527  -32.1129 H   0  0  0  0  0  0  0  0  0  0  0  0
   -7.4256   10.4830  -28.2985 H   0  0  0  0  0  0  0  0  0  0  0  0
  1  2  1  0  0  0  0
  1  3  2  0  0  0  0
  2  4  2  0  0  0  0
  3  6  1  0  0  0  0
  4  5  1  0  0  0  0
  4  7  1  0  0  0  0
  5  6  2  0  0  0  0
  5 12  1  0  0  0  0
  6 13  1  0  0  0  0
  7  8  2  3  0  0  0
  8  9  1  0  0  0  0
  9 10  1  0  0  0  0
  9 11  2  0  0  0  0
  1 14  1  0  0  0  0
  2 15  1  0  0  0  0
  3 16  1  0  0  0  0
  7 17  1  0  0  0  0
  8 18  1  0  0  0  0
 10 19  1  0  0  0  0
 10 20  1  0  0  0  0
 10 21  1  0  0  0  0
 12 22  1  0  0  0  0
M  END
> <id>
EN300-1923451

> <smiles>
CC(=O)C=CC=1C=CC=C(Br)C1O

> <IUPAC Name>
4-(3-bromo-2-hydroxyphenyl)but-3-en-2-one

> <CAS>
858814-07-0

> <URL>
https://www.enaminestore.com/catalog/EN300-1923451

> <ROCS_ShapeQuery>
_x1604L0AP1_x0771L0AP1

> <ROCS_TanimotoCombo>
0.948 

> <ROCS_ShapeTanimoto>
0.479 

> <ROCS_ColorTanimoto>
0.469 

> <ROCS_RefTversky>
0.441 

> <ROCS_RefColorTversky>
0.496 

> <ROCS_RefTverskyCombo>
0.937 

> <ROCS_FitTversky>
1.221 

> <ROCS_FitColorTversky>
0.896 

> <ROCS_FitTverskyCombo>
2.117 

> <ROCS_ColorScore>
-4.692

> <ROCS_Overlap>
739.058

> <ROCS_Rank>
415                 

$$$$
untitled-dbase-492_60
  -OEChem-06052310023D

 20 20  0     0  0  0  0  0  0999 V2000
   -5.0899   11.2246  -31.8000 C   0  0  0  0  0  0  0  0  0  0  0  0
   -4.5051   12.4310  -29.7901 C   0  0  0  0  0  0  0  0  0  0  0  0
   -6.0742   10.5301  -31.0969 C   0  0  0  0  0  0  0  0  0  0  0  0
   -6.2740   10.7861  -29.7403 C   0  0  0  0  0  0  0  0  0  0  0  0
   -4.3053   12.1750  -31.1466 C   0  0  0  0  0  0  0  0  0  0  0  0
   -5.4895   11.7365  -29.0869 C   0  0  0  0  0  0  0  0  0  0  0  0
   -6.7441    9.5866  -33.3253 C   0  0  0  0  0  0  0  0  0  0  0  0
   -6.9030    9.5168  -31.8158 C   0  0  0  0  0  0  0  0  0  0  0  0
   -6.1974    8.4742  -33.9087 N   0  0  0  0  0  0  0  0  0  0  0  0
   -7.2409   10.0983  -29.0662 O   0  0  0  0  0  0  0  0  0  0  0  0
   -7.1834   10.9296  -34.2198 S   0  0  0  0  0  0  0  0  0  0  0  0
   -3.0907   13.0316  -32.0147 Cl  0  0  0  0  0  0  0  0  0  0  0  0
   -5.7310   12.1121  -27.2442 Br  0  0  0  0  0  0  0  0  0  0  0  0
   -4.9375   11.0224  -32.8581 H   0  0  0  0  0  0  0  0  0  0  0  0
   -3.8909   13.1726  -29.2841 H   0  0  0  0  0  0  0  0  0  0  0  0
   -7.9696    9.6280  -31.5571 H   0  0  0  0  0  0  0  0  0  0  0  0
   -6.6285    8.5045  -31.4737 H   0  0  0  0  0  0  0  0  0  0  0  0
   -5.9164    7.6610  -33.3706 H   0  0  0  0  0  0  0  0  0  0  0  0
   -6.0508    8.4283  -34.9115 H   0  0  0  0  0  0  0  0  0  0  0  0
   -7.2642   10.3797  -28.1390 H   0  0  0  0  0  0  0  0  0  0  0  0
  1  3  2  0  0  0  0
  1  5  1  0  0  0  0
  2  5  2  0  0  0  0
  2  6  1  0  0  0  0
  3  4  1  0  0  0  0
  3  8  1  0  0  0  0
  4  6  2  0  0  0  0
  4 10  1  0  0  0  0
  5 12  1  0  0  0  0
  6 13  1  0  0  0  0
  7  8  1  0  0  0  0
  7  9  1  0  0  0  0
  7 11  2  0  0  0  0
  1 14  1  0  0  0  0
  2 15  1  0  0  0  0
  8 16  1  0  0  0  0
  8 17  1  0  0  0  0
  9 18  1  0  0  0  0
  9 19  1  0  0  0  0
 10 20  1  0  0  0  0
M  END
> <id>
EN300-1922937

> <smiles>
NC(=S)CC=1C=C(Cl)C=C(Br)C1O

> <IUPAC Name>
2-(3-bromo-5-chloro-2-hydroxyphenyl)ethanethioamide

> <CAS>
2229584-60-3

> <URL>
https://www.enaminestore.com/catalog/EN300-1922937

> <ROCS_ShapeQuery>
_x1604L0AP1_x0771L0AP1

> <ROCS_TanimotoCombo>
0.948 

> <ROCS_ShapeTanimoto>
0.589 

> <ROCS_ColorTanimoto>
0.359 

> <ROCS_RefTversky>
0.501 

> <ROCS_RefColorTversky>
0.411 

> <ROCS_RefTverskyCombo>
0.912 

> <ROCS_FitTversky>
1.423 

> <ROCS_FitColorTversky>
0.742 

> <ROCS_FitTverskyCombo>
2.166 

> <ROCS_ColorScore>
-3.887

> <ROCS_Overlap>
838.922

> <ROCS_Rank>
416                 

$$$$
untitled-dbase-475_14
  -OEChem-06052310023D

 17 17  0     0  0  0  0  0  0999 V2000
   -4.5740   12.4711  -29.8690 C   0  0  0  0  0  0  0  0  0  0  0  0
   -5.0626   11.1208  -31.8119 C   0  0  0  0  0  0  0  0  0  0  0  0
   -5.5515   11.7863  -29.1472 C   0  0  0  0  0  0  0  0  0  0  0  0
   -6.2846   10.7687  -29.7577 C   0  0  0  0  0  0  0  0  0  0  0  0
   -4.3296   12.1384  -31.2014 C   0  0  0  0  0  0  0  0  0  0  0  0
   -6.0402   10.4359  -31.0900 C   0  0  0  0  0  0  0  0  0  0  0  0
   -5.7895   12.1529  -27.7578 C   0  0  0  0  0  0  0  0  0  0  0  0
   -6.7618   11.4536  -27.0813 N   0  0  0  0  0  0  0  0  0  0  0  0
   -7.2397   10.1071  -29.0410 O   0  0  0  0  0  0  0  0  0  0  0  0
   -4.8997   13.3554  -27.0065 S   0  0  0  0  0  0  0  0  0  0  0  0
   -3.1232   12.9840  -32.0915 Cl  0  0  0  0  0  0  0  0  0  0  0  0
   -7.0151    9.0590  -31.9553 Br  0  0  0  0  0  0  0  0  0  0  0  0
   -4.0036   13.2647  -29.3908 H   0  0  0  0  0  0  0  0  0  0  0  0
   -4.8691   10.8645  -32.8514 H   0  0  0  0  0  0  0  0  0  0  0  0
   -7.3063   10.7141  -27.5136 H   0  0  0  0  0  0  0  0  0  0  0  0
   -6.9772   11.6665  -26.1129 H   0  0  0  0  0  0  0  0  0  0  0  0
   -7.6621    9.4325  -29.5938 H   0  0  0  0  0  0  0  0  0  0  0  0
  1  3  2  0  0  0  0
  1  5  1  0  0  0  0
  2  5  2  0  0  0  0
  2  6  1  0  0  0  0
  3  4  1  0  0  0  0
  3  7  1  0  0  0  0
  4  6  2  0  0  0  0
  4  9  1  0  0  0  0
  5 11  1  0  0  0  0
  6 12  1  0  0  0  0
  7  8  1  0  0  0  0
  7 10  2  0  0  0  0
  1 13  1  0  0  0  0
  2 14  1  0  0  0  0
  8 15  1  0  0  0  0
  8 16  1  0  0  0  0
  9 17  1  0  0  0  0
M  END
> <id>
EN300-1903545

> <smiles>
NC(=S)C=1C=C(Cl)C=C(Br)C1O

> <MDLNUMBER>
MFCD09707210

> <IUPAC Name>
3-bromo-5-chloro-2-hydroxybenzene-1-carbothioamide

> <CAS>
938140-82-0

> <URL>
https://www.enaminestore.com/catalog/EN300-1903545

> <ROCS_ShapeQuery>
_x1604L0AP1_x0771L0AP1

> <ROCS_TanimotoCombo>
0.948 

> <ROCS_ShapeTanimoto>
0.451 

> <ROCS_ColorTanimoto>
0.497 

> <ROCS_RefTversky>
0.414 

> <ROCS_RefColorTversky>
0.516 

> <ROCS_RefTverskyCombo>
0.929 

> <ROCS_FitTversky>
1.250 

> <ROCS_FitColorTversky>
0.932 

> <ROCS_FitTverskyCombo>
2.183 

> <ROCS_ColorScore>
-4.881

> <ROCS_Overlap>
691.854

> <ROCS_Rank>
417                 

$$$$
untitled-dbase-883_416
  -OEChem-06052310023D

 30 30  0     1  0  0  0  0  0999 V2000
   -4.5501   12.3656  -30.0571 C   0  0  0  0  0  0  0  0  0  0  0  0
   -4.3348   11.9817  -31.3807 C   0  0  0  0  0  0  0  0  0  0  0  0
   -5.5251   11.7228  -29.2942 C   0  0  0  0  0  0  0  0  0  0  0  0
   -5.0944   10.9549  -31.9414 C   0  0  0  0  0  0  0  0  0  0  0  0
   -6.2847   10.6961  -29.8549 C   0  0  0  0  0  0  0  0  0  0  0  0
   -6.0694   10.3121  -31.1785 C   0  0  0  0  0  0  0  0  0  0  0  0
   -5.4362    7.7781  -34.3756 C   0  0  0  0  0  0  0  0  0  0  0  0
   -6.3016    8.3447  -36.5016 C   0  0  0  0  0  0  0  0  0  0  0  0
   -4.2933    8.0523  -33.4267 C   0  0  0  0  0  0  0  0  0  0  0  0
   -3.7451    9.4779  -33.5467 C   0  0  0  0  0  0  0  0  0  0  0  0
   -4.8213   10.5761  -33.3841 C   0  0  2  0  0  0  0  0  0  0  0  0
   -4.4202   11.7596  -34.1576 N   0  0  0  0  0  0  0  0  0  0  0  0
   -6.3408    6.9844  -34.1506 O   0  0  0  0  0  0  0  0  0  0  0  0
   -7.2289   10.0914  -29.0791 O   0  0  0  0  0  0  0  0  0  0  0  0
   -5.2894    8.5265  -35.5064 O   0  0  0  0  0  0  0  0  0  0  0  0
   -7.1117    8.9099  -31.9325 Br  0  0  0  0  0  0  0  0  0  0  0  0
   -3.9590   13.1654  -29.6207 H   0  0  0  0  0  0  0  0  0  0  0  0
   -3.5726   12.4896  -31.9661 H   0  0  0  0  0  0  0  0  0  0  0  0
   -5.6873   12.0280  -28.2639 H   0  0  0  0  0  0  0  0  0  0  0  0
   -6.0894    8.9870  -37.3598 H   0  0  0  0  0  0  0  0  0  0  0  0
   -7.2783    8.5939  -36.0791 H   0  0  0  0  0  0  0  0  0  0  0  0
   -6.3013    7.3002  -36.8222 H   0  0  0  0  0  0  0  0  0  0  0  0
   -4.6865    7.8899  -32.4160 H   0  0  0  0  0  0  0  0  0  0  0  0
   -3.4891    7.3225  -33.5756 H   0  0  0  0  0  0  0  0  0  0  0  0
   -2.9190    9.6318  -32.8411 H   0  0  0  0  0  0  0  0  0  0  0  0
   -3.3116    9.5694  -34.5521 H   0  0  0  0  0  0  0  0  0  0  0  0
   -5.7487   10.2037  -33.8382 H   0  0  0  0  0  0  0  0  0  0  0  0
   -4.2798   11.4738  -35.0946 H   0  0  0  0  0  0  0  0  0  0  0  0
   -5.1512   12.4236  -34.0921 H   0  0  0  0  0  0  0  0  0  0  0  0
   -7.6834    9.3997  -29.5843 H   0  0  0  0  0  0  0  0  0  0  0  0
  1  2  1  0  0  0  0
  1  3  2  0  0  0  0
  2  4  2  0  0  0  0
  3  5  1  0  0  0  0
  4  6  1  0  0  0  0
  4 11  1  0  0  0  0
  5  6  2  0  0  0  0
  5 14  1  0  0  0  0
  6 16  1  0  0  0  0
  7  9  1  0  0  0  0
  7 13  2  0  0  0  0
  7 15  1  0  0  0  0
  8 15  1  0  0  0  0
  9 10  1  0  0  0  0
 10 11  1  0  0  0  0
 11 12  1  0  0  0  0
  1 17  1  0  0  0  0
  2 18  1  0  0  0  0
  3 19  1  0  0  0  0
  8 20  1  0  0  0  0
  8 21  1  0  0  0  0
  8 22  1  0  0  0  0
  9 23  1  0  0  0  0
  9 24  1  0  0  0  0
 10 25  1  0  0  0  0
 10 26  1  0  0  0  0
 11 27  1  0  0  0  0
 12 28  1  0  0  0  0
 12 29  1  0  0  0  0
 14 30  1  0  0  0  0
M  END
> <id>
EN300-1934500

> <smiles>
COC(=O)CCC(N)C=1C=CC=C(O)C1Br

> <IUPAC Name>
methyl 4-amino-4-(2-bromo-3-hydroxyphenyl)butanoate

> <CAS>
2228733-03-5

> <URL>
https://www.enaminestore.com/catalog/EN300-1934500

> <ROCS_ShapeQuery>
_x1604L0AP1_x0771L0AP1

> <ROCS_TanimotoCombo>
0.948 

> <ROCS_ShapeTanimoto>
0.456 

> <ROCS_ColorTanimoto>
0.492 

> <ROCS_RefTversky>
0.448 

> <ROCS_RefColorTversky>
0.575 

> <ROCS_RefTverskyCombo>
1.024 

> <ROCS_FitTversky>
1.042 

> <ROCS_FitColorTversky>
0.771 

> <ROCS_FitTverskyCombo>
1.813 

> <ROCS_ColorScore>
-5.504

> <ROCS_Overlap>
753.658

> <ROCS_Rank>
418                 

$$$$
untitled-dbase-2212_639
  -OEChem-06052310023D

 31 32  0     0  0  0  0  0  0999 V2000
   -6.4314   10.1619  -30.9749 C   0  0  0  0  0  0  0  0  0  0  0  0
   -4.6038   11.5450  -31.7389 C   0  0  0  0  0  0  0  0  0  0  0  0
   -5.5648   10.5658  -31.9905 C   0  0  0  0  0  0  0  0  0  0  0  0
   -6.3370   10.7372  -29.7077 C   0  0  0  0  0  0  0  0  0  0  0  0
   -5.3760   11.7163  -29.4560 C   0  0  0  0  0  0  0  0  0  0  0  0
   -4.5094   12.1203  -30.4717 C   0  0  0  0  0  0  0  0  0  0  0  0
   -7.2521    8.5517  -35.6724 C   0  0  0  0  0  0  0  0  0  0  0  0
   -5.7626    8.5920  -35.8736 C   0  0  0  0  0  0  0  0  0  0  0  0
   -6.3401    7.8975  -34.6702 C   0  0  0  0  0  0  0  0  0  0  0  0
   -8.1416    9.3262  -29.0686 C   0  0  0  0  0  0  0  0  0  0  0  0
   -5.6665    9.9430  -33.3599 C   0  0  0  0  0  0  0  0  0  0  0  0
   -6.1764    8.4894  -33.3115 C   0  0  0  0  0  0  0  0  0  0  0  0
   -5.2986   12.2664  -28.2098 O   0  0  0  0  0  0  0  0  0  0  0  0
   -6.3097    6.4607  -34.6908 O   0  0  0  0  0  0  0  0  0  0  0  0
   -7.1901   10.3317  -28.7258 O   0  0  0  0  0  0  0  0  0  0  0  0
   -3.1906   13.4479  -30.1677 Br  0  0  0  0  0  0  0  0  0  0  0  0
   -7.1812    9.3985  -31.1685 H   0  0  0  0  0  0  0  0  0  0  0  0
   -3.9322   11.8531  -32.5373 H   0  0  0  0  0  0  0  0  0  0  0  0
   -7.7466    9.4755  -35.3974 H   0  0  0  0  0  0  0  0  0  0  0  0
   -7.8317    7.9152  -36.3301 H   0  0  0  0  0  0  0  0  0  0  0  0
   -5.3449    7.9827  -36.6663 H   0  0  0  0  0  0  0  0  0  0  0  0
   -5.2625    9.5426  -35.7324 H   0  0  0  0  0  0  0  0  0  0  0  0
   -8.7587    9.0951  -28.1969 H   0  0  0  0  0  0  0  0  0  0  0  0
   -7.6183    8.4281  -29.4064 H   0  0  0  0  0  0  0  0  0  0  0  0
   -8.7783    9.6992  -29.8743 H   0  0  0  0  0  0  0  0  0  0  0  0
   -6.3373   10.5412  -33.9903 H   0  0  0  0  0  0  0  0  0  0  0  0
   -4.6854    9.9662  -33.8518 H   0  0  0  0  0  0  0  0  0  0  0  0
   -5.4739    7.8848  -32.7066 H   0  0  0  0  0  0  0  0  0  0  0  0
   -7.1354    8.4656  -32.7595 H   0  0  0  0  0  0  0  0  0  0  0  0
   -5.9690   11.8737  -27.6303 H   0  0  0  0  0  0  0  0  0  0  0  0
   -7.2145    6.1747  -34.5079 H   0  0  0  0  0  0  0  0  0  0  0  0
  1  3  1  0  0  0  0
  1  4  2  0  0  0  0
  2  3  2  0  0  0  0
  2  6  1  0  0  0  0
  3 11  1  0  0  0  0
  4  5  1  0  0  0  0
  4 15  1  0  0  0  0
  5  6  2  0  0  0  0
  5 13  1  0  0  0  0
  6 16  1  0  0  0  0
  7  8  1  0  0  0  0
  7  9  1  0  0  0  0
  8  9  1  0  0  0  0
  9 12  1  0  0  0  0
  9 14  1  0  0  0  0
 10 15  1  0  0  0  0
 11 12  1  0  0  0  0
  1 17  1  0  0  0  0
  2 18  1  0  0  0  0
  7 19  1  0  0  0  0
  7 20  1  0  0  0  0
  8 21  1  0  0  0  0
  8 22  1  0  0  0  0
 10 23  1  0  0  0  0
 10 24  1  0  0  0  0
 10 25  1  0  0  0  0
 11 26  1  0  0  0  0
 11 27  1  0  0  0  0
 12 28  1  0  0  0  0
 12 29  1  0  0  0  0
 13 30  1  0  0  0  0
 14 31  1  0  0  0  0
M  END
> <id>
EN300-1925712

> <smiles>
COC=1C=C(CCC2(O)CC2)C=C(Br)C1O

> <IUPAC Name>
2-bromo-4-[2-(1-hydroxycyclopropyl)ethyl]-6-methoxyphenol

> <CAS>
2229581-00-2

> <URL>
https://www.enaminestore.com/catalog/EN300-1925712

> <ROCS_ShapeQuery>
_x1604L0AP1_x0771L0AP1

> <ROCS_TanimotoCombo>
0.948 

> <ROCS_ShapeTanimoto>
0.593 

> <ROCS_ColorTanimoto>
0.354 

> <ROCS_RefTversky>
0.534 

> <ROCS_RefColorTversky>
0.457 

> <ROCS_RefTverskyCombo>
0.991 

> <ROCS_FitTversky>
1.228 

> <ROCS_FitColorTversky>
0.612 

> <ROCS_FitTverskyCombo>
1.841 

> <ROCS_ColorScore>
-4.370

> <ROCS_Overlap>
899.029

> <ROCS_Rank>
419                 

$$$$
untitled-dbase-1948_12
  -OEChem-06052310023D

 22 23  0     1  0  0  0  0  0999 V2000
   -4.1911   12.3313  -30.8887 C   0  0  0  0  0  0  0  0  0  0  0  0
   -5.0690   11.6056  -31.6937 C   0  0  0  0  0  0  0  0  0  0  0  0
   -4.3277   12.2977  -29.5009 C   0  0  0  0  0  0  0  0  0  0  0  0
   -6.0837   10.8463  -31.1110 C   0  0  0  0  0  0  0  0  0  0  0  0
   -6.2203   10.8126  -29.7232 C   0  0  0  0  0  0  0  0  0  0  0  0
   -5.3423   11.5383  -28.9182 C   0  0  0  0  0  0  0  0  0  0  0  0
   -6.6606    8.3910  -33.4893 C   0  0  0  0  0  0  0  0  0  0  0  0
   -7.1130   10.6567  -33.3873 C   0  0  0  0  0  0  0  0  0  0  0  0
   -7.0134   10.0778  -31.9916 C   0  0  1  0  0  0  0  0  0  0  0  0
   -7.0843    9.4882  -34.2042 N   0  0  0  0  0  0  0  0  0  0  0  0
   -6.4478    7.2688  -33.9261 O   0  0  0  0  0  0  0  0  0  0  0  0
   -6.4903    8.7460  -32.1749 O   0  0  0  0  0  0  0  0  0  0  0  0
   -7.2190   10.0663  -29.1681 O   0  0  0  0  0  0  0  0  0  0  0  0
   -5.4942   11.5177  -27.0286 Br  0  0  0  0  0  0  0  0  0  0  0  0
   -3.4007   12.9222  -31.3423 H   0  0  0  0  0  0  0  0  0  0  0  0
   -4.9539   11.6356  -32.7740 H   0  0  0  0  0  0  0  0  0  0  0  0
   -3.6337   12.8694  -28.8898 H   0  0  0  0  0  0  0  0  0  0  0  0
   -8.0402   11.2127  -33.5512 H   0  0  0  0  0  0  0  0  0  0  0  0
   -6.2621   11.2863  -33.6680 H   0  0  0  0  0  0  0  0  0  0  0  0
   -7.9890    9.9975  -31.5056 H   0  0  0  0  0  0  0  0  0  0  0  0
   -7.3428    9.4682  -35.1856 H   0  0  0  0  0  0  0  0  0  0  0  0
   -7.1907   10.1387  -28.2020 H   0  0  0  0  0  0  0  0  0  0  0  0
  1  2  1  0  0  0  0
  1  3  2  0  0  0  0
  2  4  2  0  0  0  0
  3  6  1  0  0  0  0
  4  5  1  0  0  0  0
  4  9  1  0  0  0  0
  5  6  2  0  0  0  0
  5 13  1  0  0  0  0
  6 14  1  0  0  0  0
  7 10  1  0  0  0  0
  7 11  2  0  0  0  0
  7 12  1  0  0  0  0
  8  9  1  0  0  0  0
  8 10  1  0  0  0  0
  9 12  1  0  0  0  0
  1 15  1  0  0  0  0
  2 16  1  0  0  0  0
  3 17  1  0  0  0  0
  8 18  1  0  0  0  0
  8 19  1  0  0  0  0
  9 20  1  0  0  0  0
 10 21  1  0  0  0  0
 13 22  1  0  0  0  0
M  END
> <id>
EN300-1923777

> <smiles>
OC=1C(Br)=CC=CC1C2CNC(=O)O2

> <IUPAC Name>
5-(3-bromo-2-hydroxyphenyl)-1,3-oxazolidin-2-one

> <CAS>
2229274-17-1

> <URL>
https://www.enaminestore.com/catalog/EN300-1923777

> <ROCS_ShapeQuery>
_x1604L0AP1_x0771L0AP1

> <ROCS_TanimotoCombo>
0.948 

> <ROCS_ShapeTanimoto>
0.584 

> <ROCS_ColorTanimoto>
0.363 

> <ROCS_RefTversky>
0.518 

> <ROCS_RefColorTversky>
0.465 

> <ROCS_RefTverskyCombo>
0.983 

> <ROCS_FitTversky>
1.280 

> <ROCS_FitColorTversky>
0.624 

> <ROCS_FitTverskyCombo>
1.904 

> <ROCS_ColorScore>
-4.451

> <ROCS_Overlap>
870.063

> <ROCS_Rank>
420                 

$$$$
untitled-dbase-916_126
  -OEChem-06052310023D

 27 27  0     0  0  0  0  0  0999 V2000
   -4.3356   12.0858  -30.1667 C   0  0  0  0  0  0  0  0  0  0  0  0
   -4.3391   11.7289  -31.5151 C   0  0  0  0  0  0  0  0  0  0  0  0
   -5.3029   11.5676  -29.3056 C   0  0  0  0  0  0  0  0  0  0  0  0
   -5.3100   10.8539  -32.0025 C   0  0  0  0  0  0  0  0  0  0  0  0
   -6.2737   10.6926  -29.7929 C   0  0  0  0  0  0  0  0  0  0  0  0
   -6.2773   10.3357  -31.1413 C   0  0  0  0  0  0  0  0  0  0  0  0
   -5.2701   10.5003  -33.4672 C   0  0  0  0  0  0  0  0  0  0  0  0
   -5.1441    8.9899  -33.6818 C   0  0  0  0  0  0  0  0  0  0  0  0
   -5.0716    8.6477  -35.1729 C   0  0  0  0  0  0  0  0  0  0  0  0
   -4.9318    7.1501  -35.4249 C   0  0  0  0  0  0  0  0  0  0  0  0
   -6.0246    6.3973  -34.8740 N   0  0  0  0  0  0  0  0  0  0  0  0
   -7.2034   10.2068  -28.9218 O   0  0  0  0  0  0  0  0  0  0  0  0
   -7.6065    9.1409  -31.7946 Br  0  0  0  0  0  0  0  0  0  0  0  0
   -3.5800   12.7675  -29.7874 H   0  0  0  0  0  0  0  0  0  0  0  0
   -3.5808   12.1388  -32.1773 H   0  0  0  0  0  0  0  0  0  0  0  0
   -5.2940   11.8508  -28.2564 H   0  0  0  0  0  0  0  0  0  0  0  0
   -4.4304   11.0214  -33.9445 H   0  0  0  0  0  0  0  0  0  0  0  0
   -6.1764   10.8780  -33.9575 H   0  0  0  0  0  0  0  0  0  0  0  0
   -6.0022    8.4768  -33.2295 H   0  0  0  0  0  0  0  0  0  0  0  0
   -4.2480    8.6188  -33.1694 H   0  0  0  0  0  0  0  0  0  0  0  0
   -5.9852    9.0003  -35.6666 H   0  0  0  0  0  0  0  0  0  0  0  0
   -4.2296    9.1808  -35.6314 H   0  0  0  0  0  0  0  0  0  0  0  0
   -4.0171    6.7757  -34.9544 H   0  0  0  0  0  0  0  0  0  0  0  0
   -4.8786    6.9303  -36.4957 H   0  0  0  0  0  0  0  0  0  0  0  0
   -5.8958    5.4259  -35.0743 H   0  0  0  0  0  0  0  0  0  0  0  0
   -6.0565    6.5316  -33.8835 H   0  0  0  0  0  0  0  0  0  0  0  0
   -7.8162    9.6139  -29.3836 H   0  0  0  0  0  0  0  0  0  0  0  0
  1  2  1  0  0  0  0
  1  3  2  0  0  0  0
  2  4  2  0  0  0  0
  3  5  1  0  0  0  0
  4  6  1  0  0  0  0
  4  7  1  0  0  0  0
  5  6  2  0  0  0  0
  5 12  1  0  0  0  0
  6 13  1  0  0  0  0
  7  8  1  0  0  0  0
  8  9  1  0  0  0  0
  9 10  1  0  0  0  0
 10 11  1  0  0  0  0
  1 14  1  0  0  0  0
  2 15  1  0  0  0  0
  3 16  1  0  0  0  0
  7 17  1  0  0  0  0
  7 18  1  0  0  0  0
  8 19  1  0  0  0  0
  8 20  1  0  0  0  0
  9 21  1  0  0  0  0
  9 22  1  0  0  0  0
 10 23  1  0  0  0  0
 10 24  1  0  0  0  0
 11 25  1  0  0  0  0
 11 26  1  0  0  0  0
 12 27  1  0  0  0  0
M  END
> <id>
EN300-1904590

> <smiles>
NCCCCC=1C=CC=C(O)C1Br

> <IUPAC Name>
3-(4-aminobutyl)-2-bromophenol

> <CAS>
2229618-07-7

> <URL>
https://www.enaminestore.com/catalog/EN300-1904590

> <ROCS_ShapeQuery>
_x1604L0AP1_x0771L0AP1

> <ROCS_TanimotoCombo>
0.948 

> <ROCS_ShapeTanimoto>
0.455 

> <ROCS_ColorTanimoto>
0.493 

> <ROCS_RefTversky>
0.422 

> <ROCS_RefColorTversky>
0.545 

> <ROCS_RefTverskyCombo>
0.967 

> <ROCS_FitTversky>
1.203 

> <ROCS_FitColorTversky>
0.838 

> <ROCS_FitTverskyCombo>
2.041 

> <ROCS_ColorScore>
-5.183

> <ROCS_Overlap>
707.496

> <ROCS_Rank>
421                 

$$$$
untitled-dbase-1241_35
  -OEChem-06052310023D

 22 22  0     1  0  0  0  0  0999 V2000
   -5.0984   11.2767  -31.7906 C   0  0  0  0  0  0  0  0  0  0  0  0
   -4.4879   12.4228  -29.7533 C   0  0  0  0  0  0  0  0  0  0  0  0
   -6.0828   10.5711  -31.0987 C   0  0  0  0  0  0  0  0  0  0  0  0
   -6.2699   10.7914  -29.7341 C   0  0  0  0  0  0  0  0  0  0  0  0
   -4.3009   12.2025  -31.1179 C   0  0  0  0  0  0  0  0  0  0  0  0
   -5.4724   11.7173  -29.0614 C   0  0  0  0  0  0  0  0  0  0  0  0
   -6.9077    7.9878  -33.6370 C   0  0  0  0  0  0  0  0  0  0  0  0
   -6.9256    9.5845  -31.8383 C   0  0  0  0  0  0  0  0  0  0  0  0
   -6.3753    9.2548  -33.1276 N   0  0  2  0  0  0  0  0  0  0  0  0
   -7.2371   10.0932  -29.0712 O   0  0  0  0  0  0  0  0  0  0  0  0
   -6.9121   10.2554  -34.0420 O   0  0  0  0  0  0  0  0  0  0  0  0
   -3.0862   13.0727  -31.9721 Cl  0  0  0  0  0  0  0  0  0  0  0  0
   -5.6962   12.0442  -27.2073 Br  0  0  0  0  0  0  0  0  0  0  0  0
   -4.9560   11.1022  -32.8551 H   0  0  0  0  0  0  0  0  0  0  0  0
   -3.8636   13.1453  -29.2323 H   0  0  0  0  0  0  0  0  0  0  0  0
   -6.4644    7.7722  -34.6204 H   0  0  0  0  0  0  0  0  0  0  0  0
   -6.6578    7.1773  -32.9366 H   0  0  0  0  0  0  0  0  0  0  0  0
   -8.0006    8.0629  -33.7361 H   0  0  0  0  0  0  0  0  0  0  0  0
   -7.0259    8.6490  -31.2716 H   0  0  0  0  0  0  0  0  0  0  0  0
   -7.9411    9.9682  -32.0024 H   0  0  0  0  0  0  0  0  0  0  0  0
   -7.2507   10.3493  -28.1365 H   0  0  0  0  0  0  0  0  0  0  0  0
   -6.5293    9.9399  -34.8782 H   0  0  0  0  0  0  0  0  0  0  0  0
  1  3  2  0  0  0  0
  1  5  1  0  0  0  0
  2  5  2  0  0  0  0
  2  6  1  0  0  0  0
  3  4  1  0  0  0  0
  3  8  1  0  0  0  0
  4  6  2  0  0  0  0
  4 10  1  0  0  0  0
  5 12  1  0  0  0  0
  6 13  1  0  0  0  0
  7  9  1  0  0  0  0
  8  9  1  0  0  0  0
  9 11  1  0  0  0  0
  1 14  1  0  0  0  0
  2 15  1  0  0  0  0
  7 16  1  0  0  0  0
  7 17  1  0  0  0  0
  7 18  1  0  0  0  0
  8 19  1  0  0  0  0
  8 20  1  0  0  0  0
 10 21  1  0  0  0  0
 11 22  1  0  0  0  0
M  END
> <id>
EN300-1922555

> <smiles>
CN(O)CC=1C=C(Cl)C=C(Br)C1O

> <IUPAC Name>
2-bromo-4-chloro-6-{[hydroxy(methyl)amino]methyl}phenol

> <CAS>
2229186-78-9

> <URL>
https://www.enaminestore.com/catalog/EN300-1922555

> <ROCS_ShapeQuery>
_x1604L0AP1_x0771L0AP1

> <ROCS_TanimotoCombo>
0.947 

> <ROCS_ShapeTanimoto>
0.588 

> <ROCS_ColorTanimoto>
0.359 

> <ROCS_RefTversky>
0.503 

> <ROCS_RefColorTversky>
0.410 

> <ROCS_RefTverskyCombo>
0.913 

> <ROCS_FitTversky>
1.407 

> <ROCS_FitColorTversky>
0.742 

> <ROCS_FitTverskyCombo>
2.150 

> <ROCS_ColorScore>
-3.885

> <ROCS_Overlap>
841.974

> <ROCS_Rank>
422                 

$$$$
untitled-dbase-1268_47
  -OEChem-06052310023D

 21 21  0     1  0  0  0  0  0999 V2000
   -4.6101   12.4948  -29.8651 C   0  0  0  0  0  0  0  0  0  0  0  0
   -4.3636   12.1769  -31.2007 C   0  0  0  0  0  0  0  0  0  0  0  0
   -5.5765   11.7900  -29.1474 C   0  0  0  0  0  0  0  0  0  0  0  0
   -5.0834   11.1544  -31.8186 C   0  0  0  0  0  0  0  0  0  0  0  0
   -6.2963   10.7674  -29.7653 C   0  0  0  0  0  0  0  0  0  0  0  0
   -6.0498   10.4496  -31.1009 C   0  0  0  0  0  0  0  0  0  0  0  0
   -4.7818   10.8530  -33.2514 C   0  0  2  0  0  0  0  0  0  0  0  0
   -5.9948   11.0635  -34.1674 C   0  0  0  0  0  0  0  0  0  0  0  0
   -4.2800    9.4802  -33.4347 N   0  0  0  0  0  0  0  0  0  0  0  0
   -7.2333   10.1011  -29.0324 O   0  0  0  0  0  0  0  0  0  0  0  0
   -5.5695   11.1740  -35.4533 F   0  0  0  0  0  0  0  0  0  0  0  0
   -6.8047    9.9727  -34.1337 F   0  0  0  0  0  0  0  0  0  0  0  0
   -7.0379    9.0523  -31.9330 Br  0  0  0  0  0  0  0  0  0  0  0  0
   -4.0500   13.2914  -29.3842 H   0  0  0  0  0  0  0  0  0  0  0  0
   -3.6084   12.7328  -31.7506 H   0  0  0  0  0  0  0  0  0  0  0  0
   -5.7633   12.0439  -28.1073 H   0  0  0  0  0  0  0  0  0  0  0  0
   -3.9888   11.5257  -33.6225 H   0  0  0  0  0  0  0  0  0  0  0  0
   -6.5897   11.9475  -33.9184 H   0  0  0  0  0  0  0  0  0  0  0  0
   -4.1090    9.3518  -34.3999 H   0  0  0  0  0  0  0  0  0  0  0  0
   -3.4481    9.3948  -32.9073 H   0  0  0  0  0  0  0  0  0  0  0  0
   -7.6591    9.4196  -29.5751 H   0  0  0  0  0  0  0  0  0  0  0  0
  1  2  1  0  0  0  0
  1  3  2  0  0  0  0
  2  4  2  0  0  0  0
  3  5  1  0  0  0  0
  4  6  1  0  0  0  0
  4  7  1  0  0  0  0
  5  6  2  0  0  0  0
  5 10  1  0  0  0  0
  6 13  1  0  0  0  0
  7  8  1  0  0  0  0
  7  9  1  0  0  0  0
  8 11  1  0  0  0  0
  8 12  1  0  0  0  0
  1 14  1  0  0  0  0
  2 15  1  0  0  0  0
  3 16  1  0  0  0  0
  7 17  1  0  0  0  0
  8 18  1  0  0  0  0
  9 19  1  0  0  0  0
  9 20  1  0  0  0  0
 10 21  1  0  0  0  0
M  END
> <id>
EN300-1950766

> <smiles>
NC(C(F)F)C=1C=CC=C(O)C1Br

> <IUPAC Name>
3-(1-amino-2,2-difluoroethyl)-2-bromophenol

> <CAS>
2228761-57-5

> <URL>
https://www.enaminestore.com/catalog/EN300-1950766

> <ROCS_ShapeQuery>
_x1604L0AP1_x0771L0AP1

> <ROCS_TanimotoCombo>
0.947 

> <ROCS_ShapeTanimoto>
0.496 

> <ROCS_ColorTanimoto>
0.451 

> <ROCS_RefTversky>
0.453 

> <ROCS_RefColorTversky>
0.513 

> <ROCS_RefTverskyCombo>
0.966 

> <ROCS_FitTversky>
1.240 

> <ROCS_FitColorTversky>
0.789 

> <ROCS_FitTverskyCombo>
2.029 

> <ROCS_ColorScore>
-4.882

> <ROCS_Overlap>
758.475

> <ROCS_Rank>
423                 

$$$$
untitled-dbase-1157_0
  -OEChem-06052310023D

 18 18  0     0  0  0  0  0  0999 V2000
   -4.6118   12.4951  -29.8640 C   0  0  0  0  0  0  0  0  0  0  0  0
   -4.3622   12.1756  -31.1986 C   0  0  0  0  0  0  0  0  0  0  0  0
   -5.5789   11.7904  -29.1472 C   0  0  0  0  0  0  0  0  0  0  0  0
   -5.0797   11.1513  -31.8164 C   0  0  0  0  0  0  0  0  0  0  0  0
   -6.2964   10.7662  -29.7650 C   0  0  0  0  0  0  0  0  0  0  0  0
   -6.0469   10.4466  -31.0996 C   0  0  0  0  0  0  0  0  0  0  0  0
   -4.7776   10.8619  -33.2132 C   0  0  0  0  0  0  0  0  0  0  0  0
   -5.5257   11.5707  -34.3301 C   0  0  0  0  0  0  0  0  0  0  0  0
   -3.9043   10.0297  -33.5235 O   0  0  0  0  0  0  0  0  0  0  0  0
   -7.2340   10.0999  -29.0327 O   0  0  0  0  0  0  0  0  0  0  0  0
   -6.4446   12.4445  -33.8464 F   0  0  0  0  0  0  0  0  0  0  0  0
   -4.6867   12.2724  -35.1336 F   0  0  0  0  0  0  0  0  0  0  0  0
   -6.2007   10.7106  -35.1371 F   0  0  0  0  0  0  0  0  0  0  0  0
   -7.0353    9.0456  -31.9277 Br  0  0  0  0  0  0  0  0  0  0  0  0
   -4.0534   13.2931  -29.3831 H   0  0  0  0  0  0  0  0  0  0  0  0
   -3.6055   12.7329  -31.7454 H   0  0  0  0  0  0  0  0  0  0  0  0
   -5.7687   12.0463  -28.1081 H   0  0  0  0  0  0  0  0  0  0  0  0
   -7.6581    9.4172  -29.5752 H   0  0  0  0  0  0  0  0  0  0  0  0
  1  2  2  0  0  0  0
  1  3  1  0  0  0  0
  2  4  1  0  0  0  0
  3  5  2  0  0  0  0
  4  6  2  0  0  0  0
  4  7  1  0  0  0  0
  5  6  1  0  0  0  0
  5 10  1  0  0  0  0
  6 14  1  0  0  0  0
  7  8  1  0  0  0  0
  7  9  2  0  0  0  0
  8 11  1  0  0  0  0
  8 12  1  0  0  0  0
  8 13  1  0  0  0  0
  1 15  1  0  0  0  0
  2 16  1  0  0  0  0
  3 17  1  0  0  0  0
 10 18  1  0  0  0  0
M  END
> <id>
EN300-1950760

> <smiles>
OC=1C=CC=C(C(=O)C(F)(F)F)C1Br

> <IUPAC Name>
1-(2-bromo-3-hydroxyphenyl)-2,2,2-trifluoroethan-1-one

> <CAS>
2229594-80-1

> <URL>
https://www.enaminestore.com/catalog/EN300-1950760

> <ROCS_ShapeQuery>
_x1604L0AP1_x0771L0AP1

> <ROCS_TanimotoCombo>
0.947 

> <ROCS_ShapeTanimoto>
0.450 

> <ROCS_ColorTanimoto>
0.497 

> <ROCS_RefTversky>
0.434 

> <ROCS_RefColorTversky>
0.516 

> <ROCS_RefTverskyCombo>
0.950 

> <ROCS_FitTversky>
1.089 

> <ROCS_FitColorTversky>
0.933 

> <ROCS_FitTverskyCombo>
2.021 

> <ROCS_ColorScore>
-4.882

> <ROCS_Overlap>
728.518

> <ROCS_Rank>
424                 

$$$$
untitled-dbase-1248_94
  -OEChem-06052310023D

 31 32  0     0  0  0  0  0  0999 V2000
   -6.8810   10.5733  -33.6450 C   0  0  0  0  0  0  0  0  0  0  0  0
   -7.0745   10.1169  -34.9487 C   0  0  0  0  0  0  0  0  0  0  0  0
   -6.4918    9.6825  -32.6447 C   0  0  0  0  0  0  0  0  0  0  0  0
   -6.8789    8.7696  -35.2522 C   0  0  0  0  0  0  0  0  0  0  0  0
   -6.4898    7.8787  -34.2519 C   0  0  0  0  0  0  0  0  0  0  0  0
   -6.2962    8.3351  -32.9482 C   0  0  0  0  0  0  0  0  0  0  0  0
   -5.0105   11.5057  -29.9297 C   0  0  0  0  0  0  0  0  0  0  0  0
   -4.8577   10.0982  -30.5322 C   0  0  0  0  0  0  0  0  0  0  0  0
   -6.0522   11.8001  -31.0232 C   0  0  0  0  0  0  0  0  0  0  0  0
   -6.2842   10.2560  -31.1629 C   0  0  0  0  0  0  0  0  0  0  0  0
   -7.4681    9.3153  -37.4907 C   0  0  0  0  0  0  0  0  0  0  0  0
   -7.4092    9.7262  -30.2623 C   0  0  0  0  0  0  0  0  0  0  0  0
   -6.3065    6.5649  -34.5728 O   0  0  0  0  0  0  0  0  0  0  0  0
   -7.2086   10.2303  -28.9564 O   0  0  0  0  0  0  0  0  0  0  0  0
   -7.0709    8.3386  -36.5303 O   0  0  0  0  0  0  0  0  0  0  0  0
   -5.7693    7.1154  -31.5868 Br  0  0  0  0  0  0  0  0  0  0  0  0
   -7.0360   11.6247  -33.4179 H   0  0  0  0  0  0  0  0  0  0  0  0
   -7.3763   10.8164  -35.7236 H   0  0  0  0  0  0  0  0  0  0  0  0
   -5.4191   11.5121  -28.9132 H   0  0  0  0  0  0  0  0  0  0  0  0
   -4.1129   12.1292  -29.9517 H   0  0  0  0  0  0  0  0  0  0  0  0
   -4.0464   10.0285  -31.2675 H   0  0  0  0  0  0  0  0  0  0  0  0
   -4.7353    9.2895  -29.8057 H   0  0  0  0  0  0  0  0  0  0  0  0
   -6.9133   12.3929  -30.7011 H   0  0  0  0  0  0  0  0  0  0  0  0
   -5.6209   12.2721  -31.9146 H   0  0  0  0  0  0  0  0  0  0  0  0
   -7.5864    8.8398  -38.4675 H   0  0  0  0  0  0  0  0  0  0  0  0
   -6.7117   10.1021  -37.5458 H   0  0  0  0  0  0  0  0  0  0  0  0
   -8.4216    9.7502  -37.1819 H   0  0  0  0  0  0  0  0  0  0  0  0
   -7.3802    8.6387  -30.2412 H   0  0  0  0  0  0  0  0  0  0  0  0
   -8.3716   10.0658  -30.6397 H   0  0  0  0  0  0  0  0  0  0  0  0
   -6.4845    6.4247  -35.5152 H   0  0  0  0  0  0  0  0  0  0  0  0
   -6.3396    9.9120  -28.6560 H   0  0  0  0  0  0  0  0  0  0  0  0
  1  2  1  0  0  0  0
  1  3  2  0  0  0  0
  2  4  2  0  0  0  0
  3  6  1  0  0  0  0
  3 10  1  0  0  0  0
  4  5  1  0  0  0  0
  4 15  1  0  0  0  0
  5  6  2  0  0  0  0
  5 13  1  0  0  0  0
  6 16  1  0  0  0  0
  7  8  1  0  0  0  0
  7  9  1  0  0  0  0
  8 10  1  0  0  0  0
  9 10  1  0  0  0  0
 10 12  1  0  0  0  0
 11 15  1  0  0  0  0
 12 14  1  0  0  0  0
  1 17  1  0  0  0  0
  2 18  1  0  0  0  0
  7 19  1  0  0  0  0
  7 20  1  0  0  0  0
  8 21  1  0  0  0  0
  8 22  1  0  0  0  0
  9 23  1  0  0  0  0
  9 24  1  0  0  0  0
 11 25  1  0  0  0  0
 11 26  1  0  0  0  0
 11 27  1  0  0  0  0
 12 28  1  0  0  0  0
 12 29  1  0  0  0  0
 13 30  1  0  0  0  0
 14 31  1  0  0  0  0
M  END
> <id>
EN300-1935942

> <smiles>
COC=1C=CC(=C(Br)C1O)C2(CO)CCC2

> <IUPAC Name>
2-bromo-3-[1-(hydroxymethyl)cyclobutyl]-6-methoxyphenol

> <CAS>
2229620-36-2

> <URL>
https://www.enaminestore.com/catalog/EN300-1935942

> <ROCS_ShapeQuery>
_x1604L0AP1_x0771L0AP1

> <ROCS_TanimotoCombo>
0.947 

> <ROCS_ShapeTanimoto>
0.493 

> <ROCS_ColorTanimoto>
0.454 

> <ROCS_RefTversky>
0.475 

> <ROCS_RefColorTversky>
0.575 

> <ROCS_RefTverskyCombo>
1.050 

> <ROCS_FitTversky>
1.082 

> <ROCS_FitColorTversky>
0.683 

> <ROCS_FitTverskyCombo>
1.765 

> <ROCS_ColorScore>
-5.527

> <ROCS_Overlap>
799.791

> <ROCS_Rank>
425                 

$$$$
untitled-dbase-1218_71
  -OEChem-06052310023D

 22 22  0     1  0  0  0  0  0999 V2000
   -5.1143   11.8234  -31.6079 C   0  0  0  0  0  0  0  0  0  0  0  0
   -4.2558   12.2641  -29.3931 C   0  0  0  0  0  0  0  0  0  0  0  0
   -6.1300   11.0409  -31.0586 C   0  0  0  0  0  0  0  0  0  0  0  0
   -6.2085   10.8700  -29.6764 C   0  0  0  0  0  0  0  0  0  0  0  0
   -4.1772   12.4350  -30.7752 C   0  0  0  0  0  0  0  0  0  0  0  0
   -5.2714   11.4816  -28.8437 C   0  0  0  0  0  0  0  0  0  0  0  0
   -6.9017   10.7678  -33.4376 C   0  0  0  0  0  0  0  0  0  0  0  0
   -7.1719    8.8598  -31.8396 C   0  0  0  0  0  0  0  0  0  0  0  0
   -7.1230   10.3951  -31.9682 C   0  0  1  0  0  0  0  0  0  0  0  0
   -6.6865    9.9598  -34.3318 O   0  0  0  0  0  0  0  0  0  0  0  0
   -7.2080   10.1014  -29.1542 O   0  0  0  0  0  0  0  0  0  0  0  0
   -6.9585   12.1074  -33.6611 O   0  0  0  0  0  0  0  0  0  0  0  0
   -2.9240   13.4003  -31.4537 Cl  0  0  0  0  0  0  0  0  0  0  0  0
   -5.3450   11.2729  -26.9606 Br  0  0  0  0  0  0  0  0  0  0  0  0
   -5.0568   11.9546  -32.6865 H   0  0  0  0  0  0  0  0  0  0  0  0
   -3.5227   12.7424  -28.7472 H   0  0  0  0  0  0  0  0  0  0  0  0
   -6.2055    8.4031  -32.0799 H   0  0  0  0  0  0  0  0  0  0  0  0
   -7.4449    8.5670  -30.8199 H   0  0  0  0  0  0  0  0  0  0  0  0
   -7.9076    8.4184  -32.5211 H   0  0  0  0  0  0  0  0  0  0  0  0
   -8.1335   10.7650  -31.7090 H   0  0  0  0  0  0  0  0  0  0  0  0
   -7.1362   10.0739  -28.1880 H   0  0  0  0  0  0  0  0  0  0  0  0
   -7.1372   12.6583  -32.8695 H   0  0  0  0  0  0  0  0  0  0  0  0
  1  3  2  0  0  0  0
  1  5  1  0  0  0  0
  2  5  2  0  0  0  0
  2  6  1  0  0  0  0
  3  4  1  0  0  0  0
  3  9  1  0  0  0  0
  4  6  2  0  0  0  0
  4 11  1  0  0  0  0
  5 13  1  0  0  0  0
  6 14  1  0  0  0  0
  7  9  1  0  0  0  0
  7 10  2  0  0  0  0
  7 12  1  0  0  0  0
  8  9  1  0  0  0  0
  1 15  1  0  0  0  0
  2 16  1  0  0  0  0
  8 17  1  0  0  0  0
  8 18  1  0  0  0  0
  8 19  1  0  0  0  0
  9 20  1  0  0  0  0
 11 21  1  0  0  0  0
 12 22  1  0  0  0  0
M  END
> <id>
EN300-1915275

> <smiles>
CC(C(=O)O)C=1C=C(Cl)C=C(Br)C1O

> <MDLNUMBER>
MFCD28023230

> <IUPAC Name>
2-(3-bromo-5-chloro-2-hydroxyphenyl)propanoic acid

> <CAS>
1784210-89-4

> <URL>
https://www.enaminestore.com/catalog/EN300-1915275

> <ROCS_ShapeQuery>
_x1604L0AP1_x0771L0AP1

> <ROCS_TanimotoCombo>
0.947 

> <ROCS_ShapeTanimoto>
0.584 

> <ROCS_ColorTanimoto>
0.363 

> <ROCS_RefTversky>
0.511 

> <ROCS_RefColorTversky>
0.490 

> <ROCS_RefTverskyCombo>
1.001 

> <ROCS_FitTversky>
1.328 

> <ROCS_FitColorTversky>
0.582 

> <ROCS_FitTverskyCombo>
1.910 

> <ROCS_ColorScore>
-4.714

> <ROCS_Overlap>
856.557

> <ROCS_Rank>
426                 

$$$$
untitled-dbase-932_160
  -OEChem-06052310023D

 30 30  0     1  0  0  0  0  0999 V2000
   -6.3708   10.1563  -31.0140 C   0  0  0  0  0  0  0  0  0  0  0  0
   -4.5719   11.6055  -31.7217 C   0  0  0  0  0  0  0  0  0  0  0  0
   -5.4934   10.5972  -32.0046 C   0  0  0  0  0  0  0  0  0  0  0  0
   -6.3268   10.7236  -29.7404 C   0  0  0  0  0  0  0  0  0  0  0  0
   -5.4053   11.7318  -29.4575 C   0  0  0  0  0  0  0  0  0  0  0  0
   -4.5279   12.1728  -30.4481 C   0  0  0  0  0  0  0  0  0  0  0  0
   -6.9446    8.5375  -35.7259 C   0  0  0  0  0  0  0  0  0  0  0  0
   -8.0987    9.2484  -29.1573 C   0  0  0  0  0  0  0  0  0  0  0  0
   -5.5407    9.9830  -33.3810 C   0  0  0  0  0  0  0  0  0  0  0  0
   -5.9983    8.5172  -33.3896 C   0  0  0  0  0  0  0  0  0  0  0  0
   -5.9652    7.8606  -34.7753 C   0  0  1  0  0  0  0  0  0  0  0  0
   -5.3769   12.2736  -28.2055 O   0  0  0  0  0  0  0  0  0  0  0  0
   -6.3192    6.4863  -34.6518 O   0  0  0  0  0  0  0  0  0  0  0  0
   -7.1898   10.2819  -28.7832 O   0  0  0  0  0  0  0  0  0  0  0  0
   -3.2618   13.5406  -30.1013 Br  0  0  0  0  0  0  0  0  0  0  0  0
   -7.0899    9.3702  -31.2320 H   0  0  0  0  0  0  0  0  0  0  0  0
   -3.8915   11.9424  -32.5007 H   0  0  0  0  0  0  0  0  0  0  0  0
   -7.9654    8.5007  -35.3297 H   0  0  0  0  0  0  0  0  0  0  0  0
   -6.6715    9.5826  -35.9001 H   0  0  0  0  0  0  0  0  0  0  0  0
   -6.9631    8.0180  -36.6900 H   0  0  0  0  0  0  0  0  0  0  0  0
   -8.7290    8.9897  -28.3030 H   0  0  0  0  0  0  0  0  0  0  0  0
   -7.5377    8.3710  -29.4888 H   0  0  0  0  0  0  0  0  0  0  0  0
   -8.7274    9.6070  -29.9757 H   0  0  0  0  0  0  0  0  0  0  0  0
   -6.1803   10.5819  -34.0410 H   0  0  0  0  0  0  0  0  0  0  0  0
   -4.5345   10.0438  -33.8159 H   0  0  0  0  0  0  0  0  0  0  0  0
   -7.0077    8.4359  -32.9683 H   0  0  0  0  0  0  0  0  0  0  0  0
   -5.3258    7.9647  -32.7203 H   0  0  0  0  0  0  0  0  0  0  0  0
   -4.9571    7.9147  -35.1999 H   0  0  0  0  0  0  0  0  0  0  0  0
   -6.0480   11.8539  -27.6458 H   0  0  0  0  0  0  0  0  0  0  0  0
   -5.6777    6.0888  -34.0425 H   0  0  0  0  0  0  0  0  0  0  0  0
  1  3  1  0  0  0  0
  1  4  2  0  0  0  0
  2  3  2  0  0  0  0
  2  6  1  0  0  0  0
  3  9  1  0  0  0  0
  4  5  1  0  0  0  0
  4 14  1  0  0  0  0
  5  6  2  0  0  0  0
  5 12  1  0  0  0  0
  6 15  1  0  0  0  0
  7 11  1  0  0  0  0
  8 14  1  0  0  0  0
  9 10  1  0  0  0  0
 10 11  1  0  0  0  0
 11 13  1  0  0  0  0
  1 16  1  0  0  0  0
  2 17  1  0  0  0  0
  7 18  1  0  0  0  0
  7 19  1  0  0  0  0
  7 20  1  0  0  0  0
  8 21  1  0  0  0  0
  8 22  1  0  0  0  0
  8 23  1  0  0  0  0
  9 24  1  0  0  0  0
  9 25  1  0  0  0  0
 10 26  1  0  0  0  0
 10 27  1  0  0  0  0
 11 28  1  0  0  0  0
 12 29  1  0  0  0  0
 13 30  1  0  0  0  0
M  END
> <id>
EN300-1927030

> <smiles>
COC=1C=C(CCC(C)O)C=C(Br)C1O

> <IUPAC Name>
2-bromo-4-(3-hydroxybutyl)-6-methoxyphenol

> <CAS>
2229625-03-8

> <URL>
https://www.enaminestore.com/catalog/EN300-1927030

> <ROCS_ShapeQuery>
_x1604L0AP1_x0771L0AP1

> <ROCS_TanimotoCombo>
0.947 

> <ROCS_ShapeTanimoto>
0.578 

> <ROCS_ColorTanimoto>
0.369 

> <ROCS_RefTversky>
0.514 

> <ROCS_RefColorTversky>
0.471 

> <ROCS_RefTverskyCombo>
0.985 

> <ROCS_FitTversky>
1.270 

> <ROCS_FitColorTversky>
0.631 

> <ROCS_FitTverskyCombo>
1.901 

> <ROCS_ColorScore>
-4.503

> <ROCS_Overlap>
863.940

> <ROCS_Rank>
427                 

$$$$
untitled-dbase-578_160
  -OEChem-06052310023D

 30 30  0     1  0  0  0  0  0999 V2000
   -6.3708   10.1563  -31.0140 C   0  0  0  0  0  0  0  0  0  0  0  0
   -4.5719   11.6055  -31.7217 C   0  0  0  0  0  0  0  0  0  0  0  0
   -5.4934   10.5972  -32.0046 C   0  0  0  0  0  0  0  0  0  0  0  0
   -6.3268   10.7236  -29.7404 C   0  0  0  0  0  0  0  0  0  0  0  0
   -5.4053   11.7318  -29.4575 C   0  0  0  0  0  0  0  0  0  0  0  0
   -4.5279   12.1728  -30.4481 C   0  0  0  0  0  0  0  0  0  0  0  0
   -6.9446    8.5375  -35.7259 C   0  0  0  0  0  0  0  0  0  0  0  0
   -8.0987    9.2484  -29.1573 C   0  0  0  0  0  0  0  0  0  0  0  0
   -5.5407    9.9830  -33.3810 C   0  0  0  0  0  0  0  0  0  0  0  0
   -5.9983    8.5172  -33.3896 C   0  0  0  0  0  0  0  0  0  0  0  0
   -5.9652    7.8606  -34.7753 C   0  0  1  0  0  0  0  0  0  0  0  0
   -5.3769   12.2736  -28.2055 O   0  0  0  0  0  0  0  0  0  0  0  0
   -6.3192    6.4863  -34.6518 O   0  0  0  0  0  0  0  0  0  0  0  0
   -7.1898   10.2819  -28.7832 O   0  0  0  0  0  0  0  0  0  0  0  0
   -3.2618   13.5406  -30.1013 Br  0  0  0  0  0  0  0  0  0  0  0  0
   -7.0899    9.3702  -31.2320 H   0  0  0  0  0  0  0  0  0  0  0  0
   -3.8915   11.9424  -32.5007 H   0  0  0  0  0  0  0  0  0  0  0  0
   -7.9654    8.5007  -35.3297 H   0  0  0  0  0  0  0  0  0  0  0  0
   -6.6715    9.5826  -35.9001 H   0  0  0  0  0  0  0  0  0  0  0  0
   -6.9631    8.0180  -36.6900 H   0  0  0  0  0  0  0  0  0  0  0  0
   -8.7290    8.9897  -28.3030 H   0  0  0  0  0  0  0  0  0  0  0  0
   -7.5377    8.3710  -29.4888 H   0  0  0  0  0  0  0  0  0  0  0  0
   -8.7274    9.6070  -29.9757 H   0  0  0  0  0  0  0  0  0  0  0  0
   -6.1803   10.5819  -34.0410 H   0  0  0  0  0  0  0  0  0  0  0  0
   -4.5345   10.0438  -33.8159 H   0  0  0  0  0  0  0  0  0  0  0  0
   -7.0077    8.4359  -32.9683 H   0  0  0  0  0  0  0  0  0  0  0  0
   -5.3258    7.9647  -32.7203 H   0  0  0  0  0  0  0  0  0  0  0  0
   -4.9571    7.9147  -35.1999 H   0  0  0  0  0  0  0  0  0  0  0  0
   -6.0480   11.8539  -27.6458 H   0  0  0  0  0  0  0  0  0  0  0  0
   -5.6777    6.0888  -34.0425 H   0  0  0  0  0  0  0  0  0  0  0  0
  1  3  1  0  0  0  0
  1  4  2  0  0  0  0
  2  3  2  0  0  0  0
  2  6  1  0  0  0  0
  3  9  1  0  0  0  0
  4  5  1  0  0  0  0
  4 14  1  0  0  0  0
  5  6  2  0  0  0  0
  5 12  1  0  0  0  0
  6 15  1  0  0  0  0
  7 11  1  6  0  0  0
  8 14  1  0  0  0  0
  9 10  1  0  0  0  0
 10 11  1  0  0  0  0
 11 13  1  0  0  0  0
  1 16  1  0  0  0  0
  2 17  1  0  0  0  0
  7 18  1  0  0  0  0
  7 19  1  0  0  0  0
  7 20  1  0  0  0  0
  8 21  1  0  0  0  0
  8 22  1  0  0  0  0
  8 23  1  0  0  0  0
  9 24  1  0  0  0  0
  9 25  1  0  0  0  0
 10 26  1  0  0  0  0
 10 27  1  0  0  0  0
 11 28  1  0  0  0  0
 12 29  1  0  0  0  0
 13 30  1  0  0  0  0
M  END
> <id>
EN300-1927033

> <smiles>
COC=1C=C(CC[C@H](C)O)C=C(Br)C1O

> <IUPAC Name>
2-bromo-4-[(3S)-3-hydroxybutyl]-6-methoxyphenol

> <CAS>
2227800-15-7

> <URL>
https://www.enaminestore.com/catalog/EN300-1927033

> <ROCS_ShapeQuery>
_x1604L0AP1_x0771L0AP1

> <ROCS_TanimotoCombo>
0.947 

> <ROCS_ShapeTanimoto>
0.578 

> <ROCS_ColorTanimoto>
0.369 

> <ROCS_RefTversky>
0.514 

> <ROCS_RefColorTversky>
0.471 

> <ROCS_RefTverskyCombo>
0.985 

> <ROCS_FitTversky>
1.270 

> <ROCS_FitColorTversky>
0.631 

> <ROCS_FitTverskyCombo>
1.901 

> <ROCS_ColorScore>
-4.503

> <ROCS_Overlap>
863.940

> <ROCS_Rank>
428                 

$$$$
untitled-dbase-1369_450
  -OEChem-06052310023D

 24 24  0     1  0  0  0  0  0999 V2000
   -4.6116   12.4964  -29.8607 C   0  0  0  0  0  0  0  0  0  0  0  0
   -5.0831   11.1495  -31.8102 C   0  0  0  0  0  0  0  0  0  0  0  0
   -4.3633   12.1737  -31.1948 C   0  0  0  0  0  0  0  0  0  0  0  0
   -5.5795   11.7948  -29.1419 C   0  0  0  0  0  0  0  0  0  0  0  0
   -6.2992   10.7706  -29.7573 C   0  0  0  0  0  0  0  0  0  0  0  0
   -6.0510   10.4479  -31.0914 C   0  0  0  0  0  0  0  0  0  0  0  0
   -5.0307   13.1813  -27.2893 C   0  0  0  0  0  0  0  0  0  0  0  0
   -2.1551   13.3755  -31.0829 C   0  0  0  0  0  0  0  0  0  0  0  0
   -3.3291   12.9246  -31.9632 C   0  0  1  0  0  0  0  0  0  0  0  0
   -7.2426   10.0967  -29.0379 O   0  0  0  0  0  0  0  0  0  0  0  0
   -2.8476   12.0645  -33.0024 O   0  0  0  0  0  0  0  0  0  0  0  0
   -5.8110   12.1220  -27.8398 O   0  0  0  0  0  0  0  0  0  0  0  0
   -2.5541   14.8643  -30.1850 Cl  0  0  0  0  0  0  0  0  0  0  0  0
   -7.0089    9.0626  -31.9617 Br  0  0  0  0  0  0  0  0  0  0  0  0
   -4.0520   13.2946  -29.3788 H   0  0  0  0  0  0  0  0  0  0  0  0
   -4.8825   10.9054  -32.8511 H   0  0  0  0  0  0  0  0  0  0  0  0
   -5.3148   13.3400  -26.2461 H   0  0  0  0  0  0  0  0  0  0  0  0
   -5.1962   14.0947  -27.8661 H   0  0  0  0  0  0  0  0  0  0  0  0
   -3.9742   12.9076  -27.3392 H   0  0  0  0  0  0  0  0  0  0  0  0
   -1.2666   13.6002  -31.6814 H   0  0  0  0  0  0  0  0  0  0  0  0
   -1.9000   12.6100  -30.3435 H   0  0  0  0  0  0  0  0  0  0  0  0
   -3.7701   13.8041  -32.4645 H   0  0  0  0  0  0  0  0  0  0  0  0
   -7.2859   10.4468  -28.1350 H   0  0  0  0  0  0  0  0  0  0  0  0
   -2.1802   12.5729  -33.4848 H   0  0  0  0  0  0  0  0  0  0  0  0
  1  3  1  0  0  0  0
  1  4  2  0  0  0  0
  2  3  2  0  0  0  0
  2  6  1  0  0  0  0
  3  9  1  0  0  0  0
  4  5  1  0  0  0  0
  4 12  1  0  0  0  0
  5  6  2  0  0  0  0
  5 10  1  0  0  0  0
  6 14  1  0  0  0  0
  7 12  1  0  0  0  0
  8  9  1  0  0  0  0
  8 13  1  0  0  0  0
  9 11  1  0  0  0  0
  1 15  1  0  0  0  0
  2 16  1  0  0  0  0
  7 17  1  0  0  0  0
  7 18  1  0  0  0  0
  7 19  1  0  0  0  0
  8 20  1  0  0  0  0
  8 21  1  0  0  0  0
  9 22  1  0  0  0  0
 10 23  1  0  0  0  0
 11 24  1  0  0  0  0
M  END
> <id>
EN300-1927034

> <smiles>
COC=1C=C(C=C(Br)C1O)C(O)CCl

> <IUPAC Name>
2-bromo-4-(2-chloro-1-hydroxyethyl)-6-methoxyphenol

> <CAS>
2229467-33-6

> <URL>
https://www.enaminestore.com/catalog/EN300-1927034

> <ROCS_ShapeQuery>
_x1604L0AP1_x0771L0AP1

> <ROCS_TanimotoCombo>
0.947 

> <ROCS_ShapeTanimoto>
0.534 

> <ROCS_ColorTanimoto>
0.413 

> <ROCS_RefTversky>
0.481 

> <ROCS_RefColorTversky>
0.510 

> <ROCS_RefTverskyCombo>
0.991 

> <ROCS_FitTversky>
1.260 

> <ROCS_FitColorTversky>
0.684 

> <ROCS_FitTverskyCombo>
1.944 

> <ROCS_ColorScore>
-4.880

> <ROCS_Overlap>
806.489

> <ROCS_Rank>
429                 

$$$$
untitled-dbase-1982_0
  -OEChem-06052310023D

 13 13  0     0  0  0  0  0  0999 V2000
   -5.5617   11.7767  -29.1373 C   0  0  0  0  0  0  0  0  0  0  0  0
   -4.5814   12.4668  -29.8503 C   0  0  0  0  0  0  0  0  0  0  0  0
   -5.0603   11.1285  -31.8039 C   0  0  0  0  0  0  0  0  0  0  0  0
   -6.2913   10.7625  -29.7575 C   0  0  0  0  0  0  0  0  0  0  0  0
   -6.0406   10.4384  -31.0909 C   0  0  0  0  0  0  0  0  0  0  0  0
   -4.3307   12.1427  -31.1836 C   0  0  0  0  0  0  0  0  0  0  0  0
   -7.2414   10.1066  -29.0326 O   0  0  0  0  0  0  0  0  0  0  0  0
   -7.0111    9.0645  -31.9646 Br  0  0  0  0  0  0  0  0  0  0  0  0
   -2.8710   13.1723  -32.2449 I   0  0  0  0  0  0  0  0  0  0  0  0
   -5.7518   12.0342  -28.0988 H   0  0  0  0  0  0  0  0  0  0  0  0
   -4.0263   13.2553  -29.3484 H   0  0  0  0  0  0  0  0  0  0  0  0
   -4.8667   10.8729  -32.8436 H   0  0  0  0  0  0  0  0  0  0  0  0
   -7.6712    9.4305  -29.5791 H   0  0  0  0  0  0  0  0  0  0  0  0
  1  2  1  0  0  0  0
  1  4  2  0  0  0  0
  2  6  2  0  0  0  0
  3  5  2  0  0  0  0
  3  6  1  0  0  0  0
  4  5  1  0  0  0  0
  4  7  1  0  0  0  0
  5  8  1  0  0  0  0
  6  9  1  0  0  0  0
  1 10  1  0  0  0  0
  2 11  1  0  0  0  0
  3 12  1  0  0  0  0
  7 13  1  0  0  0  0
M  END
> <id>
EN300-196203

> <smiles>
OC=1C=CC(I)=CC1Br

> <MDLNUMBER>
MFCD11870189

> <IUPAC Name>
2-bromo-4-iodophenol

> <CAS>
133430-98-5

> <Purity>
95

> <URL>
https://www.enaminestore.com/catalog/EN300-196203

> <MP>
50-54

> <ROCS_ShapeQuery>
_x1604L0AP1_x0771L0AP1

> <ROCS_TanimotoCombo>
0.947 

> <ROCS_ShapeTanimoto>
0.450 

> <ROCS_ColorTanimoto>
0.497 

> <ROCS_RefTversky>
0.390 

> <ROCS_RefColorTversky>
0.515 

> <ROCS_RefTverskyCombo>
0.905 

> <ROCS_FitTversky>
1.518 

> <ROCS_FitColorTversky>
0.932 

> <ROCS_FitTverskyCombo>
2.450 

> <ROCS_ColorScore>
-4.879

> <ROCS_Overlap>
649.721

> <ROCS_Rank>
430                 

$$$$
untitled-dbase-1528_32
  -OEChem-06052310023D

 21 21  0     1  0  0  0  0  0999 V2000
   -4.6064   12.4920  -29.8606 C   0  0  0  0  0  0  0  0  0  0  0  0
   -4.3634   12.1799  -31.1982 C   0  0  0  0  0  0  0  0  0  0  0  0
   -5.5725   11.7857  -29.1440 C   0  0  0  0  0  0  0  0  0  0  0  0
   -5.0865   11.1616  -31.8193 C   0  0  0  0  0  0  0  0  0  0  0  0
   -6.2957   10.7674  -29.7651 C   0  0  0  0  0  0  0  0  0  0  0  0
   -6.0527   10.4553  -31.1027 C   0  0  0  0  0  0  0  0  0  0  0  0
   -6.0094   10.4071  -34.0455 C   0  0  0  0  0  0  0  0  0  0  0  0
   -3.6663    9.8321  -33.4375 C   0  0  0  0  0  0  0  0  0  0  0  0
   -4.7886   10.8663  -33.2542 C   0  0  2  0  0  0  0  0  0  0  0  0
   -6.0967    9.3213  -34.6107 O   0  0  0  0  0  0  0  0  0  0  0  0
   -7.2323   10.0994  -29.0333 O   0  0  0  0  0  0  0  0  0  0  0  0
   -7.0452    9.0638  -31.9392 Br  0  0  0  0  0  0  0  0  0  0  0  0
   -4.0437   13.2853  -29.3772 H   0  0  0  0  0  0  0  0  0  0  0  0
   -3.6083   12.7369  -31.7471 H   0  0  0  0  0  0  0  0  0  0  0  0
   -5.7566   12.0351  -28.1024 H   0  0  0  0  0  0  0  0  0  0  0  0
   -6.8732   11.0954  -34.0418 H   0  0  0  0  0  0  0  0  0  0  0  0
   -3.9279    8.8858  -32.9516 H   0  0  0  0  0  0  0  0  0  0  0  0
   -3.4717    9.6284  -34.4963 H   0  0  0  0  0  0  0  0  0  0  0  0
   -2.7246   10.1853  -33.0021 H   0  0  0  0  0  0  0  0  0  0  0  0
   -4.4507   11.7839  -33.7680 H   0  0  0  0  0  0  0  0  0  0  0  0
   -7.6606    9.4212  -29.5782 H   0  0  0  0  0  0  0  0  0  0  0  0
  1  2  1  0  0  0  0
  1  3  2  0  0  0  0
  2  4  2  0  0  0  0
  3  5  1  0  0  0  0
  4  6  1  0  0  0  0
  4  9  1  0  0  0  0
  5  6  2  0  0  0  0
  5 11  1  0  0  0  0
  6 12  1  0  0  0  0
  7  9  1  0  0  0  0
  7 10  2  0  0  0  0
  8  9  1  0  0  0  0
  1 13  1  0  0  0  0
  2 14  1  0  0  0  0
  3 15  1  0  0  0  0
  7 16  1  0  0  0  0
  8 17  1  0  0  0  0
  8 18  1  0  0  0  0
  8 19  1  0  0  0  0
  9 20  1  0  0  0  0
 11 21  1  0  0  0  0
M  END
> <id>
EN300-1904537

> <smiles>
CC(C=O)C=1C=CC=C(O)C1Br

> <IUPAC Name>
2-(2-bromo-3-hydroxyphenyl)propanal

> <CAS>
2229143-42-2

> <URL>
https://www.enaminestore.com/catalog/EN300-1904537

> <ROCS_ShapeQuery>
_x1604L0AP1_x0771L0AP1

> <ROCS_TanimotoCombo>
0.946 

> <ROCS_ShapeTanimoto>
0.495 

> <ROCS_ColorTanimoto>
0.451 

> <ROCS_RefTversky>
0.443 

> <ROCS_RefColorTversky>
0.513 

> <ROCS_RefTverskyCombo>
0.956 

> <ROCS_FitTversky>
1.315 

> <ROCS_FitColorTversky>
0.789 

> <ROCS_FitTverskyCombo>
2.105 

> <ROCS_ColorScore>
-4.882

> <ROCS_Overlap>
740.745

> <ROCS_Rank>
431                 

$$$$
untitled-dbase-2252_6818
  -OEChem-06052310023D

 34 35  0     0  0  0  0  0  0999 V2000
   -2.3321   14.8806  -30.4279 C   0  0  0  0  0  0  0  0  0  0  0  0
   -2.9897   14.9164  -29.1983 C   0  0  0  0  0  0  0  0  0  0  0  0
   -2.5066   13.7906  -31.2807 C   0  0  0  0  0  0  0  0  0  0  0  0
   -3.8216   13.8621  -28.8214 C   0  0  0  0  0  0  0  0  0  0  0  0
   -3.3385   12.7363  -30.9037 C   0  0  0  0  0  0  0  0  0  0  0  0
   -6.9570   10.6540  -35.1295 C   0  0  0  0  0  0  0  0  0  0  0  0
   -6.9083    9.7467  -36.1879 C   0  0  0  0  0  0  0  0  0  0  0  0
   -6.6241    8.8448  -33.5633 C   0  0  0  0  0  0  0  0  0  0  0  0
   -3.9961   12.7721  -29.6741 C   0  0  0  0  0  0  0  0  0  0  0  0
   -6.8148   10.2030  -33.8172 C   0  0  0  0  0  0  0  0  0  0  0  0
   -6.5755    7.9375  -34.6216 C   0  0  0  0  0  0  0  0  0  0  0  0
   -6.7176    8.3885  -35.9339 C   0  0  0  0  0  0  0  0  0  0  0  0
   -6.6988   10.4919  -30.2904 C   0  0  0  0  0  0  0  0  0  0  0  0
   -6.8662   11.1794  -32.6779 C   0  0  0  0  0  0  0  0  0  0  0  0
   -4.8906   11.6375  -29.2692 C   0  0  0  0  0  0  0  0  0  0  0  0
   -7.3980   10.5800  -31.4757 N   0  0  0  0  0  0  0  0  0  0  0  0
   -7.1130    9.9919  -29.2497 O   0  0  0  0  0  0  0  0  0  0  0  0
   -6.3847    6.6173  -34.3404 O   0  0  0  0  0  0  0  0  0  0  0  0
   -5.4606   11.0495  -30.4439 O   0  0  0  0  0  0  0  0  0  0  0  0
   -6.6573    7.1850  -37.3968 Br  0  0  0  0  0  0  0  0  0  0  0  0
   -1.6855   15.7022  -30.7218 H   0  0  0  0  0  0  0  0  0  0  0  0
   -2.8549   15.7655  -28.5346 H   0  0  0  0  0  0  0  0  0  0  0  0
   -1.9957   13.7629  -32.2385 H   0  0  0  0  0  0  0  0  0  0  0  0
   -4.3298   13.8985  -27.8613 H   0  0  0  0  0  0  0  0  0  0  0  0
   -3.4683   11.8912  -31.5745 H   0  0  0  0  0  0  0  0  0  0  0  0
   -7.1039   11.7108  -35.3368 H   0  0  0  0  0  0  0  0  0  0  0  0
   -7.0210   10.1166  -37.2039 H   0  0  0  0  0  0  0  0  0  0  0  0
   -6.5130    8.4918  -32.5406 H   0  0  0  0  0  0  0  0  0  0  0  0
   -5.8645   11.5602  -32.4502 H   0  0  0  0  0  0  0  0  0  0  0  0
   -7.4930   12.0420  -32.9274 H   0  0  0  0  0  0  0  0  0  0  0  0
   -4.3294   10.8718  -28.7228 H   0  0  0  0  0  0  0  0  0  0  0  0
   -5.6966   11.9927  -28.6180 H   0  0  0  0  0  0  0  0  0  0  0  0
   -8.3399   10.2022  -31.5052 H   0  0  0  0  0  0  0  0  0  0  0  0
   -6.3712    6.0995  -35.1602 H   0  0  0  0  0  0  0  0  0  0  0  0
  1  2  2  0  0  0  0
  1  3  1  0  0  0  0
  2  4  1  0  0  0  0
  3  5  2  0  0  0  0
  4  9  2  0  0  0  0
  5  9  1  0  0  0  0
  6  7  1  0  0  0  0
  6 10  2  0  0  0  0
  7 12  2  0  0  0  0
  8 10  1  0  0  0  0
  8 11  2  0  0  0  0
  9 15  1  0  0  0  0
 10 14  1  0  0  0  0
 11 12  1  0  0  0  0
 11 18  1  0  0  0  0
 12 20  1  0  0  0  0
 13 16  1  0  0  0  0
 13 17  2  0  0  0  0
 13 19  1  0  0  0  0
 14 16  1  0  0  0  0
 15 19  1  0  0  0  0
  1 21  1  0  0  0  0
  2 22  1  0  0  0  0
  3 23  1  0  0  0  0
  4 24  1  0  0  0  0
  5 25  1  0  0  0  0
  6 26  1  0  0  0  0
  7 27  1  0  0  0  0
  8 28  1  0  0  0  0
 14 29  1  0  0  0  0
 14 30  1  0  0  0  0
 15 31  1  0  0  0  0
 15 32  1  0  0  0  0
 16 33  1  0  0  0  0
 18 34  1  0  0  0  0
M  END
> <id>
EN300-37388837

> <smiles>
OC=1C=C(CNC(=O)OCC=2C=CC=CC2)C=CC1Br

> <IUPAC Name>
benzyl N-[(4-bromo-3-hydroxyphenyl)methyl]carbamate

> <CAS>
2763993-16-2

> <URL>
https://www.enaminestore.com/catalog/EN300-37388837

> <ROCS_ShapeQuery>
_x1604L0AP1_x0771L0AP1

> <ROCS_TanimotoCombo>
0.946 

> <ROCS_ShapeTanimoto>
0.657 

> <ROCS_ColorTanimoto>
0.290 

> <ROCS_RefTversky>
0.611 

> <ROCS_RefColorTversky>
0.392 

> <ROCS_RefTverskyCombo>
1.003 

> <ROCS_FitTversky>
1.129 

> <ROCS_FitColorTversky>
0.526 

> <ROCS_FitTverskyCombo>
1.655 

> <ROCS_ColorScore>
-3.751

> <ROCS_Overlap>
1033.319

> <ROCS_Rank>
432                 

$$$$
untitled-dbase-1692_223
  -OEChem-06052310023D

 28 29  0     0  0  0  0  0  0999 V2000
   -3.0346   14.2971  -31.6022 C   0  0  0  0  0  0  0  0  0  0  0  0
   -4.6023   12.4869  -29.8418 C   0  0  0  0  0  0  0  0  0  0  0  0
   -5.0702   11.1475  -31.7972 C   0  0  0  0  0  0  0  0  0  0  0  0
   -4.3493   12.1671  -31.1756 C   0  0  0  0  0  0  0  0  0  0  0  0
   -5.5761   11.7871  -29.1293 C   0  0  0  0  0  0  0  0  0  0  0  0
   -6.2971   10.7675  -29.7508 C   0  0  0  0  0  0  0  0  0  0  0  0
   -6.0442   10.4477  -31.0848 C   0  0  0  0  0  0  0  0  0  0  0  0
   -3.1443   12.5544  -33.4128 C   0  0  0  0  0  0  0  0  0  0  0  0
   -2.1087   12.1107  -32.4327 C   0  0  0  0  0  0  0  0  0  0  0  0
   -3.3096   12.9160  -31.9367 C   0  0  0  0  0  0  0  0  0  0  0  0
   -5.2391   14.1003  -26.6256 C   0  0  0  0  0  0  0  0  0  0  0  0
   -6.2362   13.4452  -27.5574 C   0  0  0  0  0  0  0  0  0  0  0  0
   -2.8142   15.4042  -31.3340 N   0  0  0  0  0  0  0  0  0  0  0  0
   -7.2453   10.0948  -29.0370 O   0  0  0  0  0  0  0  0  0  0  0  0
   -5.8124   12.1104  -27.8272 O   0  0  0  0  0  0  0  0  0  0  0  0
   -7.0043    9.0699  -31.9645 Br  0  0  0  0  0  0  0  0  0  0  0  0
   -4.0424   13.2817  -29.3546 H   0  0  0  0  0  0  0  0  0  0  0  0
   -4.8674   10.9051  -32.8381 H   0  0  0  0  0  0  0  0  0  0  0  0
   -2.8680   13.3304  -34.1183 H   0  0  0  0  0  0  0  0  0  0  0  0
   -3.7912   11.7948  -33.8380 H   0  0  0  0  0  0  0  0  0  0  0  0
   -2.0596   11.0534  -32.1967 H   0  0  0  0  0  0  0  0  0  0  0  0
   -1.1360   12.5883  -32.4785 H   0  0  0  0  0  0  0  0  0  0  0  0
   -5.1742   13.5568  -25.6790 H   0  0  0  0  0  0  0  0  0  0  0  0
   -4.2453   14.1318  -27.0841 H   0  0  0  0  0  0  0  0  0  0  0  0
   -5.5272   15.1364  -26.4190 H   0  0  0  0  0  0  0  0  0  0  0  0
   -6.2964   13.9937  -28.5022 H   0  0  0  0  0  0  0  0  0  0  0  0
   -7.2284   13.4138  -27.0974 H   0  0  0  0  0  0  0  0  0  0  0  0
   -7.2907   10.4422  -28.1331 H   0  0  0  0  0  0  0  0  0  0  0  0
  1 10  1  0  0  0  0
  1 13  3  0  0  0  0
  2  4  1  0  0  0  0
  2  5  2  0  0  0  0
  3  4  2  0  0  0  0
  3  7  1  0  0  0  0
  4 10  1  0  0  0  0
  5  6  1  0  0  0  0
  5 15  1  0  0  0  0
  6  7  2  0  0  0  0
  6 14  1  0  0  0  0
  7 16  1  0  0  0  0
  8  9  1  0  0  0  0
  8 10  1  0  0  0  0
  9 10  1  0  0  0  0
 11 12  1  0  0  0  0
 12 15  1  0  0  0  0
  2 17  1  0  0  0  0
  3 18  1  0  0  0  0
  8 19  1  0  0  0  0
  8 20  1  0  0  0  0
  9 21  1  0  0  0  0
  9 22  1  0  0  0  0
 11 23  1  0  0  0  0
 11 24  1  0  0  0  0
 11 25  1  0  0  0  0
 12 26  1  0  0  0  0
 12 27  1  0  0  0  0
 14 28  1  0  0  0  0
M  END
> <id>
EN300-1920249

> <smiles>
CCOC=1C=C(C=C(Br)C1O)C2(CC2)C#N

> <IUPAC Name>
1-(3-bromo-5-ethoxy-4-hydroxyphenyl)cyclopropane-1-carbonitrile

> <CAS>
2228782-32-7

> <URL>
https://www.enaminestore.com/catalog/EN300-1920249

> <ROCS_ShapeQuery>
_x1604L0AP1_x0771L0AP1

> <ROCS_TanimotoCombo>
0.946 

> <ROCS_ShapeTanimoto>
0.495 

> <ROCS_ColorTanimoto>
0.451 

> <ROCS_RefTversky>
0.477 

> <ROCS_RefColorTversky>
0.513 

> <ROCS_RefTverskyCombo>
0.990 

> <ROCS_FitTversky>
1.085 

> <ROCS_FitColorTversky>
0.789 

> <ROCS_FitTverskyCombo>
1.874 

> <ROCS_ColorScore>
-4.880

> <ROCS_Overlap>
802.325

> <ROCS_Rank>
433                 

$$$$
untitled-dbase-1374_8
  -OEChem-06052310023D

 21 21  0     0  0  0  0  0  0999 V2000
   -4.5784   12.4741  -29.8772 C   0  0  0  0  0  0  0  0  0  0  0  0
   -5.0699   11.1231  -31.8189 C   0  0  0  0  0  0  0  0  0  0  0  0
   -5.5537   11.7885  -29.1532 C   0  0  0  0  0  0  0  0  0  0  0  0
   -4.3366   12.1415  -31.2101 C   0  0  0  0  0  0  0  0  0  0  0  0
   -6.2871   10.7701  -29.7620 C   0  0  0  0  0  0  0  0  0  0  0  0
   -6.0452   10.4374  -31.0949 C   0  0  0  0  0  0  0  0  0  0  0  0
   -5.7869   12.1542  -27.7628 C   0  0  0  0  0  0  0  0  0  0  0  0
   -3.2940   12.8752  -31.9841 C   0  0  0  0  0  0  0  0  0  0  0  0
   -4.9517   13.2607  -27.1896 C   0  0  0  0  0  0  0  0  0  0  0  0
   -6.6142   11.6200  -27.0232 O   0  0  0  0  0  0  0  0  0  0  0  0
   -7.2386   10.1062  -29.0426 O   0  0  0  0  0  0  0  0  0  0  0  0
   -7.0199    9.0585  -31.9573 Br  0  0  0  0  0  0  0  0  0  0  0  0
   -4.0044   13.2686  -29.4052 H   0  0  0  0  0  0  0  0  0  0  0  0
   -4.8747   10.8706  -32.8588 H   0  0  0  0  0  0  0  0  0  0  0  0
   -2.3220   12.3769  -31.8831 H   0  0  0  0  0  0  0  0  0  0  0  0
   -3.5504   12.9248  -33.0503 H   0  0  0  0  0  0  0  0  0  0  0  0
   -3.1923   13.9105  -31.6334 H   0  0  0  0  0  0  0  0  0  0  0  0
   -5.3921   14.2629  -27.3111 H   0  0  0  0  0  0  0  0  0  0  0  0
   -3.9329   13.2950  -27.6060 H   0  0  0  0  0  0  0  0  0  0  0  0
   -4.8009   13.1708  -26.0991 H   0  0  0  0  0  0  0  0  0  0  0  0
   -7.6617    9.4312  -29.5945 H   0  0  0  0  0  0  0  0  0  0  0  0
  1  3  2  0  0  0  0
  1  4  1  0  0  0  0
  2  4  2  0  0  0  0
  2  6  1  0  0  0  0
  3  5  1  0  0  0  0
  3  7  1  0  0  0  0
  4  8  1  0  0  0  0
  5  6  2  0  0  0  0
  5 11  1  0  0  0  0
  6 12  1  0  0  0  0
  7  9  1  0  0  0  0
  7 10  2  0  0  0  0
  1 13  1  0  0  0  0
  2 14  1  0  0  0  0
  8 15  1  0  0  0  0
  8 16  1  0  0  0  0
  8 17  1  0  0  0  0
  9 18  1  0  0  0  0
  9 19  1  0  0  0  0
  9 20  1  0  0  0  0
 11 21  1  0  0  0  0
M  END
> <id>
EN300-217930

> <smiles>
CC(=O)C=1C=C(C)C=C(Br)C1O

> <MDLNUMBER>
MFCD00464334

> <IUPAC Name>
1-(3-bromo-2-hydroxy-5-methylphenyl)ethan-1-one

> <CAS>
56609-15-5

> <Purity>
95

> <URL>
https://www.enaminestore.com/catalog/EN300-217930

> <MP>
88-89

> <ROCS_ShapeQuery>
_x1604L0AP1_x0771L0AP1

> <ROCS_TanimotoCombo>
0.946 

> <ROCS_ShapeTanimoto>
0.449 

> <ROCS_ColorTanimoto>
0.497 

> <ROCS_RefTversky>
0.416 

> <ROCS_RefColorTversky>
0.516 

> <ROCS_RefTverskyCombo>
0.931 

> <ROCS_FitTversky>
1.218 

> <ROCS_FitColorTversky>
0.932 

> <ROCS_FitTverskyCombo>
2.150 

> <ROCS_ColorScore>
-4.883

> <ROCS_Overlap>
695.474

> <ROCS_Rank>
434                 

$$$$
untitled-dbase-696_1
  -OEChem-06052310023D

 20 20  0     1  0  0  0  0  0999 V2000
   -4.5973   12.4798  -29.8377 C   0  0  0  0  0  0  0  0  0  0  0  0
   -5.5741   11.7811  -29.1283 C   0  0  0  0  0  0  0  0  0  0  0  0
   -5.0659   11.1457  -31.7968 C   0  0  0  0  0  0  0  0  0  0  0  0
   -4.3432   12.1621  -31.1720 C   0  0  0  0  0  0  0  0  0  0  0  0
   -6.2968   10.7648  -29.7531 C   0  0  0  0  0  0  0  0  0  0  0  0
   -6.0427   10.4471  -31.0874 C   0  0  0  0  0  0  0  0  0  0  0  0
   -1.9029   12.3003  -31.7844 C   0  0  0  0  0  0  0  0  0  0  0  0
   -3.2984   12.9096  -31.9294 C   0  0  2  0  0  0  0  0  0  0  0  0
   -7.2434   10.1000  -29.0317 O   0  0  0  0  0  0  0  0  0  0  0  0
   -3.2490   14.2588  -31.4512 O   0  0  0  0  0  0  0  0  0  0  0  0
   -7.0043    9.0711  -31.9676 Br  0  0  0  0  0  0  0  0  0  0  0  0
   -4.0395   13.2699  -29.3418 H   0  0  0  0  0  0  0  0  0  0  0  0
   -5.7665   12.0343  -28.0891 H   0  0  0  0  0  0  0  0  0  0  0  0
   -4.8612   10.9052  -32.8379 H   0  0  0  0  0  0  0  0  0  0  0  0
   -1.6165   12.2171  -30.7311 H   0  0  0  0  0  0  0  0  0  0  0  0
   -1.1485   12.9040  -32.3012 H   0  0  0  0  0  0  0  0  0  0  0  0
   -1.8637   11.3031  -32.2364 H   0  0  0  0  0  0  0  0  0  0  0  0
   -3.5322   12.9686  -33.0061 H   0  0  0  0  0  0  0  0  0  0  0  0
   -7.6684    9.4235  -29.5813 H   0  0  0  0  0  0  0  0  0  0  0  0
   -2.5617   14.7025  -31.9682 H   0  0  0  0  0  0  0  0  0  0  0  0
  1  2  1  0  0  0  0
  1  4  2  0  0  0  0
  2  5  2  0  0  0  0
  3  4  1  0  0  0  0
  3  6  2  0  0  0  0
  4  8  1  0  0  0  0
  5  6  1  0  0  0  0
  5  9  1  0  0  0  0
  6 11  1  0  0  0  0
  7  8  1  6  0  0  0
  8 10  1  0  0  0  0
  1 12  1  0  0  0  0
  2 13  1  0  0  0  0
  3 14  1  0  0  0  0
  7 15  1  0  0  0  0
  7 16  1  0  0  0  0
  7 17  1  0  0  0  0
  8 18  1  0  0  0  0
  9 19  1  0  0  0  0
 10 20  1  0  0  0  0
M  END
> <id>
EN300-1897511

> <smiles>
C[C@H](O)C=1C=CC(O)=C(Br)C1

> <MDLNUMBER>
MFCD22570052

> <IUPAC Name>
2-bromo-4-[(1S)-1-hydroxyethyl]phenol

> <CAS>
1932055-68-9

> <URL>
https://www.enaminestore.com/catalog/EN300-1897511

> <ROCS_ShapeQuery>
_x1604L0AP1_x0771L0AP1

> <ROCS_TanimotoCombo>
0.946 

> <ROCS_ShapeTanimoto>
0.495 

> <ROCS_ColorTanimoto>
0.451 

> <ROCS_RefTversky>
0.435 

> <ROCS_RefColorTversky>
0.513 

> <ROCS_RefTverskyCombo>
0.947 

> <ROCS_FitTversky>
1.391 

> <ROCS_FitColorTversky>
0.789 

> <ROCS_FitTverskyCombo>
2.180 

> <ROCS_ColorScore>
-4.878

> <ROCS_Overlap>
726.293

> <ROCS_Rank>
435                 

$$$$
untitled-dbase-834_16
  -OEChem-06052310023D

 21 21  0     1  0  0  0  0  0999 V2000
   -2.2265   11.4689  -33.8852 C   0  0  0  0  0  0  0  0  0  0  0  0
   -2.7097   12.1343  -33.0102 C   0  0  0  0  0  0  0  0  0  0  0  0
   -4.6175   12.5001  -29.8333 C   0  0  0  0  0  0  0  0  0  0  0  0
   -5.5883   11.7924  -29.1246 C   0  0  0  0  0  0  0  0  0  0  0  0
   -5.0754   11.1648  -31.7940 C   0  0  0  0  0  0  0  0  0  0  0  0
   -4.3611   12.1863  -31.1681 C   0  0  0  0  0  0  0  0  0  0  0  0
   -6.3027   10.7709  -29.7505 C   0  0  0  0  0  0  0  0  0  0  0  0
   -6.0462   10.4570  -31.0853 C   0  0  0  0  0  0  0  0  0  0  0  0
   -2.2153   13.5106  -31.0154 C   0  0  0  0  0  0  0  0  0  0  0  0
   -3.3228   12.9434  -31.9247 C   0  0  1  0  0  0  0  0  0  0  0  0
   -7.2435   10.0973  -29.0298 O   0  0  0  0  0  0  0  0  0  0  0  0
   -6.9965    9.0743  -31.9671 Br  0  0  0  0  0  0  0  0  0  0  0  0
   -1.7985   10.8788  -34.6613 H   0  0  0  0  0  0  0  0  0  0  0  0
   -4.0662   13.2942  -29.3365 H   0  0  0  0  0  0  0  0  0  0  0  0
   -5.7826   12.0426  -28.0850 H   0  0  0  0  0  0  0  0  0  0  0  0
   -4.8691   10.9273  -32.8355 H   0  0  0  0  0  0  0  0  0  0  0  0
   -1.6891   12.7142  -30.4763 H   0  0  0  0  0  0  0  0  0  0  0  0
   -2.6176   14.1985  -30.2631 H   0  0  0  0  0  0  0  0  0  0  0  0
   -1.4758   14.0592  -31.6094 H   0  0  0  0  0  0  0  0  0  0  0  0
   -3.7837   13.8224  -32.4152 H   0  0  0  0  0  0  0  0  0  0  0  0
   -7.6630    9.4180  -29.5802 H   0  0  0  0  0  0  0  0  0  0  0  0
  1  2  3  0  0  0  0
  2 10  1  0  0  0  0
  3  4  1  0  0  0  0
  3  6  2  0  0  0  0
  4  7  2  0  0  0  0
  5  6  1  0  0  0  0
  5  8  2  0  0  0  0
  6 10  1  0  0  0  0
  7  8  1  0  0  0  0
  7 11  1  0  0  0  0
  8 12  1  0  0  0  0
  9 10  1  0  0  0  0
  1 13  1  0  0  0  0
  3 14  1  0  0  0  0
  4 15  1  0  0  0  0
  5 16  1  0  0  0  0
  9 17  1  0  0  0  0
  9 18  1  0  0  0  0
  9 19  1  0  0  0  0
 10 20  1  0  0  0  0
 11 21  1  0  0  0  0
M  END
> <id>
EN300-1906338

> <smiles>
CC(C#C)C=1C=CC(O)=C(Br)C1

> <IUPAC Name>
2-bromo-4-(but-3-yn-2-yl)phenol

> <CAS>
2228552-59-6

> <URL>
https://www.enaminestore.com/catalog/EN300-1906338

> <ROCS_ShapeQuery>
_x1604L0AP1_x0771L0AP1

> <ROCS_TanimotoCombo>
0.946 

> <ROCS_ShapeTanimoto>
0.495 

> <ROCS_ColorTanimoto>
0.451 

> <ROCS_RefTversky>
0.442 

> <ROCS_RefColorTversky>
0.512 

> <ROCS_RefTverskyCombo>
0.955 

> <ROCS_FitTversky>
1.319 

> <ROCS_FitColorTversky>
0.788 

> <ROCS_FitTverskyCombo>
2.107 

> <ROCS_ColorScore>
-4.877

> <ROCS_Overlap>
739.869

> <ROCS_Rank>
436                 

$$$$
untitled-dbase-2137_8
  -OEChem-06052310023D

 18 18  0     0  0  0  0  0  0999 V2000
   -4.5767   12.4724  -29.8724 C   0  0  0  0  0  0  0  0  0  0  0  0
   -5.0665   11.1231  -31.8157 C   0  0  0  0  0  0  0  0  0  0  0  0
   -5.5528   11.7864  -29.1499 C   0  0  0  0  0  0  0  0  0  0  0  0
   -6.2858   10.7686  -29.7603 C   0  0  0  0  0  0  0  0  0  0  0  0
   -4.3335   12.1408  -31.2054 C   0  0  0  0  0  0  0  0  0  0  0  0
   -6.0427   10.4370  -31.0932 C   0  0  0  0  0  0  0  0  0  0  0  0
   -5.7859   12.1507  -27.7588 C   0  0  0  0  0  0  0  0  0  0  0  0
   -4.9496   13.2556  -27.1845 C   0  0  0  0  0  0  0  0  0  0  0  0
   -6.6137   11.6163  -27.0203 O   0  0  0  0  0  0  0  0  0  0  0  0
   -7.2377   10.1041  -29.0420 O   0  0  0  0  0  0  0  0  0  0  0  0
   -3.3960   12.7999  -31.8990 F   0  0  0  0  0  0  0  0  0  0  0  0
   -7.0152    9.0583  -31.9581 Br  0  0  0  0  0  0  0  0  0  0  0  0
   -3.9978   13.2667  -29.4081 H   0  0  0  0  0  0  0  0  0  0  0  0
   -4.8630   10.8789  -32.8550 H   0  0  0  0  0  0  0  0  0  0  0  0
   -5.3890   14.2585  -27.3048 H   0  0  0  0  0  0  0  0  0  0  0  0
   -3.9308   13.2894  -27.6007 H   0  0  0  0  0  0  0  0  0  0  0  0
   -4.7991   13.1642  -26.0940 H   0  0  0  0  0  0  0  0  0  0  0  0
   -7.6605    9.4297  -29.5948 H   0  0  0  0  0  0  0  0  0  0  0  0
  1  3  2  0  0  0  0
  1  5  1  0  0  0  0
  2  5  2  0  0  0  0
  2  6  1  0  0  0  0
  3  4  1  0  0  0  0
  3  7  1  0  0  0  0
  4  6  2  0  0  0  0
  4 10  1  0  0  0  0
  5 11  1  0  0  0  0
  6 12  1  0  0  0  0
  7  8  1  0  0  0  0
  7  9  2  0  0  0  0
  1 13  1  0  0  0  0
  2 14  1  0  0  0  0
  8 15  1  0  0  0  0
  8 16  1  0  0  0  0
  8 17  1  0  0  0  0
 10 18  1  0  0  0  0
M  END
> <id>
EN300-1256227

> <smiles>
CC(=O)C=1C=C(F)C=C(Br)C1O

> <MDLNUMBER>
MFCD16742831

> <IUPAC Name>
1-(3-bromo-5-fluoro-2-hydroxyphenyl)ethan-1-one

> <CAS>
393-62-4

> <Purity>
95

> <URL>
https://www.enaminestore.com/catalog/EN300-1256227

> <MP>
96-97

> <ROCS_ShapeQuery>
_x1604L0AP1_x0771L0AP1

> <ROCS_TanimotoCombo>
0.946 

> <ROCS_ShapeTanimoto>
0.448 

> <ROCS_ColorTanimoto>
0.497 

> <ROCS_RefTversky>
0.416 

> <ROCS_RefColorTversky>
0.516 

> <ROCS_RefTverskyCombo>
0.932 

> <ROCS_FitTversky>
1.209 

> <ROCS_FitColorTversky>
0.933 

> <ROCS_FitTverskyCombo>
2.142 

> <ROCS_ColorScore>
-4.883

> <ROCS_Overlap>
696.495

> <ROCS_Rank>
437                 

$$$$
untitled-dbase-254_8
  -OEChem-06052310023D

 18 18  0     0  0  0  0  0  0999 V2000
   -4.5750   12.4693  -29.8691 C   0  0  0  0  0  0  0  0  0  0  0  0
   -5.0643   11.1212  -31.8133 C   0  0  0  0  0  0  0  0  0  0  0  0
   -5.5522   11.7837  -29.1477 C   0  0  0  0  0  0  0  0  0  0  0  0
   -6.2855   10.7667  -29.7590 C   0  0  0  0  0  0  0  0  0  0  0  0
   -4.3311   12.1381  -31.2019 C   0  0  0  0  0  0  0  0  0  0  0  0
   -6.0415   10.4354  -31.0919 C   0  0  0  0  0  0  0  0  0  0  0  0
   -5.7898   12.1487  -27.7578 C   0  0  0  0  0  0  0  0  0  0  0  0
   -4.9564   13.2549  -27.1815 C   0  0  0  0  0  0  0  0  0  0  0  0
   -6.6193   11.6139  -27.0211 O   0  0  0  0  0  0  0  0  0  0  0  0
   -7.2403   10.1042  -29.0428 O   0  0  0  0  0  0  0  0  0  0  0  0
   -3.1251   12.9848  -32.0915 Cl  0  0  0  0  0  0  0  0  0  0  0  0
   -7.0166    9.0595  -31.9583 Br  0  0  0  0  0  0  0  0  0  0  0  0
   -4.0045   13.2624  -29.3902 H   0  0  0  0  0  0  0  0  0  0  0  0
   -4.8711   10.8661  -32.8532 H   0  0  0  0  0  0  0  0  0  0  0  0
   -5.3967   14.2571  -27.3038 H   0  0  0  0  0  0  0  0  0  0  0  0
   -3.9364   13.2896  -27.5946 H   0  0  0  0  0  0  0  0  0  0  0  0
   -4.8090   13.1644  -26.0905 H   0  0  0  0  0  0  0  0  0  0  0  0
   -7.6629    9.4302  -29.5962 H   0  0  0  0  0  0  0  0  0  0  0  0
  1  3  2  0  0  0  0
  1  5  1  0  0  0  0
  2  5  2  0  0  0  0
  2  6  1  0  0  0  0
  3  4  1  0  0  0  0
  3  7  1  0  0  0  0
  4  6  2  0  0  0  0
  4 10  1  0  0  0  0
  5 11  1  0  0  0  0
  6 12  1  0  0  0  0
  7  8  1  0  0  0  0
  7  9  2  0  0  0  0
  1 13  1  0  0  0  0
  2 14  1  0  0  0  0
  8 15  1  0  0  0  0
  8 16  1  0  0  0  0
  8 17  1  0  0  0  0
 10 18  1  0  0  0  0
M  END
> <id>
EN300-1276933

> <smiles>
CC(=O)C=1C=C(Cl)C=C(Br)C1O

> <MDLNUMBER>
MFCD00857068

> <IUPAC Name>
1-(3-bromo-5-chloro-2-hydroxyphenyl)ethan-1-one

> <CAS>
59443-15-1

> <URL>
https://www.enaminestore.com/catalog/EN300-1276933

> <ROCS_ShapeQuery>
_x1604L0AP1_x0771L0AP1

> <ROCS_TanimotoCombo>
0.946 

> <ROCS_ShapeTanimoto>
0.448 

> <ROCS_ColorTanimoto>
0.497 

> <ROCS_RefTversky>
0.414 

> <ROCS_RefColorTversky>
0.516 

> <ROCS_RefTverskyCombo>
0.930 

> <ROCS_FitTversky>
1.226 

> <ROCS_FitColorTversky>
0.933 

> <ROCS_FitTverskyCombo>
2.159 

> <ROCS_ColorScore>
-4.883

> <ROCS_Overlap>
692.817

> <ROCS_Rank>
438                 

$$$$
untitled-dbase-380_40
  -OEChem-06052310023D

 19 19  0     0  0  0  0  0  0999 V2000
   -4.5771   12.4724  -29.8694 C   0  0  0  0  0  0  0  0  0  0  0  0
   -5.0634   11.1219  -31.8127 C   0  0  0  0  0  0  0  0  0  0  0  0
   -5.5542   11.7864  -29.1481 C   0  0  0  0  0  0  0  0  0  0  0  0
   -6.2859   10.7681  -29.7591 C   0  0  0  0  0  0  0  0  0  0  0  0
   -4.3317   12.1402  -31.2017 C   0  0  0  0  0  0  0  0  0  0  0  0
   -6.0405   10.4358  -31.0915 C   0  0  0  0  0  0  0  0  0  0  0  0
   -5.8009   12.1581  -27.7228 C   0  0  0  0  0  0  0  0  0  0  0  0
   -4.6129   12.6492  -27.0735 N   0  0  0  0  0  0  0  0  0  0  0  0
   -7.2387   10.1063  -29.0402 O   0  0  0  0  0  0  0  0  0  0  0  0
   -4.6057   14.0891  -27.2845 O   0  0  0  0  0  0  0  0  0  0  0  0
   -3.1259   12.9871  -32.0913 Cl  0  0  0  0  0  0  0  0  0  0  0  0
   -7.0143    9.0582  -31.9567 Br  0  0  0  0  0  0  0  0  0  0  0  0
   -4.0082   13.2657  -29.3890 H   0  0  0  0  0  0  0  0  0  0  0  0
   -4.8692   10.8662  -32.8521 H   0  0  0  0  0  0  0  0  0  0  0  0
   -6.5678   12.9406  -27.6467 H   0  0  0  0  0  0  0  0  0  0  0  0
   -6.1625   11.2997  -27.1415 H   0  0  0  0  0  0  0  0  0  0  0  0
   -4.6899   12.5898  -26.0537 H   0  0  0  0  0  0  0  0  0  0  0  0
   -7.6618    9.4307  -29.5914 H   0  0  0  0  0  0  0  0  0  0  0  0
   -3.7868   14.3421  -26.8241 H   0  0  0  0  0  0  0  0  0  0  0  0
  1  3  2  0  0  0  0
  1  5  1  0  0  0  0
  2  5  2  0  0  0  0
  2  6  1  0  0  0  0
  3  4  1  0  0  0  0
  3  7  1  0  0  0  0
  4  6  2  0  0  0  0
  4  9  1  0  0  0  0
  5 11  1  0  0  0  0
  6 12  1  0  0  0  0
  7  8  1  0  0  0  0
  8 10  1  0  0  0  0
  1 13  1  0  0  0  0
  2 14  1  0  0  0  0
  7 15  1  0  0  0  0
  7 16  1  0  0  0  0
  8 17  1  0  0  0  0
  9 18  1  0  0  0  0
 10 19  1  0  0  0  0
M  END
> <id>
EN300-1926023

> <smiles>
ONCC=1C=C(Cl)C=C(Br)C1O

> <IUPAC Name>
2-bromo-4-chloro-6-[(hydroxyamino)methyl]phenol

> <CAS>
2161596-75-2

> <URL>
https://www.enaminestore.com/catalog/EN300-1926023

> <ROCS_ShapeQuery>
_x1604L0AP1_x0771L0AP1

> <ROCS_TanimotoCombo>
0.946 

> <ROCS_ShapeTanimoto>
0.449 

> <ROCS_ColorTanimoto>
0.497 

> <ROCS_RefTversky>
0.412 

> <ROCS_RefColorTversky>
0.516 

> <ROCS_RefTverskyCombo>
0.928 

> <ROCS_FitTversky>
1.244 

> <ROCS_FitColorTversky>
0.932 

> <ROCS_FitTverskyCombo>
2.176 

> <ROCS_ColorScore>
-4.881

> <ROCS_Overlap>
689.658

> <ROCS_Rank>
439                 

$$$$
untitled-dbase-2301_1257
  -OEChem-06052310023D

 38 40  0     0  0  0  0  0  0999 V2000
   -1.9959   15.0442  -30.3955 C   0  0  0  0  0  0  0  0  0  0  0  0
   -2.0333   13.7596  -30.9378 C   0  0  0  0  0  0  0  0  0  0  0  0
   -2.8616   15.3884  -29.3574 C   0  0  0  0  0  0  0  0  0  0  0  0
   -2.9366   12.8194  -30.4422 C   0  0  0  0  0  0  0  0  0  0  0  0
   -3.7649   14.4482  -28.8617 C   0  0  0  0  0  0  0  0  0  0  0  0
   -6.6307    7.7237  -33.3964 C   0  0  0  0  0  0  0  0  0  0  0  0
   -5.8436    9.7945  -35.0879 C   0  0  0  0  0  0  0  0  0  0  0  0
   -6.6112    9.0396  -32.9120 C   0  0  0  0  0  0  0  0  0  0  0  0
   -6.2283   10.0846  -33.7718 C   0  0  0  0  0  0  0  0  0  0  0  0
   -3.8024   13.1636  -29.4041 C   0  0  0  0  0  0  0  0  0  0  0  0
   -6.2594    7.4469  -34.7119 C   0  0  0  0  0  0  0  0  0  0  0  0
   -5.8637    8.4812  -35.5561 C   0  0  0  0  0  0  0  0  0  0  0  0
   -6.7189   11.0872  -29.7309 C   0  0  0  0  0  0  0  0  0  0  0  0
   -6.1752   11.5034  -33.2694 C   0  0  0  0  0  0  0  0  0  0  0  0
   -7.0159    9.3013  -31.4820 C   0  0  0  0  0  0  0  0  0  0  0  0
   -7.1250   11.7120  -32.0964 C   0  0  0  0  0  0  0  0  0  0  0  0
   -4.7744   12.1527  -28.8705 C   0  0  0  0  0  0  0  0  0  0  0  0
   -6.8925   10.7039  -31.0653 N   0  0  0  0  0  0  0  0  0  0  0  0
   -7.1534   10.4611  -28.7660 O   0  0  0  0  0  0  0  0  0  0  0  0
   -6.2903    6.1526  -35.1391 O   0  0  0  0  0  0  0  0  0  0  0  0
   -5.9984   12.2464  -29.6083 O   0  0  0  0  0  0  0  0  0  0  0  0
   -5.3426    8.1411  -37.3463 Br  0  0  0  0  0  0  0  0  0  0  0  0
   -1.2916   15.7758  -30.7807 H   0  0  0  0  0  0  0  0  0  0  0  0
   -1.3586   13.4910  -31.7454 H   0  0  0  0  0  0  0  0  0  0  0  0
   -2.8320   16.3881  -28.9342 H   0  0  0  0  0  0  0  0  0  0  0  0
   -2.9588   11.8209  -30.8710 H   0  0  0  0  0  0  0  0  0  0  0  0
   -4.4357   14.7254  -28.0528 H   0  0  0  0  0  0  0  0  0  0  0  0
   -6.9347    6.9105  -32.7408 H   0  0  0  0  0  0  0  0  0  0  0  0
   -5.5298   10.6052  -35.7423 H   0  0  0  0  0  0  0  0  0  0  0  0
   -5.1461   11.7331  -32.9673 H   0  0  0  0  0  0  0  0  0  0  0  0
   -6.4518   12.1962  -34.0727 H   0  0  0  0  0  0  0  0  0  0  0  0
   -8.0698    9.0287  -31.3499 H   0  0  0  0  0  0  0  0  0  0  0  0
   -6.4130    8.6723  -30.8181 H   0  0  0  0  0  0  0  0  0  0  0  0
   -7.0005   12.7213  -31.6911 H   0  0  0  0  0  0  0  0  0  0  0  0
   -8.1699   11.6136  -32.4159 H   0  0  0  0  0  0  0  0  0  0  0  0
   -4.3759   11.1370  -28.9672 H   0  0  0  0  0  0  0  0  0  0  0  0
   -4.9795   12.3342  -27.8100 H   0  0  0  0  0  0  0  0  0  0  0  0
   -6.0107    6.1000  -36.0662 H   0  0  0  0  0  0  0  0  0  0  0  0
  1  2  2  0  0  0  0
  1  3  1  0  0  0  0
  2  4  1  0  0  0  0
  3  5  2  0  0  0  0
  4 10  2  0  0  0  0
  5 10  1  0  0  0  0
  6  8  1  0  0  0  0
  6 11  2  0  0  0  0
  7  9  1  0  0  0  0
  7 12  2  0  0  0  0
  8  9  2  0  0  0  0
  8 15  1  0  0  0  0
  9 14  1  0  0  0  0
 10 17  1  0  0  0  0
 11 12  1  0  0  0  0
 11 20  1  0  0  0  0
 12 22  1  0  0  0  0
 13 18  1  0  0  0  0
 13 19  2  0  0  0  0
 13 21  1  0  0  0  0
 14 16  1  0  0  0  0
 15 18  1  0  0  0  0
 16 18  1  0  0  0  0
 17 21  1  0  0  0  0
  1 23  1  0  0  0  0
  2 24  1  0  0  0  0
  3 25  1  0  0  0  0
  4 26  1  0  0  0  0
  5 27  1  0  0  0  0
  6 28  1  0  0  0  0
  7 29  1  0  0  0  0
 14 30  1  0  0  0  0
 14 31  1  0  0  0  0
 15 32  1  0  0  0  0
 15 33  1  0  0  0  0
 16 34  1  0  0  0  0
 16 35  1  0  0  0  0
 17 36  1  0  0  0  0
 17 37  1  0  0  0  0
 20 38  1  0  0  0  0
M  END
> <id>
EN300-44827157

> <smiles>
OC=1C=C2CN(CCC2=CC1Br)C(=O)OCC=3C=CC=CC3

> <IUPAC Name>
benzyl 6-bromo-7-hydroxy-1,2,3,4-tetrahydroisoquinoline-2-carboxylate

> <URL>
https://www.enaminestore.com/catalog/EN300-44827157

> <ROCS_ShapeQuery>
_x1604L0AP1_x0771L0AP1

> <ROCS_TanimotoCombo>
0.945 

> <ROCS_ShapeTanimoto>
0.667 

> <ROCS_ColorTanimoto>
0.278 

> <ROCS_RefTversky>
0.640 

> <ROCS_RefColorTversky>
0.380 

> <ROCS_RefTverskyCombo>
1.020 

> <ROCS_FitTversky>
1.067 

> <ROCS_FitColorTversky>
0.509 

> <ROCS_FitTverskyCombo>
1.576 

> <ROCS_ColorScore>
-3.632

> <ROCS_Overlap>
1087.046

> <ROCS_Rank>
440                 

$$$$
untitled-dbase-569_68
  -OEChem-06052310023D

 24 24  0     0  0  0  0  0  0999 V2000
   -4.5789   12.4684  -29.8389 C   0  0  0  0  0  0  0  0  0  0  0  0
   -5.0523   11.1294  -31.7933 C   0  0  0  0  0  0  0  0  0  0  0  0
   -4.3244   12.1438  -31.1713 C   0  0  0  0  0  0  0  0  0  0  0  0
   -5.5613   11.7787  -29.1283 C   0  0  0  0  0  0  0  0  0  0  0  0
   -6.2892   10.7643  -29.7503 C   0  0  0  0  0  0  0  0  0  0  0  0
   -6.0347   10.4396  -31.0828 C   0  0  0  0  0  0  0  0  0  0  0  0
   -3.0068   14.1592  -31.6252 C   0  0  0  0  0  0  0  0  0  0  0  0
   -3.3006   12.8641  -31.9120 C   0  0  0  0  0  0  0  0  0  0  0  0
   -5.0096   13.1563  -27.2699 C   0  0  0  0  0  0  0  0  0  0  0  0
   -2.5003   12.1508  -32.9875 C   0  0  0  0  0  0  0  0  0  0  0  0
   -7.2467   10.1019  -29.0389 O   0  0  0  0  0  0  0  0  0  0  0  0
   -5.7989   12.1076  -27.8278 O   0  0  0  0  0  0  0  0  0  0  0  0
   -3.2953   12.3244  -34.5712 Cl  0  0  0  0  0  0  0  0  0  0  0  0
   -7.0037    9.0673  -31.9615 Br  0  0  0  0  0  0  0  0  0  0  0  0
   -4.0160   13.2584  -29.3460 H   0  0  0  0  0  0  0  0  0  0  0  0
   -4.8514   10.8789  -32.8333 H   0  0  0  0  0  0  0  0  0  0  0  0
   -2.2439   14.7011  -32.1748 H   0  0  0  0  0  0  0  0  0  0  0  0
   -3.5253   14.7091  -30.8460 H   0  0  0  0  0  0  0  0  0  0  0  0
   -5.3000   13.3176  -26.2289 H   0  0  0  0  0  0  0  0  0  0  0  0
   -5.1588   14.0723  -27.8471 H   0  0  0  0  0  0  0  0  0  0  0  0
   -3.9563   12.8691  -27.3117 H   0  0  0  0  0  0  0  0  0  0  0  0
   -1.4888   12.5559  -33.0980 H   0  0  0  0  0  0  0  0  0  0  0  0
   -2.3937   11.0838  -32.7724 H   0  0  0  0  0  0  0  0  0  0  0  0
   -7.2925   10.4518  -28.1361 H   0  0  0  0  0  0  0  0  0  0  0  0
  1  3  1  0  0  0  0
  1  4  2  0  0  0  0
  2  3  2  0  0  0  0
  2  6  1  0  0  0  0
  3  8  1  0  0  0  0
  4  5  1  0  0  0  0
  4 12  1  0  0  0  0
  5  6  2  0  0  0  0
  5 11  1  0  0  0  0
  6 14  1  0  0  0  0
  7  8  2  0  0  0  0
  8 10  1  0  0  0  0
  9 12  1  0  0  0  0
 10 13  1  0  0  0  0
  1 15  1  0  0  0  0
  2 16  1  0  0  0  0
  7 17  1  0  0  0  0
  7 18  1  0  0  0  0
  9 19  1  0  0  0  0
  9 20  1  0  0  0  0
  9 21  1  0  0  0  0
 10 22  1  0  0  0  0
 10 23  1  0  0  0  0
 11 24  1  0  0  0  0
M  END
> <id>
EN300-1925708

> <smiles>
COC=1C=C(C=C(Br)C1O)C(=C)CCl

> <IUPAC Name>
2-bromo-4-(3-chloroprop-1-en-2-yl)-6-methoxyphenol

> <CAS>
2228435-31-0

> <URL>
https://www.enaminestore.com/catalog/EN300-1925708

> <ROCS_ShapeQuery>
_x1604L0AP1_x0771L0AP1

> <ROCS_TanimotoCombo>
0.945 

> <ROCS_ShapeTanimoto>
0.494 

> <ROCS_ColorTanimoto>
0.451 

> <ROCS_RefTversky>
0.457 

> <ROCS_RefColorTversky>
0.513 

> <ROCS_RefTverskyCombo>
0.970 

> <ROCS_FitTversky>
1.197 

> <ROCS_FitColorTversky>
0.789 

> <ROCS_FitTverskyCombo>
1.986 

> <ROCS_ColorScore>
-4.881

> <ROCS_Overlap>
766.408

> <ROCS_Rank>
441                 

$$$$
untitled-dbase-1365_15
  -OEChem-06052310023D

 23 23  0     0  0  0  0  0  0999 V2000
   -4.5779   12.4736  -29.8736 C   0  0  0  0  0  0  0  0  0  0  0  0
   -5.0657   11.1211  -31.8152 C   0  0  0  0  0  0  0  0  0  0  0  0
   -4.3336   12.1401  -31.2057 C   0  0  0  0  0  0  0  0  0  0  0  0
   -5.5543   11.7880  -29.1508 C   0  0  0  0  0  0  0  0  0  0  0  0
   -6.2864   10.7691  -29.7602 C   0  0  0  0  0  0  0  0  0  0  0  0
   -6.0421   10.4356  -31.0924 C   0  0  0  0  0  0  0  0  0  0  0  0
   -3.9130   13.6018  -26.8979 C   0  0  0  0  0  0  0  0  0  0  0  0
   -5.1677   13.4731  -27.3438 C   0  0  0  0  0  0  0  0  0  0  0  0
   -3.2883   12.8718  -31.9780 C   0  0  0  0  0  0  0  0  0  0  0  0
   -5.7993   12.1603  -27.7254 C   0  0  0  0  0  0  0  0  0  0  0  0
   -7.2371   10.1064  -29.0394 O   0  0  0  0  0  0  0  0  0  0  0  0
   -7.0159    9.0569  -31.9559 Br  0  0  0  0  0  0  0  0  0  0  0  0
   -4.0057   13.2670  -29.3985 H   0  0  0  0  0  0  0  0  0  0  0  0
   -4.8692   10.8681  -32.8547 H   0  0  0  0  0  0  0  0  0  0  0  0
   -3.5009   14.5697  -26.6349 H   0  0  0  0  0  0  0  0  0  0  0  0
   -3.2770   12.7303  -26.7883 H   0  0  0  0  0  0  0  0  0  0  0  0
   -5.7805   14.3667  -27.4342 H   0  0  0  0  0  0  0  0  0  0  0  0
   -2.3173   12.3721  -31.8747 H   0  0  0  0  0  0  0  0  0  0  0  0
   -3.5425   12.9212  -33.0447 H   0  0  0  0  0  0  0  0  0  0  0  0
   -3.1858   13.9072  -31.6277 H   0  0  0  0  0  0  0  0  0  0  0  0
   -6.8819   12.2306  -27.5297 H   0  0  0  0  0  0  0  0  0  0  0  0
   -5.4457   11.3542  -27.0613 H   0  0  0  0  0  0  0  0  0  0  0  0
   -7.6607    9.4304  -29.5898 H   0  0  0  0  0  0  0  0  0  0  0  0
  1  3  1  0  0  0  0
  1  4  2  0  0  0  0
  2  3  2  0  0  0  0
  2  6  1  0  0  0  0
  3  9  1  0  0  0  0
  4  5  1  0  0  0  0
  4 10  1  0  0  0  0
  5  6  2  0  0  0  0
  5 11  1  0  0  0  0
  6 12  1  0  0  0  0
  7  8  2  0  0  0  0
  8 10  1  0  0  0  0
  1 13  1  0  0  0  0
  2 14  1  0  0  0  0
  7 15  1  0  0  0  0
  7 16  1  0  0  0  0
  8 17  1  0  0  0  0
  9 18  1  0  0  0  0
  9 19  1  0  0  0  0
  9 20  1  0  0  0  0
 10 21  1  0  0  0  0
 10 22  1  0  0  0  0
 11 23  1  0  0  0  0
M  END
> <id>
EN300-1719682

> <smiles>
CC=1C=C(Br)C(O)=C(CC=C)C1

> <MDLNUMBER>
MFCD16742698

> <IUPAC Name>
2-bromo-4-methyl-6-(prop-2-en-1-yl)phenol

> <CAS>
2120-17-4

> <Purity>
95

> <URL>
https://www.enaminestore.com/catalog/EN300-1719682

> <ROCS_ShapeQuery>
_x1604L0AP1_x0771L0AP1

> <ROCS_TanimotoCombo>
0.945 

> <ROCS_ShapeTanimoto>
0.448 

> <ROCS_ColorTanimoto>
0.497 

> <ROCS_RefTversky>
0.413 

> <ROCS_RefColorTversky>
0.516 

> <ROCS_RefTverskyCombo>
0.929 

> <ROCS_FitTversky>
1.234 

> <ROCS_FitColorTversky>
0.932 

> <ROCS_FitTverskyCombo>
2.166 

> <ROCS_ColorScore>
-4.881

> <ROCS_Overlap>
691.168

> <ROCS_Rank>
442                 

$$$$
untitled-dbase-2215_16
  -OEChem-06052310023D

 21 21  0     0  0  0  0  0  0999 V2000
   -2.2674   13.3987  -31.0910 C   0  0  0  0  0  0  0  0  0  0  0  0
   -4.6150   12.5004  -29.8741 C   0  0  0  0  0  0  0  0  0  0  0  0
   -5.0887   11.1463  -31.8180 C   0  0  0  0  0  0  0  0  0  0  0  0
   -4.3692   12.1737  -31.2076 C   0  0  0  0  0  0  0  0  0  0  0  0
   -5.5802   11.7997  -29.1508 C   0  0  0  0  0  0  0  0  0  0  0  0
   -6.2997   10.7724  -29.7611 C   0  0  0  0  0  0  0  0  0  0  0  0
   -6.0539   10.4456  -31.0947 C   0  0  0  0  0  0  0  0  0  0  0  0
   -6.8006   13.1251  -27.5984 C   0  0  0  0  0  0  0  0  0  0  0  0
   -3.3379   12.9237  -31.9808 C   0  0  0  0  0  0  0  0  0  0  0  0
   -1.4230   13.7747  -30.3894 N   0  0  0  0  0  0  0  0  0  0  0  0
   -7.2404   10.0993  -29.0374 O   0  0  0  0  0  0  0  0  0  0  0  0
   -5.8093   12.1309  -27.8493 O   0  0  0  0  0  0  0  0  0  0  0  0
   -7.0115    9.0559  -31.9583 Br  0  0  0  0  0  0  0  0  0  0  0  0
   -4.0557   13.3012  -29.3961 H   0  0  0  0  0  0  0  0  0  0  0  0
   -4.8901   10.8991  -32.8586 H   0  0  0  0  0  0  0  0  0  0  0  0
   -6.8837   13.2945  -26.5221 H   0  0  0  0  0  0  0  0  0  0  0  0
   -7.7609   12.7931  -28.0010 H   0  0  0  0  0  0  0  0  0  0  0  0
   -6.5038   14.0549  -28.0894 H   0  0  0  0  0  0  0  0  0  0  0  0
   -3.7915   13.7792  -32.4996 H   0  0  0  0  0  0  0  0  0  0  0  0
   -2.9077   12.2888  -32.7674 H   0  0  0  0  0  0  0  0  0  0  0  0
   -7.2822   10.4524  -28.1356 H   0  0  0  0  0  0  0  0  0  0  0  0
  1  9  1  0  0  0  0
  1 10  3  0  0  0  0
  2  4  1  0  0  0  0
  2  5  2  0  0  0  0
  3  4  2  0  0  0  0
  3  7  1  0  0  0  0
  4  9  1  0  0  0  0
  5  6  1  0  0  0  0
  5 12  1  0  0  0  0
  6  7  2  0  0  0  0
  6 11  1  0  0  0  0
  7 13  1  0  0  0  0
  8 12  1  0  0  0  0
  2 14  1  0  0  0  0
  3 15  1  0  0  0  0
  8 16  1  0  0  0  0
  8 17  1  0  0  0  0
  8 18  1  0  0  0  0
  9 19  1  0  0  0  0
  9 20  1  0  0  0  0
 11 21  1  0  0  0  0
M  END
> <id>
EN300-1910632

> <smiles>
COC=1C=C(CC#N)C=C(Br)C1O

> <MDLNUMBER>
MFCD00060307

> <IUPAC Name>
2-(3-bromo-4-hydroxy-5-methoxyphenyl)acetonitrile

> <CAS>
81038-44-0

> <URL>
https://www.enaminestore.com/catalog/EN300-1910632

> <MP>
145-146

> <ROCS_ShapeQuery>
_x1604L0AP1_x0771L0AP1

> <ROCS_TanimotoCombo>
0.945 

> <ROCS_ShapeTanimoto>
0.494 

> <ROCS_ColorTanimoto>
0.451 

> <ROCS_RefTversky>
0.451 

> <ROCS_RefColorTversky>
0.513 

> <ROCS_RefTverskyCombo>
0.964 

> <ROCS_FitTversky>
1.242 

> <ROCS_FitColorTversky>
0.789 

> <ROCS_FitTverskyCombo>
2.031 

> <ROCS_ColorScore>
-4.880

> <ROCS_Overlap>
755.427

> <ROCS_Rank>
443                 

$$$$
untitled-dbase-365_451
  -OEChem-06052310023D

 26 26  0     1  0  0  0  0  0999 V2000
   -7.0850   11.0026  -33.5384 C   0  0  0  0  0  0  0  0  0  0  0  0
   -6.7822   11.1951  -32.1905 C   0  0  0  0  0  0  0  0  0  0  0  0
   -6.9529    9.7367  -34.1091 C   0  0  0  0  0  0  0  0  0  0  0  0
   -6.3472   10.1216  -31.4133 C   0  0  0  0  0  0  0  0  0  0  0  0
   -6.5179    8.6632  -33.3319 C   0  0  0  0  0  0  0  0  0  0  0  0
   -6.2150    8.8557  -31.9840 C   0  0  0  0  0  0  0  0  0  0  0  0
   -4.3801   12.1759  -30.5347 C   0  0  0  0  0  0  0  0  0  0  0  0
   -2.3992   13.4650  -30.5087 C   0  0  0  0  0  0  0  0  0  0  0  0
   -5.6087   11.8349  -29.7262 C   0  0  0  0  0  0  0  0  0  0  0  0
   -6.0318   10.3832  -29.9585 C   0  0  1  0  0  0  0  0  0  0  0  0
   -4.1269   11.6862  -31.6277 O   0  0  0  0  0  0  0  0  0  0  0  0
   -6.4001    7.4408  -33.9242 O   0  0  0  0  0  0  0  0  0  0  0  0
   -7.1973   10.0891  -29.1874 O   0  0  0  0  0  0  0  0  0  0  0  0
   -3.6115   13.0752  -29.8561 O   0  0  0  0  0  0  0  0  0  0  0  0
   -5.6228    7.3836  -30.9335 Br  0  0  0  0  0  0  0  0  0  0  0  0
   -7.4232   11.8386  -34.1437 H   0  0  0  0  0  0  0  0  0  0  0  0
   -6.8885   12.1859  -31.7562 H   0  0  0  0  0  0  0  0  0  0  0  0
   -7.1901    9.5948  -35.1601 H   0  0  0  0  0  0  0  0  0  0  0  0
   -1.8626   14.1831  -29.8838 H   0  0  0  0  0  0  0  0  0  0  0  0
   -2.6337   13.9129  -31.4777 H   0  0  0  0  0  0  0  0  0  0  0  0
   -1.7764   12.5801  -30.6597 H   0  0  0  0  0  0  0  0  0  0  0  0
   -6.3992   12.5367  -30.0198 H   0  0  0  0  0  0  0  0  0  0  0  0
   -5.3864   12.0320  -28.6700 H   0  0  0  0  0  0  0  0  0  0  0  0
   -5.2488    9.6939  -29.6201 H   0  0  0  0  0  0  0  0  0  0  0  0
   -6.0911    6.7857  -33.2796 H   0  0  0  0  0  0  0  0  0  0  0  0
   -6.9653   10.2655  -28.2634 H   0  0  0  0  0  0  0  0  0  0  0  0
  1  2  1  0  0  0  0
  1  3  2  0  0  0  0
  2  4  2  0  0  0  0
  3  5  1  0  0  0  0
  4  6  1  0  0  0  0
  4 10  1  0  0  0  0
  5  6  2  0  0  0  0
  5 12  1  0  0  0  0
  6 15  1  0  0  0  0
  7  9  1  0  0  0  0
  7 11  2  0  0  0  0
  7 14  1  0  0  0  0
  8 14  1  0  0  0  0
  9 10  1  0  0  0  0
 10 13  1  1  0  0  0
  1 16  1  0  0  0  0
  2 17  1  0  0  0  0
  3 18  1  0  0  0  0
  8 19  1  0  0  0  0
  8 20  1  0  0  0  0
  8 21  1  0  0  0  0
  9 22  1  0  0  0  0
  9 23  1  0  0  0  0
 10 24  1  0  0  0  0
 12 25  1  0  0  0  0
 13 26  1  0  0  0  0
M  END
> <id>
EN300-1904574

> <smiles>
COC(=O)C[C@@H](O)C=1C=CC=C(O)C1Br

> <IUPAC Name>
methyl (3R)-3-(2-bromo-3-hydroxyphenyl)-3-hydroxypropanoate

> <CAS>
2227872-65-1

> <URL>
https://www.enaminestore.com/catalog/EN300-1904574

> <ROCS_ShapeQuery>
_x1604L0AP1_x0771L0AP1

> <ROCS_TanimotoCombo>
0.945 

> <ROCS_ShapeTanimoto>
0.619 

> <ROCS_ColorTanimoto>
0.326 

> <ROCS_RefTversky>
0.539 

> <ROCS_RefColorTversky>
0.429 

> <ROCS_RefTverskyCombo>
0.968 

> <ROCS_FitTversky>
1.314 

> <ROCS_FitColorTversky>
0.575 

> <ROCS_FitTverskyCombo>
1.889 

> <ROCS_ColorScore>
-4.103

> <ROCS_Overlap>
906.311

> <ROCS_Rank>
444                 

$$$$
untitled-dbase-1722_36
  -OEChem-06052310023D

 21 21  0     1  0  0  0  0  0999 V2000
   -4.9427   12.7499  -29.7049 C   0  0  0  0  0  0  0  0  0  0  0  0
   -5.8059   11.8932  -29.0219 C   0  0  0  0  0  0  0  0  0  0  0  0
   -5.2739   11.4709  -31.7277 C   0  0  0  0  0  0  0  0  0  0  0  0
   -4.6767   12.5388  -31.0579 C   0  0  0  0  0  0  0  0  0  0  0  0
   -6.4030   10.8253  -29.6917 C   0  0  0  0  0  0  0  0  0  0  0  0
   -6.1371   10.6141  -31.0446 C   0  0  0  0  0  0  0  0  0  0  0  0
   -3.7536   13.4552  -31.7870 C   0  0  2  0  0  0  0  0  0  0  0  0
   -2.3319   13.4528  -31.2058 C   0  0  0  0  0  0  0  0  0  0  0  0
   -4.2511   14.8429  -31.8127 N   0  0  0  0  0  0  0  0  0  0  0  0
   -7.2404   10.0055  -28.9952 O   0  0  0  0  0  0  0  0  0  0  0  0
   -2.3087   14.2180  -30.0830 F   0  0  0  0  0  0  0  0  0  0  0  0
   -1.9838   12.1996  -30.8116 F   0  0  0  0  0  0  0  0  0  0  0  0
   -6.9295    9.1724  -31.9860 Br  0  0  0  0  0  0  0  0  0  0  0  0
   -4.4823   13.5790  -29.1740 H   0  0  0  0  0  0  0  0  0  0  0  0
   -6.0083   12.0640  -27.9678 H   0  0  0  0  0  0  0  0  0  0  0  0
   -5.0610   11.3142  -32.7830 H   0  0  0  0  0  0  0  0  0  0  0  0
   -3.6577   13.1428  -32.8430 H   0  0  0  0  0  0  0  0  0  0  0  0
   -1.5707   13.8246  -31.8984 H   0  0  0  0  0  0  0  0  0  0  0  0
   -5.1158   14.8569  -31.3345 H   0  0  0  0  0  0  0  0  0  0  0  0
   -3.5785   15.4070  -31.3588 H   0  0  0  0  0  0  0  0  0  0  0  0
   -7.5851    9.3090  -29.5753 H   0  0  0  0  0  0  0  0  0  0  0  0
  1  2  1  0  0  0  0
  1  4  2  0  0  0  0
  2  5  2  0  0  0  0
  3  4  1  0  0  0  0
  3  6  2  0  0  0  0
  4  7  1  0  0  0  0
  5  6  1  0  0  0  0
  5 10  1  0  0  0  0
  6 13  1  0  0  0  0
  7  8  1  0  0  0  0
  7  9  1  0  0  0  0
  8 11  1  0  0  0  0
  8 12  1  0  0  0  0
  1 14  1  0  0  0  0
  2 15  1  0  0  0  0
  3 16  1  0  0  0  0
  7 17  1  0  0  0  0
  8 18  1  0  0  0  0
  9 19  1  0  0  0  0
  9 20  1  0  0  0  0
 10 21  1  0  0  0  0
M  END
> <id>
EN300-1937532

> <smiles>
NC(C(F)F)C=1C=CC(O)=C(Br)C1

> <MDLNUMBER>
MFCD26136569

> <IUPAC Name>
4-(1-amino-2,2-difluoroethyl)-2-bromophenol

> <CAS>
1824621-54-6

> <URL>
https://www.enaminestore.com/catalog/EN300-1937532

> <ROCS_ShapeQuery>
_x1604L0AP1_x0771L0AP1

> <ROCS_TanimotoCombo>
0.945 

> <ROCS_ShapeTanimoto>
0.515 

> <ROCS_ColorTanimoto>
0.430 

> <ROCS_RefTversky>
0.464 

> <ROCS_RefColorTversky>
0.496 

> <ROCS_RefTverskyCombo>
0.959 

> <ROCS_FitTversky>
1.276 

> <ROCS_FitColorTversky>
0.763 

> <ROCS_FitTverskyCombo>
2.039 

> <ROCS_ColorScore>
-4.718

> <ROCS_Overlap>
777.039

> <ROCS_Rank>
445                 

$$$$
untitled-dbase-1603_4
  -OEChem-06052310023D

 18 18  0     0  0  0  0  0  0999 V2000
   -4.6099   12.4980  -29.8469 C   0  0  0  0  0  0  0  0  0  0  0  0
   -4.3573   12.1868  -31.1829 C   0  0  0  0  0  0  0  0  0  0  0  0
   -5.5789   11.7891  -29.1368 C   0  0  0  0  0  0  0  0  0  0  0  0
   -5.0738   11.1668  -31.8089 C   0  0  0  0  0  0  0  0  0  0  0  0
   -6.2954   10.7691  -29.7628 C   0  0  0  0  0  0  0  0  0  0  0  0
   -6.0429   10.4579  -31.0989 C   0  0  0  0  0  0  0  0  0  0  0  0
   -4.7686   10.8862  -33.2069 C   0  0  0  0  0  0  0  0  0  0  0  0
   -5.8841   11.0294  -34.1985 C   0  0  0  0  0  0  0  0  0  0  0  0
   -3.6667   10.5369  -33.6291 O   0  0  0  0  0  0  0  0  0  0  0  0
   -7.2349   10.0985  -29.0369 O   0  0  0  0  0  0  0  0  0  0  0  0
   -7.0299    9.0626  -31.9381 Br  0  0  0  0  0  0  0  0  0  0  0  0
   -4.0524   13.2926  -29.3597 H   0  0  0  0  0  0  0  0  0  0  0  0
   -3.5992   12.7474  -31.7244 H   0  0  0  0  0  0  0  0  0  0  0  0
   -5.7710   12.0384  -28.0965 H   0  0  0  0  0  0  0  0  0  0  0  0
   -5.9695   12.0373  -34.6345 H   0  0  0  0  0  0  0  0  0  0  0  0
   -6.8693   10.7642  -33.7845 H   0  0  0  0  0  0  0  0  0  0  0  0
   -5.7688   10.3718  -35.0784 H   0  0  0  0  0  0  0  0  0  0  0  0
   -7.6580    9.4194  -29.5847 H   0  0  0  0  0  0  0  0  0  0  0  0
  1  2  1  0  0  0  0
  1  3  2  0  0  0  0
  2  4  2  0  0  0  0
  3  5  1  0  0  0  0
  4  6  1  0  0  0  0
  4  7  1  0  0  0  0
  5  6  2  0  0  0  0
  5 10  1  0  0  0  0
  6 11  1  0  0  0  0
  7  8  1  0  0  0  0
  7  9  2  0  0  0  0
  1 12  1  0  0  0  0
  2 13  1  0  0  0  0
  3 14  1  0  0  0  0
  8 15  1  0  0  0  0
  8 16  1  0  0  0  0
  8 17  1  0  0  0  0
 10 18  1  0  0  0  0
M  END
> <id>
EN300-1914615

> <smiles>
CC(=O)C=1C=CC=C(O)C1Br

> <MDLNUMBER>
MFCD04038961

> <IUPAC Name>
1-(2-bromo-3-hydroxyphenyl)ethan-1-one

> <CAS>
1232407-20-3

> <Purity>
95

> <URL>
https://www.enaminestore.com/catalog/EN300-1914615

> <ROCS_ShapeQuery>
_x1604L0AP1_x0771L0AP1

> <ROCS_TanimotoCombo>
0.945 

> <ROCS_ShapeTanimoto>
0.447 

> <ROCS_ColorTanimoto>
0.497 

> <ROCS_RefTversky>
0.407 

> <ROCS_RefColorTversky>
0.516 

> <ROCS_RefTverskyCombo>
0.923 

> <ROCS_FitTversky>
1.287 

> <ROCS_FitColorTversky>
0.933 

> <ROCS_FitTverskyCombo>
2.220 

> <ROCS_ColorScore>
-4.883

> <ROCS_Overlap>
679.997

> <ROCS_Rank>
446                 

$$$$
untitled-dbase-1632_185
  -OEChem-06052310023D

 25 25  0     0  0  0  0  0  0999 V2000
   -4.5762   12.4656  -29.8480 C   0  0  0  0  0  0  0  0  0  0  0  0
   -5.0527   11.1220  -31.7985 C   0  0  0  0  0  0  0  0  0  0  0  0
   -4.3234   12.1374  -31.1799 C   0  0  0  0  0  0  0  0  0  0  0  0
   -5.5583   11.7783  -29.1346 C   0  0  0  0  0  0  0  0  0  0  0  0
   -6.2876   10.7630  -29.7532 C   0  0  0  0  0  0  0  0  0  0  0  0
   -6.0349   10.4348  -31.0852 C   0  0  0  0  0  0  0  0  0  0  0  0
   -3.3011   12.8561  -31.9243 C   0  0  0  0  0  0  0  0  0  0  0  0
   -2.5527   13.9400  -31.2045 C   0  0  0  0  0  0  0  0  0  0  0  0
   -4.5127   13.4989  -26.3635 C   0  0  0  0  0  0  0  0  0  0  0  0
   -5.5570   13.4658  -27.4589 C   0  0  0  0  0  0  0  0  0  0  0  0
   -3.0063   12.6458  -33.1026 O   0  0  0  0  0  0  0  0  0  0  0  0
   -7.2447   10.1029  -29.0391 O   0  0  0  0  0  0  0  0  0  0  0  0
   -5.7935   12.1105  -27.8345 O   0  0  0  0  0  0  0  0  0  0  0  0
   -7.0077    9.0630  -31.9604 Br  0  0  0  0  0  0  0  0  0  0  0  0
   -4.0102   13.2572  -29.3622 H   0  0  0  0  0  0  0  0  0  0  0  0
   -4.8506   10.8725  -32.8380 H   0  0  0  0  0  0  0  0  0  0  0  0
   -1.6414   13.5904  -30.6939 H   0  0  0  0  0  0  0  0  0  0  0  0
   -3.1667   14.4687  -30.4590 H   0  0  0  0  0  0  0  0  0  0  0  0
   -2.1876   14.7371  -31.8763 H   0  0  0  0  0  0  0  0  0  0  0  0
   -4.8532   12.9471  -25.4829 H   0  0  0  0  0  0  0  0  0  0  0  0
   -3.5722   13.0607  -26.7134 H   0  0  0  0  0  0  0  0  0  0  0  0
   -4.2933   14.5310  -26.0706 H   0  0  0  0  0  0  0  0  0  0  0  0
   -5.2102   14.0194  -28.3366 H   0  0  0  0  0  0  0  0  0  0  0  0
   -6.4962   13.9032  -27.1073 H   0  0  0  0  0  0  0  0  0  0  0  0
   -7.6674    9.4286  -29.5925 H   0  0  0  0  0  0  0  0  0  0  0  0
  1  3  1  0  0  0  0
  1  4  2  0  0  0  0
  2  3  2  0  0  0  0
  2  6  1  0  0  0  0
  3  7  1  0  0  0  0
  4  5  1  0  0  0  0
  4 13  1  0  0  0  0
  5  6  2  0  0  0  0
  5 12  1  0  0  0  0
  6 14  1  0  0  0  0
  7  8  1  0  0  0  0
  7 11  2  0  0  0  0
  9 10  1  0  0  0  0
 10 13  1  0  0  0  0
  1 15  1  0  0  0  0
  2 16  1  0  0  0  0
  8 17  1  0  0  0  0
  8 18  1  0  0  0  0
  8 19  1  0  0  0  0
  9 20  1  0  0  0  0
  9 21  1  0  0  0  0
  9 22  1  0  0  0  0
 10 23  1  0  0  0  0
 10 24  1  0  0  0  0
 12 25  1  0  0  0  0
M  END
> <id>
EN300-1920019

> <smiles>
CCOC=1C=C(C=C(Br)C1O)C(=O)C

> <IUPAC Name>
1-(3-bromo-5-ethoxy-4-hydroxyphenyl)ethan-1-one

> <CAS>
1556173-17-1

> <URL>
https://www.enaminestore.com/catalog/EN300-1920019

> <ROCS_ShapeQuery>
_x1604L0AP1_x0771L0AP1

> <ROCS_TanimotoCombo>
0.945 

> <ROCS_ShapeTanimoto>
0.494 

> <ROCS_ColorTanimoto>
0.451 

> <ROCS_RefTversky>
0.459 

> <ROCS_RefColorTversky>
0.513 

> <ROCS_RefTverskyCombo>
0.972 

> <ROCS_FitTversky>
1.182 

> <ROCS_FitColorTversky>
0.789 

> <ROCS_FitTverskyCombo>
1.971 

> <ROCS_ColorScore>
-4.882

> <ROCS_Overlap>
769.678

> <ROCS_Rank>
447                 

$$$$
untitled-dbase-1534_47
  -OEChem-06052310023D

 21 21  0     1  0  0  0  0  0999 V2000
   -4.6094   12.4918  -29.8283 C   0  0  0  0  0  0  0  0  0  0  0  0
   -5.5847   11.7878  -29.1221 C   0  0  0  0  0  0  0  0  0  0  0  0
   -5.0670   11.1578  -31.7900 C   0  0  0  0  0  0  0  0  0  0  0  0
   -4.3506   12.1768  -31.1623 C   0  0  0  0  0  0  0  0  0  0  0  0
   -6.3011   10.7688  -29.7497 C   0  0  0  0  0  0  0  0  0  0  0  0
   -6.0423   10.4537  -31.0837 C   0  0  0  0  0  0  0  0  0  0  0  0
   -2.6793   12.1294  -33.0549 C   0  0  0  0  0  0  0  0  0  0  0  0
   -2.1802   13.4698  -31.0191 C   0  0  0  0  0  0  0  0  0  0  0  0
   -3.3075   12.9300  -31.9163 C   0  0  2  0  0  0  0  0  0  0  0  0
   -3.1058   12.1197  -34.2056 O   0  0  0  0  0  0  0  0  0  0  0  0
   -7.2464   10.0988  -29.0314 O   0  0  0  0  0  0  0  0  0  0  0  0
   -6.9953    9.0743  -31.9679 Br  0  0  0  0  0  0  0  0  0  0  0  0
   -4.0566   13.2840  -29.3302 H   0  0  0  0  0  0  0  0  0  0  0  0
   -5.7808   12.0388  -28.0830 H   0  0  0  0  0  0  0  0  0  0  0  0
   -4.8587   10.9194  -32.8308 H   0  0  0  0  0  0  0  0  0  0  0  0
   -1.7529   11.5812  -32.8079 H   0  0  0  0  0  0  0  0  0  0  0  0
   -1.6826   12.6507  -30.4888 H   0  0  0  0  0  0  0  0  0  0  0  0
   -1.4234   14.0082  -31.6003 H   0  0  0  0  0  0  0  0  0  0  0  0
   -2.5657   14.1710  -30.2702 H   0  0  0  0  0  0  0  0  0  0  0  0
   -3.7547   13.8121  -32.4113 H   0  0  0  0  0  0  0  0  0  0  0  0
   -7.6669    9.4209  -29.5828 H   0  0  0  0  0  0  0  0  0  0  0  0
  1  2  1  0  0  0  0
  1  4  2  0  0  0  0
  2  5  2  0  0  0  0
  3  4  1  0  0  0  0
  3  6  2  0  0  0  0
  4  9  1  0  0  0  0
  5  6  1  0  0  0  0
  5 11  1  0  0  0  0
  6 12  1  0  0  0  0
  7  9  1  0  0  0  0
  7 10  2  0  0  0  0
  8  9  1  0  0  0  0
  1 13  1  0  0  0  0
  2 14  1  0  0  0  0
  3 15  1  0  0  0  0
  7 16  1  0  0  0  0
  8 17  1  0  0  0  0
  8 18  1  0  0  0  0
  8 19  1  0  0  0  0
  9 20  1  0  0  0  0
 11 21  1  0  0  0  0
M  END
> <id>
EN300-1907333

> <smiles>
CC(C=O)C=1C=CC(O)=C(Br)C1

> <IUPAC Name>
2-(3-bromo-4-hydroxyphenyl)propanal

> <CAS>
1785179-52-3

> <URL>
https://www.enaminestore.com/catalog/EN300-1907333

> <ROCS_ShapeQuery>
_x1604L0AP1_x0771L0AP1

> <ROCS_TanimotoCombo>
0.945 

> <ROCS_ShapeTanimoto>
0.494 

> <ROCS_ColorTanimoto>
0.451 

> <ROCS_RefTversky>
0.442 

> <ROCS_RefColorTversky>
0.513 

> <ROCS_RefTverskyCombo>
0.954 

> <ROCS_FitTversky>
1.315 

> <ROCS_FitColorTversky>
0.789 

> <ROCS_FitTverskyCombo>
2.104 

> <ROCS_ColorScore>
-4.877

> <ROCS_Overlap>
739.195

> <ROCS_Rank>
448                 

$$$$
untitled-dbase-360_2
  -OEChem-06052310023D

 19 19  0     0  0  0  0  0  0999 V2000
   -4.6059   12.4925  -29.8534 C   0  0  0  0  0  0  0  0  0  0  0  0
   -4.3548   12.1775  -31.1888 C   0  0  0  0  0  0  0  0  0  0  0  0
   -5.5757   11.7871  -29.1408 C   0  0  0  0  0  0  0  0  0  0  0  0
   -5.0736   11.1572  -31.8117 C   0  0  0  0  0  0  0  0  0  0  0  0
   -6.2944   10.7668  -29.7637 C   0  0  0  0  0  0  0  0  0  0  0  0
   -6.0434   10.4518  -31.0992 C   0  0  0  0  0  0  0  0  0  0  0  0
   -4.7670   10.8587  -33.2441 C   0  0  0  0  0  0  0  0  0  0  0  0
   -5.8206   11.4407  -34.1791 C   0  0  0  0  0  0  0  0  0  0  0  0
   -7.2348   10.0998  -29.0358 O   0  0  0  0  0  0  0  0  0  0  0  0
   -7.0300    9.0576  -31.9382 Br  0  0  0  0  0  0  0  0  0  0  0  0
   -5.8730   13.3791  -34.0076 Br  0  0  0  0  0  0  0  0  0  0  0  0
   -4.0466   13.2873  -29.3685 H   0  0  0  0  0  0  0  0  0  0  0  0
   -3.5970   12.7337  -31.7346 H   0  0  0  0  0  0  0  0  0  0  0  0
   -5.7660   12.0388  -28.1009 H   0  0  0  0  0  0  0  0  0  0  0  0
   -4.6896    9.7696  -33.3927 H   0  0  0  0  0  0  0  0  0  0  0  0
   -3.7713   11.2522  -33.5050 H   0  0  0  0  0  0  0  0  0  0  0  0
   -5.6019   11.2257  -35.2293 H   0  0  0  0  0  0  0  0  0  0  0  0
   -6.8255   11.0789  -33.9419 H   0  0  0  0  0  0  0  0  0  0  0  0
   -7.6594    9.4201  -29.5817 H   0  0  0  0  0  0  0  0  0  0  0  0
  1  2  2  0  0  0  0
  1  3  1  0  0  0  0
  2  4  1  0  0  0  0
  3  5  2  0  0  0  0
  4  6  2  0  0  0  0
  4  7  1  0  0  0  0
  5  6  1  0  0  0  0
  5  9  1  0  0  0  0
  6 10  1  0  0  0  0
  7  8  1  0  0  0  0
  8 11  1  0  0  0  0
  1 12  1  0  0  0  0
  2 13  1  0  0  0  0
  3 14  1  0  0  0  0
  7 15  1  0  0  0  0
  7 16  1  0  0  0  0
  8 17  1  0  0  0  0
  8 18  1  0  0  0  0
  9 19  1  0  0  0  0
M  END
> <id>
EN300-1904531

> <smiles>
OC=1C=CC=C(CCBr)C1Br

> <MDLNUMBER>
MFCD33499665

> <IUPAC Name>
2-bromo-3-(2-bromoethyl)phenol

> <CAS>
2228163-60-6

> <URL>
https://www.enaminestore.com/catalog/EN300-1904531

> <ROCS_ShapeQuery>
_x1604L0AP1_x0771L0AP1

> <ROCS_TanimotoCombo>
0.944 

> <ROCS_ShapeTanimoto>
0.447 

> <ROCS_ColorTanimoto>
0.497 

> <ROCS_RefTversky>
0.403 

> <ROCS_RefColorTversky>
0.516 

> <ROCS_RefTverskyCombo>
0.919 

> <ROCS_FitTversky>
1.327 

> <ROCS_FitColorTversky>
0.933 

> <ROCS_FitTverskyCombo>
2.260 

> <ROCS_ColorScore>
-4.883

> <ROCS_Overlap>
672.703

> <ROCS_Rank>
449                 

$$$$
untitled-dbase-1169_29
  -OEChem-06052310023D

 25 25  0     0  0  0  0  0  0999 V2000
   -4.2606   12.2739  -31.0463 C   0  0  0  0  0  0  0  0  0  0  0  0
   -5.0153   11.3442  -31.7615 C   0  0  0  0  0  0  0  0  0  0  0  0
   -4.5000   12.4681  -29.6859 C   0  0  0  0  0  0  0  0  0  0  0  0
   -6.0095   10.6086  -31.1164 C   0  0  0  0  0  0  0  0  0  0  0  0
   -6.2489   10.8028  -29.7560 C   0  0  0  0  0  0  0  0  0  0  0  0
   -5.4942   11.7326  -29.0408 C   0  0  0  0  0  0  0  0  0  0  0  0
   -6.9384   10.0609  -33.3912 C   0  0  0  0  0  0  0  0  0  0  0  0
   -6.1285    8.2130  -31.8372 C   0  0  0  0  0  0  0  0  0  0  0  0
   -8.2779    9.4155  -31.4095 C   0  0  0  0  0  0  0  0  0  0  0  0
   -6.8335    9.5858  -31.9279 C   0  0  0  0  0  0  0  0  0  0  0  0
   -7.4455   11.1213  -33.7412 O   0  0  0  0  0  0  0  0  0  0  0  0
   -7.2262   10.0767  -29.1393 O   0  0  0  0  0  0  0  0  0  0  0  0
   -6.4535    9.1741  -34.2979 O   0  0  0  0  0  0  0  0  0  0  0  0
   -5.7882   12.0248  -27.1908 Br  0  0  0  0  0  0  0  0  0  0  0  0
   -3.4862   12.8464  -31.5484 H   0  0  0  0  0  0  0  0  0  0  0  0
   -4.8205   11.1975  -32.8206 H   0  0  0  0  0  0  0  0  0  0  0  0
   -3.9014   13.1968  -29.1450 H   0  0  0  0  0  0  0  0  0  0  0  0
   -6.6759    7.4470  -32.3996 H   0  0  0  0  0  0  0  0  0  0  0  0
   -5.1132    8.2434  -32.2482 H   0  0  0  0  0  0  0  0  0  0  0  0
   -6.0351    7.8686  -30.8012 H   0  0  0  0  0  0  0  0  0  0  0  0
   -8.8359    8.6837  -32.0059 H   0  0  0  0  0  0  0  0  0  0  0  0
   -8.2959    9.0507  -30.3757 H   0  0  0  0  0  0  0  0  0  0  0  0
   -8.8267   10.3643  -31.4247 H   0  0  0  0  0  0  0  0  0  0  0  0
   -7.2776   10.3170  -28.2017 H   0  0  0  0  0  0  0  0  0  0  0  0
   -6.5295    9.4242  -35.2413 H   0  0  0  0  0  0  0  0  0  0  0  0
  1  2  1  0  0  0  0
  1  3  2  0  0  0  0
  2  4  2  0  0  0  0
  3  6  1  0  0  0  0
  4  5  1  0  0  0  0
  4 10  1  0  0  0  0
  5  6  2  0  0  0  0
  5 12  1  0  0  0  0
  6 14  1  0  0  0  0
  7 10  1  0  0  0  0
  7 11  2  0  0  0  0
  7 13  1  0  0  0  0
  8 10  1  0  0  0  0
  9 10  1  0  0  0  0
  1 15  1  0  0  0  0
  2 16  1  0  0  0  0
  3 17  1  0  0  0  0
  8 18  1  0  0  0  0
  8 19  1  0  0  0  0
  8 20  1  0  0  0  0
  9 21  1  0  0  0  0
  9 22  1  0  0  0  0
  9 23  1  0  0  0  0
 12 24  1  0  0  0  0
 13 25  1  0  0  0  0
M  END
> <id>
EN300-1913471

> <smiles>
CC(C)(C(=O)O)C=1C=CC=C(Br)C1O

> <MDLNUMBER>
MFCD19695786

> <IUPAC Name>
2-(3-bromo-2-hydroxyphenyl)-2-methylpropanoic acid

> <CAS>
1314703-57-5

> <URL>
https://www.enaminestore.com/catalog/EN300-1913471

> <ROCS_ShapeQuery>
_x1604L0AP1_x0771L0AP1

> <ROCS_TanimotoCombo>
0.944 

> <ROCS_ShapeTanimoto>
0.569 

> <ROCS_ColorTanimoto>
0.375 

> <ROCS_RefTversky>
0.504 

> <ROCS_RefColorTversky>
0.502 

> <ROCS_RefTverskyCombo>
1.007 

> <ROCS_FitTversky>
1.293 

> <ROCS_FitColorTversky>
0.596 

> <ROCS_FitTverskyCombo>
1.889 

> <ROCS_ColorScore>
-4.829

> <ROCS_Overlap>
846.311

> <ROCS_Rank>
450                 

$$$$
untitled-dbase-99_1
  -OEChem-06052310023D

 15 15  0     0  0  0  0  0  0999 V2000
   -4.5954   12.4789  -29.8360 C   0  0  0  0  0  0  0  0  0  0  0  0
   -5.5721   11.7796  -29.1271 C   0  0  0  0  0  0  0  0  0  0  0  0
   -4.3416   12.1627  -31.1707 C   0  0  0  0  0  0  0  0  0  0  0  0
   -6.2951   10.7640  -29.7529 C   0  0  0  0  0  0  0  0  0  0  0  0
   -5.0645   11.1471  -31.7964 C   0  0  0  0  0  0  0  0  0  0  0  0
   -6.0413   10.4477  -31.0875 C   0  0  0  0  0  0  0  0  0  0  0  0
   -3.3461   12.8777  -31.8882 N   0  3  0  0  0  0  0  0  0  0  0  0
   -2.1659   12.4520  -31.8781 O   0  5  0  0  0  0  0  0  0  0  0  0
   -3.6742   13.9157  -32.5121 O   0  0  0  0  0  0  0  0  0  0  0  0
   -7.2424   10.1005  -29.0312 O   0  0  0  0  0  0  0  0  0  0  0  0
   -4.8153   10.8477  -33.0811 F   0  0  0  0  0  0  0  0  0  0  0  0
   -7.0109    9.0709  -31.9604 Br  0  0  0  0  0  0  0  0  0  0  0  0
   -4.0393   13.2682  -29.3359 H   0  0  0  0  0  0  0  0  0  0  0  0
   -5.7644   12.0315  -28.0877 H   0  0  0  0  0  0  0  0  0  0  0  0
   -7.6681    9.4242  -29.5806 H   0  0  0  0  0  0  0  0  0  0  0  0
  1  2  1  0  0  0  0
  1  3  2  0  0  0  0
  2  4  2  0  0  0  0
  3  5  1  0  0  0  0
  3  7  1  0  0  0  0
  4  6  1  0  0  0  0
  4 10  1  0  0  0  0
  5  6  2  0  0  0  0
  5 11  1  0  0  0  0
  6 12  1  0  0  0  0
  7  8  1  0  0  0  0
  7  9  2  0  0  0  0
  1 13  1  0  0  0  0
  2 14  1  0  0  0  0
 10 15  1  0  0  0  0
M  CHG  2   7   1   8  -1
M  END
> <id>
EN300-316201

> <smiles>
OC=1C=CC([N+](=O)[O-])=C(F)C1Br

> <MDLNUMBER>
MFCD26407438

> <IUPAC Name>
2-bromo-3-fluoro-4-nitrophenol

> <CAS>
1806987-57-4

> <Purity>
95

> <URL>
https://www.enaminestore.com/catalog/EN300-316201

> <ROCS_ShapeQuery>
_x1604L0AP1_x0771L0AP1

> <ROCS_TanimotoCombo>
0.944 

> <ROCS_ShapeTanimoto>
0.494 

> <ROCS_ColorTanimoto>
0.450 

> <ROCS_RefTversky>
0.447 

> <ROCS_RefColorTversky>
0.513 

> <ROCS_RefTverskyCombo>
0.959 

> <ROCS_FitTversky>
1.271 

> <ROCS_FitColorTversky>
0.787 

> <ROCS_FitTverskyCombo>
2.058 

> <ROCS_ColorScore>
-4.879

> <ROCS_Overlap>
748.086

> <ROCS_Rank>
451                 

$$$$
untitled-dbase-526_13
  -OEChem-06052310023D

 21 21  0     0  0  0  0  0  0999 V2000
   -5.0084   11.1721  -31.7644 C   0  0  0  0  0  0  0  0  0  0  0  0
   -4.5654   12.5020  -29.7966 C   0  0  0  0  0  0  0  0  0  0  0  0
   -5.9955   10.4730  -31.0698 C   0  0  0  0  0  0  0  0  0  0  0  0
   -6.2676   10.7885  -29.7386 C   0  0  0  0  0  0  0  0  0  0  0  0
   -4.2933   12.1866  -31.1278 C   0  0  0  0  0  0  0  0  0  0  0  0
   -5.5526   11.8030  -29.1020 C   0  0  0  0  0  0  0  0  0  0  0  0
   -6.9234    9.6294  -33.2630 C   0  0  0  0  0  0  0  0  0  0  0  0
   -6.3898    8.5597  -34.1807 C   0  0  0  0  0  0  0  0  0  0  0  0
   -6.7492    9.3906  -31.7703 C   0  0  0  0  0  0  0  0  0  0  0  0
   -7.4681   10.6354  -33.7158 O   0  0  0  0  0  0  0  0  0  0  0  0
   -7.2364   10.0954  -29.0724 O   0  0  0  0  0  0  0  0  0  0  0  0
   -3.0752   13.0487  -31.9854 Cl  0  0  0  0  0  0  0  0  0  0  0  0
   -5.8935   12.2606  -27.2939 Br  0  0  0  0  0  0  0  0  0  0  0  0
   -4.7995   10.9233  -32.8027 H   0  0  0  0  0  0  0  0  0  0  0  0
   -4.0052   13.2935  -29.3037 H   0  0  0  0  0  0  0  0  0  0  0  0
   -7.1695    7.8183  -34.3759 H   0  0  0  0  0  0  0  0  0  0  0  0
   -6.0851    9.0096  -35.1288 H   0  0  0  0  0  0  0  0  0  0  0  0
   -5.5394    8.0621  -33.7083 H   0  0  0  0  0  0  0  0  0  0  0  0
   -6.2366    8.4252  -31.6413 H   0  0  0  0  0  0  0  0  0  0  0  0
   -7.7508    9.2764  -31.3285 H   0  0  0  0  0  0  0  0  0  0  0  0
   -7.3135   10.4220  -28.1632 H   0  0  0  0  0  0  0  0  0  0  0  0
  1  3  2  0  0  0  0
  1  5  1  0  0  0  0
  2  5  2  0  0  0  0
  2  6  1  0  0  0  0
  3  4  1  0  0  0  0
  3  9  1  0  0  0  0
  4  6  2  0  0  0  0
  4 11  1  0  0  0  0
  5 12  1  0  0  0  0
  6 13  1  0  0  0  0
  7  8  1  0  0  0  0
  7  9  1  0  0  0  0
  7 10  2  0  0  0  0
  1 14  1  0  0  0  0
  2 15  1  0  0  0  0
  8 16  1  0  0  0  0
  8 17  1  0  0  0  0
  8 18  1  0  0  0  0
  9 19  1  0  0  0  0
  9 20  1  0  0  0  0
 11 21  1  0  0  0  0
M  END
> <id>
EN300-1912617

> <smiles>
CC(=O)CC=1C=C(Cl)C=C(Br)C1O

> <MDLNUMBER>
MFCD03410432

> <IUPAC Name>
1-(3-bromo-5-chloro-2-hydroxyphenyl)propan-2-one

> <CAS>
1017083-02-1

> <URL>
https://www.enaminestore.com/catalog/EN300-1912617

> <ROCS_ShapeQuery>
_x1604L0AP1_x0771L0AP1

> <ROCS_TanimotoCombo>
0.944 

> <ROCS_ShapeTanimoto>
0.585 

> <ROCS_ColorTanimoto>
0.359 

> <ROCS_RefTversky>
0.501 

> <ROCS_RefColorTversky>
0.411 

> <ROCS_RefTverskyCombo>
0.911 

> <ROCS_FitTversky>
1.402 

> <ROCS_FitColorTversky>
0.742 

> <ROCS_FitTverskyCombo>
2.145 

> <ROCS_ColorScore>
-3.886

> <ROCS_Overlap>
838.543

> <ROCS_Rank>
452                 

$$$$
untitled-dbase-1027_6
  -OEChem-06052310023D

 18 18  0     0  0  0  0  0  0999 V2000
   -3.8339   13.7182  -26.7987 C   0  0  0  0  0  0  0  0  0  0  0  0
   -4.7177   13.0188  -27.2128 C   0  0  0  0  0  0  0  0  0  0  0  0
   -4.5793   12.4743  -29.8727 C   0  0  0  0  0  0  0  0  0  0  0  0
   -5.0661   11.1218  -31.8146 C   0  0  0  0  0  0  0  0  0  0  0  0
   -5.5550   11.7878  -29.1500 C   0  0  0  0  0  0  0  0  0  0  0  0
   -6.2862   10.7683  -29.7595 C   0  0  0  0  0  0  0  0  0  0  0  0
   -4.3349   12.1414  -31.2051 C   0  0  0  0  0  0  0  0  0  0  0  0
   -6.0418   10.4353  -31.0919 C   0  0  0  0  0  0  0  0  0  0  0  0
   -5.8007   12.1603  -27.7247 C   0  0  0  0  0  0  0  0  0  0  0  0
   -7.2376   10.1060  -29.0392 O   0  0  0  0  0  0  0  0  0  0  0  0
   -3.1309   12.9890  -32.0965 Cl  0  0  0  0  0  0  0  0  0  0  0  0
   -7.0149    9.0559  -31.9551 Br  0  0  0  0  0  0  0  0  0  0  0  0
   -3.0498   14.3384  -26.4320 H   0  0  0  0  0  0  0  0  0  0  0  0
   -4.0109   13.2686  -29.3935 H   0  0  0  0  0  0  0  0  0  0  0  0
   -4.8727   10.8656  -32.8539 H   0  0  0  0  0  0  0  0  0  0  0  0
   -5.8820   11.2610  -27.0947 H   0  0  0  0  0  0  0  0  0  0  0  0
   -6.7630   12.6846  -27.6186 H   0  0  0  0  0  0  0  0  0  0  0  0
   -7.6605    9.4295  -29.5895 H   0  0  0  0  0  0  0  0  0  0  0  0
  1  2  3  0  0  0  0
  2  9  1  0  0  0  0
  3  5  2  0  0  0  0
  3  7  1  0  0  0  0
  4  7  2  0  0  0  0
  4  8  1  0  0  0  0
  5  6  1  0  0  0  0
  5  9  1  0  0  0  0
  6  8  2  0  0  0  0
  6 10  1  0  0  0  0
  7 11  1  0  0  0  0
  8 12  1  0  0  0  0
  1 13  1  0  0  0  0
  3 14  1  0  0  0  0
  4 15  1  0  0  0  0
  9 16  1  0  0  0  0
  9 17  1  0  0  0  0
 10 18  1  0  0  0  0
M  END
> <id>
EN300-1922881

> <smiles>
OC=1C(Br)=CC(Cl)=CC1CC#C

> <IUPAC Name>
2-bromo-4-chloro-6-(prop-2-yn-1-yl)phenol

> <CAS>
2229351-87-3

> <URL>
https://www.enaminestore.com/catalog/EN300-1922881

> <ROCS_ShapeQuery>
_x1604L0AP1_x0771L0AP1

> <ROCS_TanimotoCombo>
0.944 

> <ROCS_ShapeTanimoto>
0.447 

> <ROCS_ColorTanimoto>
0.497 

> <ROCS_RefTversky>
0.412 

> <ROCS_RefColorTversky>
0.516 

> <ROCS_RefTverskyCombo>
0.927 

> <ROCS_FitTversky>
1.237 

> <ROCS_FitColorTversky>
0.932 

> <ROCS_FitTverskyCombo>
2.169 

> <ROCS_ColorScore>
-4.881

> <ROCS_Overlap>
688.539

> <ROCS_Rank>
453                 

$$$$
untitled-dbase-1443_0
  -OEChem-06052310023D

 21 21  0     0  0  0  0  0  0999 V2000
   -4.5836   12.4724  -29.8663 C   0  0  0  0  0  0  0  0  0  0  0  0
   -5.0677   11.1257  -31.8128 C   0  0  0  0  0  0  0  0  0  0  0  0
   -4.3379   12.1440  -31.1995 C   0  0  0  0  0  0  0  0  0  0  0  0
   -5.5590   11.7825  -29.1463 C   0  0  0  0  0  0  0  0  0  0  0  0
   -6.2888   10.7643  -29.7596 C   0  0  0  0  0  0  0  0  0  0  0  0
   -6.0432   10.4358  -31.0929 C   0  0  0  0  0  0  0  0  0  0  0  0
   -2.6803   13.8492  -31.2148 C   0  0  0  0  0  0  0  0  0  0  0  0
   -4.9956   13.1649  -27.2950 C   0  0  0  0  0  0  0  0  0  0  0  0
   -7.2385   10.1011  -29.0386 O   0  0  0  0  0  0  0  0  0  0  0  0
   -3.3876   12.8185  -31.9026 O   0  0  0  0  0  0  0  0  0  0  0  0
   -5.7858   12.1122  -27.8441 O   0  0  0  0  0  0  0  0  0  0  0  0
   -7.0154    9.0596  -31.9615 Br  0  0  0  0  0  0  0  0  0  0  0  0
   -4.0139   13.2658  -29.3888 H   0  0  0  0  0  0  0  0  0  0  0  0
   -4.8678   10.8796  -32.8531 H   0  0  0  0  0  0  0  0  0  0  0  0
   -1.9526   14.3059  -31.8901 H   0  0  0  0  0  0  0  0  0  0  0  0
   -2.1709   13.4254  -30.3457 H   0  0  0  0  0  0  0  0  0  0  0  0
   -3.3925   14.6084  -30.8829 H   0  0  0  0  0  0  0  0  0  0  0  0
   -5.2769   13.3264  -26.2515 H   0  0  0  0  0  0  0  0  0  0  0  0
   -5.1540   14.0795  -27.8719 H   0  0  0  0  0  0  0  0  0  0  0  0
   -3.9415   12.8821  -27.3463 H   0  0  0  0  0  0  0  0  0  0  0  0
   -7.2781   10.4535  -28.1364 H   0  0  0  0  0  0  0  0  0  0  0  0
  1  3  1  0  0  0  0
  1  4  2  0  0  0  0
  2  3  2  0  0  0  0
  2  6  1  0  0  0  0
  3 10  1  0  0  0  0
  4  5  1  0  0  0  0
  4 11  1  0  0  0  0
  5  6  2  0  0  0  0
  5  9  1  0  0  0  0
  6 12  1  0  0  0  0
  7 10  1  0  0  0  0
  8 11  1  0  0  0  0
  1 13  1  0  0  0  0
  2 14  1  0  0  0  0
  7 15  1  0  0  0  0
  7 16  1  0  0  0  0
  7 17  1  0  0  0  0
  8 18  1  0  0  0  0
  8 19  1  0  0  0  0
  8 20  1  0  0  0  0
  9 21  1  0  0  0  0
M  END
> <id>
EN300-1938211

> <smiles>
COC=1C=C(Br)C(O)=C(OC)C1

> <IUPAC Name>
2-bromo-4,6-dimethoxyphenol

> <CAS>
1219618-88-8

> <URL>
https://www.enaminestore.com/catalog/EN300-1938211

> <ROCS_ShapeQuery>
_x1604L0AP1_x0771L0AP1

> <ROCS_TanimotoCombo>
0.944 

> <ROCS_ShapeTanimoto>
0.493 

> <ROCS_ColorTanimoto>
0.451 

> <ROCS_RefTversky>
0.443 

> <ROCS_RefColorTversky>
0.513 

> <ROCS_RefTverskyCombo>
0.956 

> <ROCS_FitTversky>
1.295 

> <ROCS_FitColorTversky>
0.789 

> <ROCS_FitTverskyCombo>
2.084 

> <ROCS_ColorScore>
-4.881

> <ROCS_Overlap>
741.347

> <ROCS_Rank>
454                 

$$$$
untitled-dbase-547_9
  -OEChem-06052310023D

 27 27  0     0  0  0  0  0  0999 V2000
   -4.2721   12.2951  -31.0482 C   0  0  0  0  0  0  0  0  0  0  0  0
   -4.9514   11.2946  -31.7432 C   0  0  0  0  0  0  0  0  0  0  0  0
   -4.5816   12.5494  -29.7120 C   0  0  0  0  0  0  0  0  0  0  0  0
   -5.9404   10.5485  -31.1023 C   0  0  0  0  0  0  0  0  0  0  0  0
   -6.2500   10.8028  -29.7661 C   0  0  0  0  0  0  0  0  0  0  0  0
   -5.5706   11.8033  -29.0710 C   0  0  0  0  0  0  0  0  0  0  0  0
   -6.4626    8.0847  -31.2144 C   0  0  0  0  0  0  0  0  0  0  0  0
   -8.1832    9.7631  -31.9450 C   0  0  0  0  0  0  0  0  0  0  0  0
   -6.7820   10.3858  -34.0956 C   0  0  0  0  0  0  0  0  0  0  0  0
   -6.6759    9.4537  -31.8864 C   0  0  0  0  0  0  0  0  0  0  0  0
   -6.1968    9.3474  -33.2591 N   0  0  0  0  0  0  0  0  0  0  0  0
   -7.2212   10.0655  -29.1533 O   0  0  0  0  0  0  0  0  0  0  0  0
   -5.9614   12.1787  -27.2544 Br  0  0  0  0  0  0  0  0  0  0  0  0
   -3.5017   12.8758  -31.5470 H   0  0  0  0  0  0  0  0  0  0  0  0
   -4.7022   11.1015  -32.7833 H   0  0  0  0  0  0  0  0  0  0  0  0
   -4.0412   13.3328  -29.1866 H   0  0  0  0  0  0  0  0  0  0  0  0
   -6.9831    7.2913  -31.7645 H   0  0  0  0  0  0  0  0  0  0  0  0
   -5.3988    7.8180  -31.1899 H   0  0  0  0  0  0  0  0  0  0  0  0
   -6.8325    8.0648  -30.1836 H   0  0  0  0  0  0  0  0  0  0  0  0
   -8.7224    8.9881  -32.5031 H   0  0  0  0  0  0  0  0  0  0  0  0
   -8.3713   10.7176  -32.4519 H   0  0  0  0  0  0  0  0  0  0  0  0
   -8.6350    9.8231  -30.9489 H   0  0  0  0  0  0  0  0  0  0  0  0
   -6.5112   11.3746  -33.6968 H   0  0  0  0  0  0  0  0  0  0  0  0
   -6.4004   10.2877  -35.1226 H   0  0  0  0  0  0  0  0  0  0  0  0
   -7.8769   10.2796  -34.0996 H   0  0  0  0  0  0  0  0  0  0  0  0
   -6.4499    8.4330  -33.6317 H   0  0  0  0  0  0  0  0  0  0  0  0
   -7.3260   10.3522  -28.2334 H   0  0  0  0  0  0  0  0  0  0  0  0
  1  2  1  0  0  0  0
  1  3  2  0  0  0  0
  2  4  2  0  0  0  0
  3  6  1  0  0  0  0
  4  5  1  0  0  0  0
  4 10  1  0  0  0  0
  5  6  2  0  0  0  0
  5 12  1  0  0  0  0
  6 13  1  0  0  0  0
  7 10  1  0  0  0  0
  8 10  1  0  0  0  0
  9 11  1  0  0  0  0
 10 11  1  0  0  0  0
  1 14  1  0  0  0  0
  2 15  1  0  0  0  0
  3 16  1  0  0  0  0
  7 17  1  0  0  0  0
  7 18  1  0  0  0  0
  7 19  1  0  0  0  0
  8 20  1  0  0  0  0
  8 21  1  0  0  0  0
  8 22  1  0  0  0  0
  9 23  1  0  0  0  0
  9 24  1  0  0  0  0
  9 25  1  0  0  0  0
 11 26  1  0  0  0  0
 12 27  1  0  0  0  0
M  END
> <id>
EN300-1923463

> <smiles>
CNC(C)(C)C=1C=CC=C(Br)C1O

> <IUPAC Name>
2-bromo-6-[2-(methylamino)propan-2-yl]phenol

> <CAS>
2229370-03-8

> <URL>
https://www.enaminestore.com/catalog/EN300-1923463

> <ROCS_ShapeQuery>
_x1604L0AP1_x0771L0AP1

> <ROCS_TanimotoCombo>
0.944 

> <ROCS_ShapeTanimoto>
0.540 

> <ROCS_ColorTanimoto>
0.403 

> <ROCS_RefTversky>
0.478 

> <ROCS_RefColorTversky>
0.502 

> <ROCS_RefTverskyCombo>
0.980 

> <ROCS_FitTversky>
1.319 

> <ROCS_FitColorTversky>
0.673 

> <ROCS_FitTverskyCombo>
1.991 

> <ROCS_ColorScore>
-4.799

> <ROCS_Overlap>
800.971

> <ROCS_Rank>
455                 

$$$$
untitled-dbase-1429_5
  -OEChem-06052310023D

 17 17  0     0  0  0  0  0  0999 V2000
   -4.7175   13.0157  -27.2218 C   0  0  0  0  0  0  0  0  0  0  0  0
   -4.5780   12.4727  -29.8730 C   0  0  0  0  0  0  0  0  0  0  0  0
   -5.0633   11.1192  -31.8145 C   0  0  0  0  0  0  0  0  0  0  0  0
   -5.5548   11.7872  -29.1509 C   0  0  0  0  0  0  0  0  0  0  0  0
   -6.2858   10.7676  -29.7605 C   0  0  0  0  0  0  0  0  0  0  0  0
   -4.3323   12.1388  -31.2049 C   0  0  0  0  0  0  0  0  0  0  0  0
   -6.0401   10.4336  -31.0924 C   0  0  0  0  0  0  0  0  0  0  0  0
   -5.8018   12.1608  -27.7261 C   0  0  0  0  0  0  0  0  0  0  0  0
   -3.8621   13.6898  -26.8212 N   0  0  0  0  0  0  0  0  0  0  0  0
   -7.2383   10.1063  -29.0408 O   0  0  0  0  0  0  0  0  0  0  0  0
   -3.1269   12.9852  -32.0956 Cl  0  0  0  0  0  0  0  0  0  0  0  0
   -7.0130    9.0541  -31.9557 Br  0  0  0  0  0  0  0  0  0  0  0  0
   -4.0096   13.2670  -29.3937 H   0  0  0  0  0  0  0  0  0  0  0  0
   -4.8689   10.8621  -32.8535 H   0  0  0  0  0  0  0  0  0  0  0  0
   -5.8830   11.2610  -27.1024 H   0  0  0  0  0  0  0  0  0  0  0  0
   -6.7615   12.6846  -27.6275 H   0  0  0  0  0  0  0  0  0  0  0  0
   -7.6610    9.4296  -29.5911 H   0  0  0  0  0  0  0  0  0  0  0  0
  1  8  1  0  0  0  0
  1  9  3  0  0  0  0
  2  4  2  0  0  0  0
  2  6  1  0  0  0  0
  3  6  2  0  0  0  0
  3  7  1  0  0  0  0
  4  5  1  0  0  0  0
  4  8  1  0  0  0  0
  5  7  2  0  0  0  0
  5 10  1  0  0  0  0
  6 11  1  0  0  0  0
  7 12  1  0  0  0  0
  2 13  1  0  0  0  0
  3 14  1  0  0  0  0
  8 15  1  0  0  0  0
  8 16  1  0  0  0  0
 10 17  1  0  0  0  0
M  END
> <id>
EN300-1922571

> <smiles>
OC=1C(Br)=CC(Cl)=CC1CC#N

> <IUPAC Name>
2-(3-bromo-5-chloro-2-hydroxyphenyl)acetonitrile

> <CAS>
1508095-82-6

> <URL>
https://www.enaminestore.com/catalog/EN300-1922571

> <ROCS_ShapeQuery>
_x1604L0AP1_x0771L0AP1

> <ROCS_TanimotoCombo>
0.944 

> <ROCS_ShapeTanimoto>
0.447 

> <ROCS_ColorTanimoto>
0.497 

> <ROCS_RefTversky>
0.412 

> <ROCS_RefColorTversky>
0.516 

> <ROCS_RefTverskyCombo>
0.927 

> <ROCS_FitTversky>
1.234 

> <ROCS_FitColorTversky>
0.932 

> <ROCS_FitTverskyCombo>
2.166 

> <ROCS_ColorScore>
-4.881

> <ROCS_Overlap>
688.854

> <ROCS_Rank>
456                 

$$$$
untitled-dbase-1156_129
  -OEChem-06052310023D

 22 22  0     1  0  0  0  0  0999 V2000
   -4.5864   12.4659  -29.8271 C   0  0  0  0  0  0  0  0  0  0  0  0
   -5.5709   11.7733  -29.1224 C   0  0  0  0  0  0  0  0  0  0  0  0
   -5.0500   11.1312  -31.7869 C   0  0  0  0  0  0  0  0  0  0  0  0
   -4.3259   12.1450  -31.1593 C   0  0  0  0  0  0  0  0  0  0  0  0
   -6.2949   10.7596  -29.7499 C   0  0  0  0  0  0  0  0  0  0  0  0
   -6.0345   10.4385  -31.0822 C   0  0  0  0  0  0  0  0  0  0  0  0
   -2.1446   13.3929  -30.9979 C   0  0  0  0  0  0  0  0  0  0  0  0
   -3.2730   12.8860  -31.9116 C   0  0  2  0  0  0  0  0  0  0  0  0
   -4.5433   13.6466  -34.8611 N   0  5  0  0  0  0  0  0  0  0  0  0
   -3.8253   14.0560  -32.6319 N   0  0  0  0  0  0  0  0  0  0  0  0
   -4.1957   13.8322  -33.7907 N   0  3  0  0  0  0  0  0  0  0  0  0
   -7.2491   10.1007  -29.0332 O   0  0  0  0  0  0  0  0  0  0  0  0
   -2.5525   14.5896  -30.3436 O   0  0  0  0  0  0  0  0  0  0  0  0
   -6.9977    9.0660  -31.9660 Br  0  0  0  0  0  0  0  0  0  0  0  0
   -4.0276   13.2541  -29.3291 H   0  0  0  0  0  0  0  0  0  0  0  0
   -5.7682   12.0290  -28.0847 H   0  0  0  0  0  0  0  0  0  0  0  0
   -4.8404   10.8881  -32.8264 H   0  0  0  0  0  0  0  0  0  0  0  0
   -1.8797   12.6542  -30.2333 H   0  0  0  0  0  0  0  0  0  0  0  0
   -1.2498   13.6240  -31.5864 H   0  0  0  0  0  0  0  0  0  0  0  0
   -2.8167   12.2395  -32.6826 H   0  0  0  0  0  0  0  0  0  0  0  0
   -7.6742    9.4254  -29.5842 H   0  0  0  0  0  0  0  0  0  0  0  0
   -2.7450   15.2358  -31.0411 H   0  0  0  0  0  0  0  0  0  0  0  0
  1  2  1  0  0  0  0
  1  4  2  0  0  0  0
  2  5  2  0  0  0  0
  3  4  1  0  0  0  0
  3  6  2  0  0  0  0
  4  8  1  0  0  0  0
  5  6  1  0  0  0  0
  5 12  1  0  0  0  0
  6 14  1  0  0  0  0
  7  8  1  0  0  0  0
  7 13  1  0  0  0  0
  8 10  1  0  0  0  0
  9 11  2  0  0  0  0
 10 11  2  0  0  0  0
  1 15  1  0  0  0  0
  2 16  1  0  0  0  0
  3 17  1  0  0  0  0
  7 18  1  0  0  0  0
  7 19  1  0  0  0  0
  8 20  1  0  0  0  0
 12 21  1  0  0  0  0
 13 22  1  0  0  0  0
M  CHG  2   9  -1  11   1
M  END
> <id>
EN300-1906353

> <smiles>
OCC(N=[N+]=[N-])C=1C=CC(O)=C(Br)C1

> <IUPAC Name>
4-(1-azido-2-hydroxyethyl)-2-bromophenol

> <CAS>
2228196-15-2

> <URL>
https://www.enaminestore.com/catalog/EN300-1906353

> <ROCS_ShapeQuery>
_x1604L0AP1_x0771L0AP1

> <ROCS_TanimotoCombo>
0.943 

> <ROCS_ShapeTanimoto>
0.493 

> <ROCS_ColorTanimoto>
0.451 

> <ROCS_RefTversky>
0.458 

> <ROCS_RefColorTversky>
0.513 

> <ROCS_RefTverskyCombo>
0.970 

> <ROCS_FitTversky>
1.183 

> <ROCS_FitColorTversky>
0.789 

> <ROCS_FitTverskyCombo>
1.972 

> <ROCS_ColorScore>
-4.878

> <ROCS_Overlap>
768.088

> <ROCS_Rank>
457                 

$$$$
untitled-dbase-908_376
  -OEChem-06052310023D

 24 24  0     0  0  0  0  0  0999 V2000
   -4.5690   12.4599  -29.8474 C   0  0  0  0  0  0  0  0  0  0  0  0
   -5.0471   11.1158  -31.7972 C   0  0  0  0  0  0  0  0  0  0  0  0
   -4.3156   12.1297  -31.1787 C   0  0  0  0  0  0  0  0  0  0  0  0
   -5.5538   11.7760  -29.1345 C   0  0  0  0  0  0  0  0  0  0  0  0
   -6.2853   10.7621  -29.7529 C   0  0  0  0  0  0  0  0  0  0  0  0
   -6.0320   10.4319  -31.0843 C   0  0  0  0  0  0  0  0  0  0  0  0
   -3.2906   12.8450  -31.9226 C   0  0  0  0  0  0  0  0  0  0  0  0
   -6.4271   14.3709  -28.2978 C   0  0  0  0  0  0  0  0  0  0  0  0
   -5.5498   13.4651  -27.4603 C   0  0  0  0  0  0  0  0  0  0  0  0
   -2.6056   13.8364  -31.2576 N   0  0  0  0  0  0  0  0  0  0  0  0
   -7.2450   10.1054  -29.0393 O   0  0  0  0  0  0  0  0  0  0  0  0
   -5.7896   12.1100  -27.8349 O   0  0  0  0  0  0  0  0  0  0  0  0
   -2.9363   12.4628  -33.5145 S   0  0  0  0  0  0  0  0  0  0  0  0
   -7.0076    9.0621  -31.9594 Br  0  0  0  0  0  0  0  0  0  0  0  0
   -4.0014   13.2504  -29.3617 H   0  0  0  0  0  0  0  0  0  0  0  0
   -4.8445   10.8648  -32.8362 H   0  0  0  0  0  0  0  0  0  0  0  0
   -6.2014   14.2578  -29.3618 H   0  0  0  0  0  0  0  0  0  0  0  0
   -7.4854   14.1419  -28.1346 H   0  0  0  0  0  0  0  0  0  0  0  0
   -6.2810   15.4187  -28.0151 H   0  0  0  0  0  0  0  0  0  0  0  0
   -5.7806   13.5830  -26.3973 H   0  0  0  0  0  0  0  0  0  0  0  0
   -4.4928   13.6946  -27.6252 H   0  0  0  0  0  0  0  0  0  0  0  0
   -2.7957   14.0787  -30.2904 H   0  0  0  0  0  0  0  0  0  0  0  0
   -1.8829   14.3743  -31.7245 H   0  0  0  0  0  0  0  0  0  0  0  0
   -7.6689    9.4318  -29.5926 H   0  0  0  0  0  0  0  0  0  0  0  0
  1  3  1  0  0  0  0
  1  4  2  0  0  0  0
  2  3  2  0  0  0  0
  2  6  1  0  0  0  0
  3  7  1  0  0  0  0
  4  5  1  0  0  0  0
  4 12  1  0  0  0  0
  5  6  2  0  0  0  0
  5 11  1  0  0  0  0
  6 14  1  0  0  0  0
  7 10  1  0  0  0  0
  7 13  2  0  0  0  0
  8  9  1  0  0  0  0
  9 12  1  0  0  0  0
  1 15  1  0  0  0  0
  2 16  1  0  0  0  0
  8 17  1  0  0  0  0
  8 18  1  0  0  0  0
  8 19  1  0  0  0  0
  9 20  1  0  0  0  0
  9 21  1  0  0  0  0
 10 22  1  0  0  0  0
 10 23  1  0  0  0  0
 11 24  1  0  0  0  0
M  END
> <id>
EN300-1920595

> <smiles>
CCOC=1C=C(C=C(Br)C1O)C(=S)N

> <IUPAC Name>
3-bromo-5-ethoxy-4-hydroxybenzene-1-carbothioamide

> <CAS>
2229105-65-9

> <URL>
https://www.enaminestore.com/catalog/EN300-1920595

> <ROCS_ShapeQuery>
_x1604L0AP1_x0771L0AP1

> <ROCS_TanimotoCombo>
0.943 

> <ROCS_ShapeTanimoto>
0.492 

> <ROCS_ColorTanimoto>
0.451 

> <ROCS_RefTversky>
0.456 

> <ROCS_RefColorTversky>
0.513 

> <ROCS_RefTverskyCombo>
0.969 

> <ROCS_FitTversky>
1.193 

> <ROCS_FitColorTversky>
0.789 

> <ROCS_FitTverskyCombo>
1.982 

> <ROCS_ColorScore>
-4.882

> <ROCS_Overlap>
764.575

> <ROCS_Rank>
458                 

$$$$
untitled-dbase-2109_84
  -OEChem-06052310023D

 24 24  0     0  0  0  0  0  0999 V2000
   -4.6122   12.4982  -29.8420 C   0  0  0  0  0  0  0  0  0  0  0  0
   -5.5826   11.7926  -29.1306 C   0  0  0  0  0  0  0  0  0  0  0  0
   -5.0757   11.1614  -31.8004 C   0  0  0  0  0  0  0  0  0  0  0  0
   -4.3588   12.1826  -31.1769 C   0  0  0  0  0  0  0  0  0  0  0  0
   -6.2996   10.7713  -29.7541 C   0  0  0  0  0  0  0  0  0  0  0  0
   -6.0461   10.4557  -31.0890 C   0  0  0  0  0  0  0  0  0  0  0  0
   -1.9889   10.8547  -32.4472 C   0  0  0  0  0  0  0  0  0  0  0  0
   -0.8297   10.3348  -33.2293 C   0  0  0  0  0  0  0  0  0  0  0  0
   -3.3101   12.9453  -31.9442 C   0  0  0  0  0  0  0  0  0  0  0  0
   -2.6606   12.0821  -33.0245 C   0  0  0  0  0  0  0  0  0  0  0  0
   -2.3355   10.2896  -31.4179 O   0  0  0  0  0  0  0  0  0  0  0  0
   -7.2400   10.0999  -29.0308 O   0  0  0  0  0  0  0  0  0  0  0  0
   -7.0000    9.0733  -31.9675 Br  0  0  0  0  0  0  0  0  0  0  0  0
   -4.0589   13.2921  -29.3471 H   0  0  0  0  0  0  0  0  0  0  0  0
   -5.7745   12.0441  -28.0909 H   0  0  0  0  0  0  0  0  0  0  0  0
   -4.8717   10.9225  -32.8420 H   0  0  0  0  0  0  0  0  0  0  0  0
    0.1263   10.7828  -32.9158 H   0  0  0  0  0  0  0  0  0  0  0  0
   -0.6979    9.2475  -33.1153 H   0  0  0  0  0  0  0  0  0  0  0  0
   -0.8963   10.5115  -34.3140 H   0  0  0  0  0  0  0  0  0  0  0  0
   -3.7628   13.8391  -32.3932 H   0  0  0  0  0  0  0  0  0  0  0  0
   -2.5485   13.3213  -31.2487 H   0  0  0  0  0  0  0  0  0  0  0  0
   -1.9030   12.6608  -33.5663 H   0  0  0  0  0  0  0  0  0  0  0  0
   -3.4148   11.7476  -33.7467 H   0  0  0  0  0  0  0  0  0  0  0  0
   -7.6614    9.4205  -29.5797 H   0  0  0  0  0  0  0  0  0  0  0  0
  1  2  1  0  0  0  0
  1  4  2  0  0  0  0
  2  5  2  0  0  0  0
  3  4  1  0  0  0  0
  3  6  2  0  0  0  0
  4  9  1  0  0  0  0
  5  6  1  0  0  0  0
  5 12  1  0  0  0  0
  6 13  1  0  0  0  0
  7  8  1  0  0  0  0
  7 10  1  0  0  0  0
  7 11  2  0  0  0  0
  9 10  1  0  0  0  0
  1 14  1  0  0  0  0
  2 15  1  0  0  0  0
  3 16  1  0  0  0  0
  8 17  1  0  0  0  0
  8 18  1  0  0  0  0
  8 19  1  0  0  0  0
  9 20  1  0  0  0  0
  9 21  1  0  0  0  0
 10 22  1  0  0  0  0
 10 23  1  0  0  0  0
 12 24  1  0  0  0  0
M  END
> <id>
EN300-1910576

> <smiles>
CC(=O)CCC=1C=CC(O)=C(Br)C1

> <MDLNUMBER>
MFCD26654044

> <IUPAC Name>
4-(3-bromo-4-hydroxyphenyl)butan-2-one

> <CAS>
1534011-55-6

> <URL>
https://www.enaminestore.com/catalog/EN300-1910576

> <ROCS_ShapeQuery>
_x1604L0AP1_x0771L0AP1

> <ROCS_TanimotoCombo>
0.943 

> <ROCS_ShapeTanimoto>
0.447 

> <ROCS_ColorTanimoto>
0.496 

> <ROCS_RefTversky>
0.419 

> <ROCS_RefColorTversky>
0.515 

> <ROCS_RefTverskyCombo>
0.934 

> <ROCS_FitTversky>
1.173 

> <ROCS_FitColorTversky>
0.932 

> <ROCS_FitTverskyCombo>
2.105 

> <ROCS_ColorScore>
-4.877

> <ROCS_Overlap>
701.782

> <ROCS_Rank>
459                 

$$$$
untitled-dbase-286_18
  -OEChem-06052310023D

 27 27  0     0  0  0  0  0  0999 V2000
   -4.2710   12.3063  -31.0366 C   0  0  0  0  0  0  0  0  0  0  0  0
   -4.9461   11.3058  -31.7357 C   0  0  0  0  0  0  0  0  0  0  0  0
   -4.5845   12.5568  -29.7007 C   0  0  0  0  0  0  0  0  0  0  0  0
   -5.9349   10.5558  -31.0990 C   0  0  0  0  0  0  0  0  0  0  0  0
   -6.2485   10.8063  -29.7630 C   0  0  0  0  0  0  0  0  0  0  0  0
   -5.5733   11.8068  -29.0639 C   0  0  0  0  0  0  0  0  0  0  0  0
   -6.5086    8.0389  -31.2895 C   0  0  0  0  0  0  0  0  0  0  0  0
   -8.1848    9.7679  -31.8804 C   0  0  0  0  0  0  0  0  0  0  0  0
   -6.1901    9.4236  -33.3684 C   0  0  0  0  0  0  0  0  0  0  0  0
   -6.6682    9.4572  -31.8902 C   0  0  0  0  0  0  0  0  0  0  0  0
   -6.8006   10.4275  -34.2015 N   0  0  0  0  0  0  0  0  0  0  0  0
   -7.2194   10.0652  -29.1544 O   0  0  0  0  0  0  0  0  0  0  0  0
   -5.9695   12.1771  -27.2474 Br  0  0  0  0  0  0  0  0  0  0  0  0
   -3.5007   12.8901  -31.5322 H   0  0  0  0  0  0  0  0  0  0  0  0
   -4.6939   11.1157  -32.7756 H   0  0  0  0  0  0  0  0  0  0  0  0
   -4.0473   13.3403  -29.1721 H   0  0  0  0  0  0  0  0  0  0  0  0
   -7.0403    7.2793  -31.8727 H   0  0  0  0  0  0  0  0  0  0  0  0
   -5.4543    7.7420  -31.2384 H   0  0  0  0  0  0  0  0  0  0  0  0
   -6.9034    7.9975  -30.2673 H   0  0  0  0  0  0  0  0  0  0  0  0
   -8.7647    9.0182  -32.4302 H   0  0  0  0  0  0  0  0  0  0  0  0
   -8.3922   10.7429  -32.3374 H   0  0  0  0  0  0  0  0  0  0  0  0
   -8.5768    9.7892  -30.8567 H   0  0  0  0  0  0  0  0  0  0  0  0
   -5.1065    9.5774  -33.4307 H   0  0  0  0  0  0  0  0  0  0  0  0
   -6.4016    8.4568  -33.8384 H   0  0  0  0  0  0  0  0  0  0  0  0
   -6.5494   11.3339  -33.8651 H   0  0  0  0  0  0  0  0  0  0  0  0
   -6.4791   10.3171  -35.1409 H   0  0  0  0  0  0  0  0  0  0  0  0
   -7.3272   10.3495  -28.2341 H   0  0  0  0  0  0  0  0  0  0  0  0
  1  2  1  0  0  0  0
  1  3  2  0  0  0  0
  2  4  2  0  0  0  0
  3  6  1  0  0  0  0
  4  5  1  0  0  0  0
  4 10  1  0  0  0  0
  5  6  2  0  0  0  0
  5 12  1  0  0  0  0
  6 13  1  0  0  0  0
  7 10  1  0  0  0  0
  8 10  1  0  0  0  0
  9 10  1  0  0  0  0
  9 11  1  0  0  0  0
  1 14  1  0  0  0  0
  2 15  1  0  0  0  0
  3 16  1  0  0  0  0
  7 17  1  0  0  0  0
  7 18  1  0  0  0  0
  7 19  1  0  0  0  0
  8 20  1  0  0  0  0
  8 21  1  0  0  0  0
  8 22  1  0  0  0  0
  9 23  1  0  0  0  0
  9 24  1  0  0  0  0
 11 25  1  0  0  0  0
 11 26  1  0  0  0  0
 12 27  1  0  0  0  0
M  END
> <id>
EN300-1897626

> <smiles>
CC(C)(CN)C=1C=CC=C(Br)C1O

> <MDLNUMBER>
MFCD26654546

> <IUPAC Name>
2-(1-amino-2-methylpropan-2-yl)-6-bromophenol

> <CAS>
1516212-79-5

> <URL>
https://www.enaminestore.com/catalog/EN300-1897626

> <ROCS_ShapeQuery>
_x1604L0AP1_x0771L0AP1

> <ROCS_TanimotoCombo>
0.943 

> <ROCS_ShapeTanimoto>
0.540 

> <ROCS_ColorTanimoto>
0.403 

> <ROCS_RefTversky>
0.476 

> <ROCS_RefColorTversky>
0.501 

> <ROCS_RefTverskyCombo>
0.978 

> <ROCS_FitTversky>
1.326 

> <ROCS_FitColorTversky>
0.672 

> <ROCS_FitTverskyCombo>
1.999 

> <ROCS_ColorScore>
-4.797

> <ROCS_Overlap>
798.195

> <ROCS_Rank>
460                 

$$$$
untitled-dbase-1008_21
  -OEChem-06052310023D

 24 24  0     0  0  0  0  0  0999 V2000
   -4.5696   12.4566  -29.8903 C   0  0  0  0  0  0  0  0  0  0  0  0
   -4.4149   12.2044  -31.2534 C   0  0  0  0  0  0  0  0  0  0  0  0
   -5.5004   11.7299  -29.1478 C   0  0  0  0  0  0  0  0  0  0  0  0
   -5.1910   11.2257  -31.8741 C   0  0  0  0  0  0  0  0  0  0  0  0
   -6.2765   10.7511  -29.7685 C   0  0  0  0  0  0  0  0  0  0  0  0
   -6.1219   10.4990  -31.1316 C   0  0  0  0  0  0  0  0  0  0  0  0
   -5.2758    9.5345  -33.7472 C   0  0  0  0  0  0  0  0  0  0  0  0
   -5.8888   11.8326  -34.2913 C   0  0  0  0  0  0  0  0  0  0  0  0
   -3.5180   11.2946  -33.7479 C   0  0  0  0  0  0  0  0  0  0  0  0
   -4.9821   10.9883  -33.3741 C   0  0  0  0  0  0  0  0  0  0  0  0
   -6.1355    9.1798  -34.5490 O   0  0  0  0  0  0  0  0  0  0  0  0
   -7.1764   10.0616  -29.0109 O   0  0  0  0  0  0  0  0  0  0  0  0
   -7.1861    9.1611  -31.9674 Br  0  0  0  0  0  0  0  0  0  0  0  0
   -3.9656   13.2190  -29.4071 H   0  0  0  0  0  0  0  0  0  0  0  0
   -3.6866   12.7768  -31.8223 H   0  0  0  0  0  0  0  0  0  0  0  0
   -5.6155   11.9325  -28.0863 H   0  0  0  0  0  0  0  0  0  0  0  0
   -4.6060    8.7818  -33.2937 H   0  0  0  0  0  0  0  0  0  0  0  0
   -5.6993   11.6249  -35.3506 H   0  0  0  0  0  0  0  0  0  0  0  0
   -6.9492   11.6243  -34.1024 H   0  0  0  0  0  0  0  0  0  0  0  0
   -5.7449   12.9065  -34.1208 H   0  0  0  0  0  0  0  0  0  0  0  0
   -3.3393   11.1330  -34.8173 H   0  0  0  0  0  0  0  0  0  0  0  0
   -3.2412   12.3293  -33.5153 H   0  0  0  0  0  0  0  0  0  0  0  0
   -2.8223   10.6542  -33.1922 H   0  0  0  0  0  0  0  0  0  0  0  0
   -7.6482    9.4153  -29.5585 H   0  0  0  0  0  0  0  0  0  0  0  0
  1  2  1  0  0  0  0
  1  3  2  0  0  0  0
  2  4  2  0  0  0  0
  3  5  1  0  0  0  0
  4  6  1  0  0  0  0
  4 10  1  0  0  0  0
  5  6  2  0  0  0  0
  5 12  1  0  0  0  0
  6 13  1  0  0  0  0
  7 10  1  0  0  0  0
  7 11  2  0  0  0  0
  8 10  1  0  0  0  0
  9 10  1  0  0  0  0
  1 14  1  0  0  0  0
  2 15  1  0  0  0  0
  3 16  1  0  0  0  0
  7 17  1  0  0  0  0
  8 18  1  0  0  0  0
  8 19  1  0  0  0  0
  8 20  1  0  0  0  0
  9 21  1  0  0  0  0
  9 22  1  0  0  0  0
  9 23  1  0  0  0  0
 12 24  1  0  0  0  0
M  END
> <id>
EN300-1904510

> <smiles>
CC(C)(C=O)C=1C=CC=C(O)C1Br

> <IUPAC Name>
2-(2-bromo-3-hydroxyphenyl)-2-methylpropanal

> <CAS>
2228768-54-3

> <URL>
https://www.enaminestore.com/catalog/EN300-1904510

> <ROCS_ShapeQuery>
_x1604L0AP1_x0771L0AP1

> <ROCS_TanimotoCombo>
0.943 

> <ROCS_ShapeTanimoto>
0.499 

> <ROCS_ColorTanimoto>
0.444 

> <ROCS_RefTversky>
0.453 

> <ROCS_RefColorTversky>
0.507 

> <ROCS_RefTverskyCombo>
0.960 

> <ROCS_FitTversky>
1.252 

> <ROCS_FitColorTversky>
0.780 

> <ROCS_FitTverskyCombo>
2.032 

> <ROCS_ColorScore>
-4.824

> <ROCS_Overlap>
759.789

> <ROCS_Rank>
461                 

$$$$
untitled-dbase-1903_709
  -OEChem-06052310023D

 25 25  0     0  0  0  0  0  0999 V2000
   -4.2915   12.3652  -30.9574 C   0  0  0  0  0  0  0  0  0  0  0  0
   -4.9827   11.3861  -31.6709 C   0  0  0  0  0  0  0  0  0  0  0  0
   -4.5839   12.5841  -29.6111 C   0  0  0  0  0  0  0  0  0  0  0  0
   -5.9663   10.6259  -31.0383 C   0  0  0  0  0  0  0  0  0  0  0  0
   -6.2588   10.8448  -29.6921 C   0  0  0  0  0  0  0  0  0  0  0  0
   -5.5675   11.8239  -28.9785 C   0  0  0  0  0  0  0  0  0  0  0  0
   -6.8856    7.1963  -33.8243 C   0  0  0  0  0  0  0  0  0  0  0  0
   -6.7014    9.5745  -31.8281 C   0  0  0  0  0  0  0  0  0  0  0  0
   -7.2925    8.6185  -34.1410 C   0  0  0  0  0  0  0  0  0  0  0  0
   -6.5130    9.6726  -33.3488 C   0  0  0  0  0  0  0  0  0  0  0  0
   -6.3850    6.4104  -34.6168 O   0  0  0  0  0  0  0  0  0  0  0  0
   -7.2249   10.0940  -29.0876 O   0  0  0  0  0  0  0  0  0  0  0  0
   -7.1842    6.8613  -32.5421 O   0  0  0  0  0  0  0  0  0  0  0  0
   -5.9348   12.1511  -27.1477 Br  0  0  0  0  0  0  0  0  0  0  0  0
   -3.5253   12.9569  -31.4497 H   0  0  0  0  0  0  0  0  0  0  0  0
   -4.7469   11.2205  -32.7188 H   0  0  0  0  0  0  0  0  0  0  0  0
   -4.0344   13.3512  -29.0713 H   0  0  0  0  0  0  0  0  0  0  0  0
   -7.7715    9.6636  -31.5982 H   0  0  0  0  0  0  0  0  0  0  0  0
   -6.4126    8.5736  -31.4825 H   0  0  0  0  0  0  0  0  0  0  0  0
   -8.3663    8.7445  -33.9645 H   0  0  0  0  0  0  0  0  0  0  0  0
   -7.1035    8.7632  -35.2112 H   0  0  0  0  0  0  0  0  0  0  0  0
   -6.8869   10.6581  -33.6556 H   0  0  0  0  0  0  0  0  0  0  0  0
   -5.4479    9.6508  -33.6073 H   0  0  0  0  0  0  0  0  0  0  0  0
   -7.3175   10.3560  -28.1591 H   0  0  0  0  0  0  0  0  0  0  0  0
   -7.5825    7.5784  -32.0041 H   0  0  0  0  0  0  0  0  0  0  0  0
  1  2  1  0  0  0  0
  1  3  2  0  0  0  0
  2  4  2  0  0  0  0
  3  6  1  0  0  0  0
  4  5  1  0  0  0  0
  4  8  1  0  0  0  0
  5  6  2  0  0  0  0
  5 12  1  0  0  0  0
  6 14  1  0  0  0  0
  7  9  1  0  0  0  0
  7 11  2  0  0  0  0
  7 13  1  0  0  0  0
  8 10  1  0  0  0  0
  9 10  1  0  0  0  0
  1 15  1  0  0  0  0
  2 16  1  0  0  0  0
  3 17  1  0  0  0  0
  8 18  1  0  0  0  0
  8 19  1  0  0  0  0
  9 20  1  0  0  0  0
  9 21  1  0  0  0  0
 10 22  1  0  0  0  0
 10 23  1  0  0  0  0
 12 24  1  0  0  0  0
 13 25  1  0  0  0  0
M  END
> <id>
EN300-1923456

> <smiles>
OC(=O)CCCC=1C=CC=C(Br)C1O

> <IUPAC Name>
4-(3-bromo-2-hydroxyphenyl)butanoic acid

> <CAS>
1516255-40-5

> <URL>
https://www.enaminestore.com/catalog/EN300-1923456

> <ROCS_ShapeQuery>
_x1604L0AP1_x0771L0AP1

> <ROCS_TanimotoCombo>
0.942 

> <ROCS_ShapeTanimoto>
0.534 

> <ROCS_ColorTanimoto>
0.408 

> <ROCS_RefTversky>
0.481 

> <ROCS_RefColorTversky>
0.506 

> <ROCS_RefTverskyCombo>
0.987 

> <ROCS_FitTversky>
1.261 

> <ROCS_FitColorTversky>
0.678 

> <ROCS_FitTverskyCombo>
1.938 

> <ROCS_ColorScore>
-4.844

> <ROCS_Overlap>
806.979

> <ROCS_Rank>
462                 

$$$$
untitled-dbase-137_1
  -OEChem-06052310023D

 23 24  0     0  0  0  0  0  0999 V2000
   -7.4391    9.7948  -33.2392 C   0  0  0  0  0  0  0  0  0  0  0  0
   -7.3824    9.8819  -31.8480 C   0  0  0  0  0  0  0  0  0  0  0  0
   -4.4981   12.1718  -31.3821 C   0  0  0  0  0  0  0  0  0  0  0  0
   -6.5228   10.4941  -34.0191 C   0  0  0  0  0  0  0  0  0  0  0  0
   -4.4415   12.2588  -29.9909 C   0  0  0  0  0  0  0  0  0  0  0  0
   -6.4062   10.6713  -31.2185 C   0  0  0  0  0  0  0  0  0  0  0  0
   -5.4744   11.3824  -32.0116 C   0  0  0  0  0  0  0  0  0  0  0  0
   -5.5462   11.2832  -33.4106 C   0  0  0  0  0  0  0  0  0  0  0  0
   -6.3344   10.7705  -29.8195 C   0  0  0  0  0  0  0  0  0  0  0  0
   -5.3579   11.5595  -29.2110 C   0  0  0  0  0  0  0  0  0  0  0  0
   -3.4681   11.2696  -34.5669 C   0  0  0  0  0  0  0  0  0  0  0  0
   -7.2287   10.0893  -29.0397 O   0  0  0  0  0  0  0  0  0  0  0  0
   -4.6690   11.9513  -34.2168 O   0  0  0  0  0  0  0  0  0  0  0  0
   -5.2423   11.7084  -27.3236 Br  0  0  0  0  0  0  0  0  0  0  0  0
   -8.1991    9.1806  -33.7132 H   0  0  0  0  0  0  0  0  0  0  0  0
   -8.1144    9.3220  -31.2703 H   0  0  0  0  0  0  0  0  0  0  0  0
   -3.7673   12.7311  -31.9620 H   0  0  0  0  0  0  0  0  0  0  0  0
   -6.5743   10.4203  -35.1018 H   0  0  0  0  0  0  0  0  0  0  0  0
   -3.6738   12.8789  -29.5348 H   0  0  0  0  0  0  0  0  0  0  0  0
   -2.8591   11.9097  -35.2099 H   0  0  0  0  0  0  0  0  0  0  0  0
   -3.7139   10.3405  -35.0874 H   0  0  0  0  0  0  0  0  0  0  0  0
   -2.9121   11.0380  -33.6554 H   0  0  0  0  0  0  0  0  0  0  0  0
   -7.0474   10.2608  -28.1043 H   0  0  0  0  0  0  0  0  0  0  0  0
  1  2  2  0  0  0  0
  1  4  1  0  0  0  0
  2  6  1  0  0  0  0
  3  5  1  0  0  0  0
  3  7  2  0  0  0  0
  4  8  2  0  0  0  0
  5 10  2  0  0  0  0
  6  7  1  0  0  0  0
  6  9  2  0  0  0  0
  7  8  1  0  0  0  0
  8 13  1  0  0  0  0
  9 10  1  0  0  0  0
  9 12  1  0  0  0  0
 10 14  1  0  0  0  0
 11 13  1  0  0  0  0
  1 15  1  0  0  0  0
  2 16  1  0  0  0  0
  3 17  1  0  0  0  0
  4 18  1  0  0  0  0
  5 19  1  0  0  0  0
 11 20  1  0  0  0  0
 11 21  1  0  0  0  0
 11 22  1  0  0  0  0
 12 23  1  0  0  0  0
M  END
> <id>
EN300-1144191

> <smiles>
COC=1C=CC=C2C(O)=C(Br)C=CC12

> <MDLNUMBER>
MFCD21875083

> <IUPAC Name>
2-bromo-5-methoxynaphthalen-1-ol

> <CAS>
71186-94-2

> <URL>
https://www.enaminestore.com/catalog/EN300-1144191

> <ROCS_ShapeQuery>
_x1604L0AP1_x0771L0AP1

> <ROCS_TanimotoCombo>
0.942 

> <ROCS_ShapeTanimoto>
0.498 

> <ROCS_ColorTanimoto>
0.444 

> <ROCS_RefTversky>
0.467 

> <ROCS_RefColorTversky>
0.508 

> <ROCS_RefTverskyCombo>
0.974 

> <ROCS_FitTversky>
1.156 

> <ROCS_FitColorTversky>
0.780 

> <ROCS_FitTverskyCombo>
1.936 

> <ROCS_ColorScore>
-4.829

> <ROCS_Overlap>
784.044

> <ROCS_Rank>
463                 

$$$$
untitled-dbase-2056_840
  -OEChem-06052310023D

 31 32  0     0  0  0  0  0  0999 V2000
   -2.3526   14.1767  -31.8623 C   0  0  0  0  0  0  0  0  0  0  0  0
   -3.0912   14.7967  -30.8545 C   0  0  0  0  0  0  0  0  0  0  0  0
   -2.5727   12.8322  -32.1617 C   0  0  0  0  0  0  0  0  0  0  0  0
   -4.0498   14.0723  -30.1460 C   0  0  0  0  0  0  0  0  0  0  0  0
   -3.5314   12.1078  -31.4533 C   0  0  0  0  0  0  0  0  0  0  0  0
   -6.3139   10.1736  -32.9525 C   0  0  0  0  0  0  0  0  0  0  0  0
   -5.8702   10.0273  -34.2667 C   0  0  0  0  0  0  0  0  0  0  0  0
   -6.7756    7.8045  -32.8447 C   0  0  0  0  0  0  0  0  0  0  0  0
   -4.2699   12.7278  -30.4454 C   0  0  0  0  0  0  0  0  0  0  0  0
   -6.7666    9.0621  -32.2414 C   0  0  0  0  0  0  0  0  0  0  0  0
   -6.3319    7.6583  -34.1590 C   0  0  0  0  0  0  0  0  0  0  0  0
   -5.8792    8.7697  -34.8700 C   0  0  0  0  0  0  0  0  0  0  0  0
   -6.7988   10.1338  -29.9695 C   0  0  0  0  0  0  0  0  0  0  0  0
   -5.2946   11.9525  -29.6882 C   0  0  0  0  0  0  0  0  0  0  0  0
   -7.2150    9.2107  -30.9092 N   0  0  0  0  0  0  0  0  0  0  0  0
   -7.1915   10.2586  -28.8160 O   0  0  0  0  0  0  0  0  0  0  0  0
   -6.3518    6.4159  -34.7198 O   0  0  0  0  0  0  0  0  0  0  0  0
   -5.8349   10.9388  -30.5268 O   0  0  0  0  0  0  0  0  0  0  0  0
   -5.2692    8.6088  -36.6572 Br  0  0  0  0  0  0  0  0  0  0  0  0
   -1.6072   14.7413  -32.4147 H   0  0  0  0  0  0  0  0  0  0  0  0
   -2.9207   15.8439  -30.6219 H   0  0  0  0  0  0  0  0  0  0  0  0
   -1.9987   12.3495  -32.9470 H   0  0  0  0  0  0  0  0  0  0  0  0
   -4.6205   14.5636  -29.3623 H   0  0  0  0  0  0  0  0  0  0  0  0
   -3.6959   11.0607  -31.6934 H   0  0  0  0  0  0  0  0  0  0  0  0
   -6.3000   11.1579  -32.4915 H   0  0  0  0  0  0  0  0  0  0  0  0
   -5.5199   10.9049  -34.8043 H   0  0  0  0  0  0  0  0  0  0  0  0
   -7.1268    6.9351  -32.2936 H   0  0  0  0  0  0  0  0  0  0  0  0
   -4.8605   11.4771  -28.7980 H   0  0  0  0  0  0  0  0  0  0  0  0
   -6.1125   12.6024  -29.3482 H   0  0  0  0  0  0  0  0  0  0  0  0
   -7.9327    8.5573  -30.6049 H   0  0  0  0  0  0  0  0  0  0  0  0
   -6.0197    6.4548  -35.6301 H   0  0  0  0  0  0  0  0  0  0  0  0
  1  2  2  0  0  0  0
  1  3  1  0  0  0  0
  2  4  1  0  0  0  0
  3  5  2  0  0  0  0
  4  9  2  0  0  0  0
  5  9  1  0  0  0  0
  6  7  1  0  0  0  0
  6 10  2  0  0  0  0
  7 12  2  0  0  0  0
  8 10  1  0  0  0  0
  8 11  2  0  0  0  0
  9 14  1  0  0  0  0
 10 15  1  0  0  0  0
 11 12  1  0  0  0  0
 11 17  1  0  0  0  0
 12 19  1  0  0  0  0
 13 15  1  0  0  0  0
 13 16  2  0  0  0  0
 13 18  1  0  0  0  0
 14 18  1  0  0  0  0
  1 20  1  0  0  0  0
  2 21  1  0  0  0  0
  3 22  1  0  0  0  0
  4 23  1  0  0  0  0
  5 24  1  0  0  0  0
  6 25  1  0  0  0  0
  7 26  1  0  0  0  0
  8 27  1  0  0  0  0
 14 28  1  0  0  0  0
 14 29  1  0  0  0  0
 15 30  1  0  0  0  0
 17 31  1  0  0  0  0
M  END
> <id>
EN300-28294194

> <smiles>
OC=1C=C(NC(=O)OCC=2C=CC=CC2)C=CC1Br

> <IUPAC Name>
benzyl N-(4-bromo-3-hydroxyphenyl)carbamate

> <CAS>
2183464-42-6

> <URL>
https://www.enaminestore.com/catalog/EN300-28294194

> <ROCS_ShapeQuery>
_x1604L0AP1_x0771L0AP1

> <ROCS_TanimotoCombo>
0.942 

> <ROCS_ShapeTanimoto>
0.657 

> <ROCS_ColorTanimoto>
0.285 

> <ROCS_RefTversky>
0.603 

> <ROCS_RefColorTversky>
0.387 

> <ROCS_RefTverskyCombo>
0.991 

> <ROCS_FitTversky>
1.157 

> <ROCS_FitColorTversky>
0.519 

> <ROCS_FitTverskyCombo>
1.676 

> <ROCS_ColorScore>
-3.704

> <ROCS_Overlap>
1019.623

> <ROCS_Rank>
464                 

$$$$
untitled-dbase-1524_0
  -OEChem-06052310023D

 15 15  0     0  0  0  0  0  0999 V2000
   -5.0685   11.1335  -31.8119 C   0  0  0  0  0  0  0  0  0  0  0  0
   -5.5674   11.7835  -29.1452 C   0  0  0  0  0  0  0  0  0  0  0  0
   -4.3426   12.1522  -31.1948 C   0  0  0  0  0  0  0  0  0  0  0  0
   -6.2934   10.7647  -29.7623 C   0  0  0  0  0  0  0  0  0  0  0  0
   -4.5920   12.4772  -29.8614 C   0  0  0  0  0  0  0  0  0  0  0  0
   -6.0440   10.4398  -31.0956 C   0  0  0  0  0  0  0  0  0  0  0  0
   -3.3564   12.8526  -31.9204 N   0  0  0  0  0  0  0  0  0  0  0  0
   -7.2393   10.1061  -29.0345 O   0  0  0  0  0  0  0  0  0  0  0  0
   -3.9004   13.4550  -29.2590 F   0  0  0  0  0  0  0  0  0  0  0  0
   -7.0106    9.0609  -31.9656 Br  0  0  0  0  0  0  0  0  0  0  0  0
   -4.8682   10.8855  -32.8520 H   0  0  0  0  0  0  0  0  0  0  0  0
   -5.7556   12.0430  -28.1070 H   0  0  0  0  0  0  0  0  0  0  0  0
   -2.8755   13.6118  -31.4822 H   0  0  0  0  0  0  0  0  0  0  0  0
   -3.2209   12.6408  -32.8882 H   0  0  0  0  0  0  0  0  0  0  0  0
   -7.6670    9.4270  -29.5789 H   0  0  0  0  0  0  0  0  0  0  0  0
  1  3  2  0  0  0  0
  1  6  1  0  0  0  0
  2  4  1  0  0  0  0
  2  5  2  0  0  0  0
  3  5  1  0  0  0  0
  3  7  1  0  0  0  0
  4  6  2  0  0  0  0
  4  8  1  0  0  0  0
  5  9  1  0  0  0  0
  6 10  1  0  0  0  0
  1 11  1  0  0  0  0
  2 12  1  0  0  0  0
  7 13  1  0  0  0  0
  7 14  1  0  0  0  0
  8 15  1  0  0  0  0
M  END
> <id>
EN300-4334146

> <smiles>
NC=1C=C(Br)C(O)=CC1F

> <MDLNUMBER>
MFCD22041611

> <IUPAC Name>
4-amino-2-bromo-5-fluorophenol

> <CAS>
111856-96-3

> <Purity>
95

> <URL>
https://www.enaminestore.com/catalog/EN300-4334146

> <ROCS_ShapeQuery>
_x1604L0AP1_x0771L0AP1

> <ROCS_TanimotoCombo>
0.942 

> <ROCS_ShapeTanimoto>
0.491 

> <ROCS_ColorTanimoto>
0.451 

> <ROCS_RefTversky>
0.426 

> <ROCS_RefColorTversky>
0.513 

> <ROCS_RefTverskyCombo>
0.939 

> <ROCS_FitTversky>
1.452 

> <ROCS_FitColorTversky>
0.789 

> <ROCS_FitTverskyCombo>
2.241 

> <ROCS_ColorScore>
-4.879

> <ROCS_Overlap>
711.317

> <ROCS_Rank>
465                 

$$$$
untitled-dbase-2007_0
  -OEChem-06052310023D

 18 18  0     0  0  0  0  0  0999 V2000
   -5.0664   11.1307  -31.8123 C   0  0  0  0  0  0  0  0  0  0  0  0
   -5.5658   11.7837  -29.1464 C   0  0  0  0  0  0  0  0  0  0  0  0
   -4.3413   12.1507  -31.1965 C   0  0  0  0  0  0  0  0  0  0  0  0
   -4.5909   12.4772  -29.8635 C   0  0  0  0  0  0  0  0  0  0  0  0
   -6.2910   10.7636  -29.7623 C   0  0  0  0  0  0  0  0  0  0  0  0
   -6.0413   10.4371  -31.0952 C   0  0  0  0  0  0  0  0  0  0  0  0
   -3.3023   12.8765  -31.9880 C   0  0  0  0  0  0  0  0  0  0  0  0
   -3.8668   13.5078  -29.2248 N   0  0  0  0  0  0  0  0  0  0  0  0
   -7.2376   10.1062  -29.0344 O   0  0  0  0  0  0  0  0  0  0  0  0
   -7.0091    9.0585  -31.9645 Br  0  0  0  0  0  0  0  0  0  0  0  0
   -4.8649   10.8815  -32.8520 H   0  0  0  0  0  0  0  0  0  0  0  0
   -5.7646   12.0355  -28.1070 H   0  0  0  0  0  0  0  0  0  0  0  0
   -3.7453   13.7445  -32.4893 H   0  0  0  0  0  0  0  0  0  0  0  0
   -2.4851   13.2234  -31.3441 H   0  0  0  0  0  0  0  0  0  0  0  0
   -2.8558   12.2234  -32.7476 H   0  0  0  0  0  0  0  0  0  0  0  0
   -4.0982   13.7537  -28.2846 H   0  0  0  0  0  0  0  0  0  0  0  0
   -3.2025   14.0344  -29.7536 H   0  0  0  0  0  0  0  0  0  0  0  0
   -7.6646    9.4259  -29.5780 H   0  0  0  0  0  0  0  0  0  0  0  0
  1  3  2  0  0  0  0
  1  6  1  0  0  0  0
  2  4  2  0  0  0  0
  2  5  1  0  0  0  0
  3  4  1  0  0  0  0
  3  7  1  0  0  0  0
  4  8  1  0  0  0  0
  5  6  2  0  0  0  0
  5  9  1  0  0  0  0
  6 10  1  0  0  0  0
  1 11  1  0  0  0  0
  2 12  1  0  0  0  0
  7 13  1  0  0  0  0
  7 14  1  0  0  0  0
  7 15  1  0  0  0  0
  8 16  1  0  0  0  0
  8 17  1  0  0  0  0
  9 18  1  0  0  0  0
M  END
> <id>
EN300-27776897

> <smiles>
Cl.CC=1C=C(Br)C(O)=CC1N

> <MDLNUMBER>
MFCD33549973

> <IUPAC Name>
5-amino-2-bromo-4-methylphenol hydrochloride

> <CAS>
2639462-21-6

> <Purity>
95

> <URL>
https://www.enaminestore.com/catalog/EN300-27776897

> <ROCS_ShapeQuery>
_x1604L0AP1_x0771L0AP1

> <ROCS_TanimotoCombo>
0.942 

> <ROCS_ShapeTanimoto>
0.491 

> <ROCS_ColorTanimoto>
0.451 

> <ROCS_RefTversky>
0.425 

> <ROCS_RefColorTversky>
0.513 

> <ROCS_RefTverskyCombo>
0.938 

> <ROCS_FitTversky>
1.464 

> <ROCS_FitColorTversky>
0.789 

> <ROCS_FitTverskyCombo>
2.253 

> <ROCS_ColorScore>
-4.879

> <ROCS_Overlap>
709.385

> <ROCS_Rank>
466                 

$$$$
untitled-dbase-2006_0
  -OEChem-06052310023D

 18 18  0     0  0  0  0  0  0999 V2000
   -5.0664   11.1307  -31.8123 C   0  0  0  0  0  0  0  0  0  0  0  0
   -5.5658   11.7837  -29.1464 C   0  0  0  0  0  0  0  0  0  0  0  0
   -4.3413   12.1507  -31.1965 C   0  0  0  0  0  0  0  0  0  0  0  0
   -4.5909   12.4772  -29.8635 C   0  0  0  0  0  0  0  0  0  0  0  0
   -6.2910   10.7636  -29.7623 C   0  0  0  0  0  0  0  0  0  0  0  0
   -6.0413   10.4371  -31.0952 C   0  0  0  0  0  0  0  0  0  0  0  0
   -3.3023   12.8765  -31.9880 C   0  0  0  0  0  0  0  0  0  0  0  0
   -3.8668   13.5078  -29.2248 N   0  0  0  0  0  0  0  0  0  0  0  0
   -7.2376   10.1062  -29.0344 O   0  0  0  0  0  0  0  0  0  0  0  0
   -7.0091    9.0585  -31.9645 Br  0  0  0  0  0  0  0  0  0  0  0  0
   -4.8649   10.8815  -32.8520 H   0  0  0  0  0  0  0  0  0  0  0  0
   -5.7646   12.0355  -28.1070 H   0  0  0  0  0  0  0  0  0  0  0  0
   -3.7453   13.7445  -32.4893 H   0  0  0  0  0  0  0  0  0  0  0  0
   -2.4851   13.2234  -31.3441 H   0  0  0  0  0  0  0  0  0  0  0  0
   -2.8558   12.2234  -32.7476 H   0  0  0  0  0  0  0  0  0  0  0  0
   -4.0982   13.7537  -28.2846 H   0  0  0  0  0  0  0  0  0  0  0  0
   -3.2025   14.0344  -29.7536 H   0  0  0  0  0  0  0  0  0  0  0  0
   -7.6646    9.4259  -29.5780 H   0  0  0  0  0  0  0  0  0  0  0  0
  1  3  2  0  0  0  0
  1  6  1  0  0  0  0
  2  4  2  0  0  0  0
  2  5  1  0  0  0  0
  3  4  1  0  0  0  0
  3  7  1  0  0  0  0
  4  8  1  0  0  0  0
  5  6  2  0  0  0  0
  5  9  1  0  0  0  0
  6 10  1  0  0  0  0
  1 11  1  0  0  0  0
  2 12  1  0  0  0  0
  7 13  1  0  0  0  0
  7 14  1  0  0  0  0
  7 15  1  0  0  0  0
  8 16  1  0  0  0  0
  8 17  1  0  0  0  0
  9 18  1  0  0  0  0
M  END
> <id>
EN300-4478848

> <smiles>
CC=1C=C(Br)C(O)=CC1N

> <MDLNUMBER>
MFCD33526688

> <IUPAC Name>
5-amino-2-bromo-4-methylphenol

> <CAS>
1566908-49-3

> <URL>
https://www.enaminestore.com/catalog/EN300-4478848

> <ROCS_ShapeQuery>
_x1604L0AP1_x0771L0AP1

> <ROCS_TanimotoCombo>
0.942 

> <ROCS_ShapeTanimoto>
0.491 

> <ROCS_ColorTanimoto>
0.451 

> <ROCS_RefTversky>
0.425 

> <ROCS_RefColorTversky>
0.513 

> <ROCS_RefTverskyCombo>
0.938 

> <ROCS_FitTversky>
1.464 

> <ROCS_FitColorTversky>
0.789 

> <ROCS_FitTverskyCombo>
2.253 

> <ROCS_ColorScore>
-4.879

> <ROCS_Overlap>
709.385

> <ROCS_Rank>
467                 

$$$$
untitled-dbase-260_18
  -OEChem-06052310023D

 20 20  0     1  0  0  0  0  0999 V2000
   -4.5412   12.4298  -29.8238 C   0  0  0  0  0  0  0  0  0  0  0  0
   -5.5418   11.7567  -29.1229 C   0  0  0  0  0  0  0  0  0  0  0  0
   -5.0182   11.0988  -31.7829 C   0  0  0  0  0  0  0  0  0  0  0  0
   -4.2794   12.1009  -31.1539 C   0  0  0  0  0  0  0  0  0  0  0  0
   -6.2805   10.7546  -29.7519 C   0  0  0  0  0  0  0  0  0  0  0  0
   -6.0187   10.4256  -31.0820 C   0  0  0  0  0  0  0  0  0  0  0  0
   -3.7389   13.5991  -33.1080 C   0  0  0  0  0  0  0  0  0  0  0  0
   -3.2093   12.8211  -31.9022 C   0  0  1  0  0  0  0  0  0  0  0  0
   -7.2502   10.1147  -29.0388 O   0  0  0  0  0  0  0  0  0  0  0  0
   -2.5683   13.7527  -31.0231 O   0  0  0  0  0  0  0  0  0  0  0  0
   -7.0017    9.0685  -31.9678 Br  0  0  0  0  0  0  0  0  0  0  0  0
   -3.9711   13.2090  -29.3247 H   0  0  0  0  0  0  0  0  0  0  0  0
   -5.7401   12.0184  -28.0869 H   0  0  0  0  0  0  0  0  0  0  0  0
   -4.8074   10.8494  -32.8207 H   0  0  0  0  0  0  0  0  0  0  0  0
   -4.5268   14.2985  -32.8109 H   0  0  0  0  0  0  0  0  0  0  0  0
   -4.1446   12.9249  -33.8707 H   0  0  0  0  0  0  0  0  0  0  0  0
   -2.9346   14.1645  -33.5914 H   0  0  0  0  0  0  0  0  0  0  0  0
   -2.4219   12.1352  -32.2586 H   0  0  0  0  0  0  0  0  0  0  0  0
   -7.6845    9.4458  -29.5906 H   0  0  0  0  0  0  0  0  0  0  0  0
   -2.1982   13.2283  -30.2988 H   0  0  0  0  0  0  0  0  0  0  0  0
  1  2  1  0  0  0  0
  1  4  2  0  0  0  0
  2  5  2  0  0  0  0
  3  4  1  0  0  0  0
  3  6  2  0  0  0  0
  4  8  1  0  0  0  0
  5  6  1  0  0  0  0
  5  9  1  0  0  0  0
  6 11  1  0  0  0  0
  7  8  1  1  0  0  0
  8 10  1  0  0  0  0
  1 12  1  0  0  0  0
  2 13  1  0  0  0  0
  3 14  1  0  0  0  0
  7 15  1  0  0  0  0
  7 16  1  0  0  0  0
  7 17  1  0  0  0  0
  8 18  1  0  0  0  0
  9 19  1  0  0  0  0
 10 20  1  0  0  0  0
M  END
> <id>
EN300-1895799

> <smiles>
C[C@@H](O)C=1C=CC(O)=C(Br)C1

> <MDLNUMBER>
MFCD22569960

> <IUPAC Name>
2-bromo-4-[(1R)-1-hydroxyethyl]phenol

> <CAS>
1932558-82-1

> <URL>
https://www.enaminestore.com/catalog/EN300-1895799

> <ROCS_ShapeQuery>
_x1604L0AP1_x0771L0AP1

> <ROCS_TanimotoCombo>
0.942 

> <ROCS_ShapeTanimoto>
0.491 

> <ROCS_ColorTanimoto>
0.451 

> <ROCS_RefTversky>
0.432 

> <ROCS_RefColorTversky>
0.513 

> <ROCS_RefTverskyCombo>
0.945 

> <ROCS_FitTversky>
1.384 

> <ROCS_FitColorTversky>
0.788 

> <ROCS_FitTverskyCombo>
2.173 

> <ROCS_ColorScore>
-4.877

> <ROCS_Overlap>
722.623

> <ROCS_Rank>
468                 

$$$$
untitled-dbase-2115_286
  -OEChem-06052310023D

 24 24  0     1  0  0  0  0  0999 V2000
   -4.6091   12.4915  -29.8273 C   0  0  0  0  0  0  0  0  0  0  0  0
   -5.5835   11.7863  -29.1209 C   0  0  0  0  0  0  0  0  0  0  0  0
   -5.0688   11.1602  -31.7903 C   0  0  0  0  0  0  0  0  0  0  0  0
   -4.3518   12.1785  -31.1620 C   0  0  0  0  0  0  0  0  0  0  0  0
   -6.3004   10.7681  -29.7491 C   0  0  0  0  0  0  0  0  0  0  0  0
   -6.0431   10.4550  -31.0839 C   0  0  0  0  0  0  0  0  0  0  0  0
   -2.1521   12.0625  -32.4445 C   0  0  0  0  0  0  0  0  0  0  0  0
   -2.5384   11.2422  -33.6782 C   0  0  0  0  0  0  0  0  0  0  0  0
   -3.2971   12.9421  -31.9253 C   0  0  2  0  0  0  0  0  0  0  0  0
   -2.9210   12.1288  -34.7719 N   0  0  0  0  0  0  0  0  0  0  0  0
   -7.2447   10.0969  -29.0306 O   0  0  0  0  0  0  0  0  0  0  0  0
   -2.7444   13.9596  -31.1986 F   0  0  0  0  0  0  0  0  0  0  0  0
   -6.9969    9.0766  -31.9688 Br  0  0  0  0  0  0  0  0  0  0  0  0
   -4.0558   13.2831  -29.3286 H   0  0  0  0  0  0  0  0  0  0  0  0
   -5.7784   12.0359  -28.0812 H   0  0  0  0  0  0  0  0  0  0  0  0
   -4.8617   10.9233  -32.8317 H   0  0  0  0  0  0  0  0  0  0  0  0
   -1.2701   12.6769  -32.6644 H   0  0  0  0  0  0  0  0  0  0  0  0
   -1.8697   11.3697  -31.6410 H   0  0  0  0  0  0  0  0  0  0  0  0
   -3.3767   10.5749  -33.4533 H   0  0  0  0  0  0  0  0  0  0  0  0
   -1.6943   10.6237  -34.0008 H   0  0  0  0  0  0  0  0  0  0  0  0
   -3.7864   13.4244  -32.7800 H   0  0  0  0  0  0  0  0  0  0  0  0
   -3.1405   11.5710  -35.5635 H   0  0  0  0  0  0  0  0  0  0  0  0
   -3.7127   12.6545  -34.4842 H   0  0  0  0  0  0  0  0  0  0  0  0
   -7.6658    9.4197  -29.5825 H   0  0  0  0  0  0  0  0  0  0  0  0
  1  2  1  0  0  0  0
  1  4  2  0  0  0  0
  2  5  2  0  0  0  0
  3  4  1  0  0  0  0
  3  6  2  0  0  0  0
  4  9  1  0  0  0  0
  5  6  1  0  0  0  0
  5 11  1  0  0  0  0
  6 13  1  0  0  0  0
  7  8  1  0  0  0  0
  7  9  1  0  0  0  0
  8 10  1  0  0  0  0
  9 12  1  0  0  0  0
  1 14  1  0  0  0  0
  2 15  1  0  0  0  0
  3 16  1  0  0  0  0
  7 17  1  0  0  0  0
  7 18  1  0  0  0  0
  8 19  1  0  0  0  0
  8 20  1  0  0  0  0
  9 21  1  0  0  0  0
 10 22  1  0  0  0  0
 10 23  1  0  0  0  0
 11 24  1  0  0  0  0
M  END
> <id>
EN300-1906336

> <smiles>
NCCC(F)C=1C=CC(O)=C(Br)C1

> <IUPAC Name>
4-(3-amino-1-fluoropropyl)-2-bromophenol

> <CAS>
2228938-25-6

> <URL>
https://www.enaminestore.com/catalog/EN300-1906336

> <ROCS_ShapeQuery>
_x1604L0AP1_x0771L0AP1

> <ROCS_TanimotoCombo>
0.942 

> <ROCS_ShapeTanimoto>
0.491 

> <ROCS_ColorTanimoto>
0.451 

> <ROCS_RefTversky>
0.447 

> <ROCS_RefColorTversky>
0.513 

> <ROCS_RefTverskyCombo>
0.960 

> <ROCS_FitTversky>
1.251 

> <ROCS_FitColorTversky>
0.788 

> <ROCS_FitTverskyCombo>
2.040 

> <ROCS_ColorScore>
-4.877

> <ROCS_Overlap>
749.033

> <ROCS_Rank>
469                 

$$$$
untitled-dbase-858_22
  -OEChem-06052310023D

 26 26  0     0  0  0  0  0  0999 V2000
   -4.2743   12.3055  -31.0445 C   0  0  0  0  0  0  0  0  0  0  0  0
   -4.9512   11.3041  -31.7406 C   0  0  0  0  0  0  0  0  0  0  0  0
   -4.5845   12.5578  -29.7082 C   0  0  0  0  0  0  0  0  0  0  0  0
   -5.9384   10.5550  -31.1004 C   0  0  0  0  0  0  0  0  0  0  0  0
   -6.2486   10.8072  -29.7640 C   0  0  0  0  0  0  0  0  0  0  0  0
   -5.5717   11.8086  -29.0679 C   0  0  0  0  0  0  0  0  0  0  0  0
   -6.5090    8.0408  -31.2817 C   0  0  0  0  0  0  0  0  0  0  0  0
   -8.1882    9.7666  -31.8977 C   0  0  0  0  0  0  0  0  0  0  0  0
   -6.1676    9.4136  -33.3535 C   0  0  0  0  0  0  0  0  0  0  0  0
   -6.6739    9.4550  -31.8886 C   0  0  0  0  0  0  0  0  0  0  0  0
   -7.2181   10.0669  -29.1520 O   0  0  0  0  0  0  0  0  0  0  0  0
   -6.3792   10.6670  -33.9946 O   0  0  0  0  0  0  0  0  0  0  0  0
   -5.9634   12.1813  -27.2509 Br  0  0  0  0  0  0  0  0  0  0  0  0
   -3.5053   12.8885  -31.5428 H   0  0  0  0  0  0  0  0  0  0  0  0
   -4.7015   11.1126  -32.7808 H   0  0  0  0  0  0  0  0  0  0  0  0
   -4.0459   13.3419  -29.1819 H   0  0  0  0  0  0  0  0  0  0  0  0
   -7.0458    7.2867  -31.8694 H   0  0  0  0  0  0  0  0  0  0  0  0
   -5.4538    7.7430  -31.2627 H   0  0  0  0  0  0  0  0  0  0  0  0
   -6.8768    7.9891  -30.2507 H   0  0  0  0  0  0  0  0  0  0  0  0
   -8.7460    9.0022  -32.4517 H   0  0  0  0  0  0  0  0  0  0  0  0
   -8.3894   10.7345  -32.3717 H   0  0  0  0  0  0  0  0  0  0  0  0
   -8.6079    9.8122  -30.8867 H   0  0  0  0  0  0  0  0  0  0  0  0
   -5.0919    9.2030  -33.3810 H   0  0  0  0  0  0  0  0  0  0  0  0
   -6.6692    8.6396  -33.9437 H   0  0  0  0  0  0  0  0  0  0  0  0
   -7.3236   10.3525  -28.2318 H   0  0  0  0  0  0  0  0  0  0  0  0
   -6.0438   10.5758  -34.9004 H   0  0  0  0  0  0  0  0  0  0  0  0
  1  2  1  0  0  0  0
  1  3  2  0  0  0  0
  2  4  2  0  0  0  0
  3  6  1  0  0  0  0
  4  5  1  0  0  0  0
  4 10  1  0  0  0  0
  5  6  2  0  0  0  0
  5 11  1  0  0  0  0
  6 13  1  0  0  0  0
  7 10  1  0  0  0  0
  8 10  1  0  0  0  0
  9 10  1  0  0  0  0
  9 12  1  0  0  0  0
  1 14  1  0  0  0  0
  2 15  1  0  0  0  0
  3 16  1  0  0  0  0
  7 17  1  0  0  0  0
  7 18  1  0  0  0  0
  7 19  1  0  0  0  0
  8 20  1  0  0  0  0
  8 21  1  0  0  0  0
  8 22  1  0  0  0  0
  9 23  1  0  0  0  0
  9 24  1  0  0  0  0
 11 25  1  0  0  0  0
 12 26  1  0  0  0  0
M  END
> <id>
EN300-1923101

> <smiles>
CC(C)(CO)C=1C=CC=C(Br)C1O

> <IUPAC Name>
2-bromo-6-(1-hydroxy-2-methylpropan-2-yl)phenol

> <CAS>
1897935-76-0

> <URL>
https://www.enaminestore.com/catalog/EN300-1923101

> <ROCS_ShapeQuery>
_x1604L0AP1_x0771L0AP1

> <ROCS_TanimotoCombo>
0.942 

> <ROCS_ShapeTanimoto>
0.539 

> <ROCS_ColorTanimoto>
0.403 

> <ROCS_RefTversky>
0.476 

> <ROCS_RefColorTversky>
0.502 

> <ROCS_RefTverskyCombo>
0.978 

> <ROCS_FitTversky>
1.322 

> <ROCS_FitColorTversky>
0.673 

> <ROCS_FitTverskyCombo>
1.995 

> <ROCS_ColorScore>
-4.799

> <ROCS_Overlap>
797.585

> <ROCS_Rank>
470                 

$$$$
untitled-dbase-1623_102
  -OEChem-06052310023D

 24 24  0     0  0  0  0  0  0999 V2000
   -4.3616   12.1833  -31.2080 C   0  0  0  0  0  0  0  0  0  0  0  0
   -4.6048   12.4997  -29.8715 C   0  0  0  0  0  0  0  0  0  0  0  0
   -5.0833   11.1616  -31.8253 C   0  0  0  0  0  0  0  0  0  0  0  0
   -5.5696   11.7944  -29.1522 C   0  0  0  0  0  0  0  0  0  0  0  0
   -6.2913   10.7727  -29.7695 C   0  0  0  0  0  0  0  0  0  0  0  0
   -6.0480   10.4563  -31.1061 C   0  0  0  0  0  0  0  0  0  0  0  0
   -3.5357   10.5019  -33.6068 C   0  0  0  0  0  0  0  0  0  0  0  0
   -4.7807   10.8809  -33.2246 C   0  0  0  0  0  0  0  0  0  0  0  0
   -5.0137   13.1722  -27.2953 C   0  0  0  0  0  0  0  0  0  0  0  0
   -5.8827   10.9564  -34.2635 C   0  0  0  0  0  0  0  0  0  0  0  0
   -7.2294   10.0980  -29.0433 O   0  0  0  0  0  0  0  0  0  0  0  0
   -5.7955   12.1150  -27.8475 O   0  0  0  0  0  0  0  0  0  0  0  0
   -6.1067    9.3747  -35.0497 Cl  0  0  0  0  0  0  0  0  0  0  0  0
   -7.0501    9.0552  -31.9258 Br  0  0  0  0  0  0  0  0  0  0  0  0
   -3.6070   12.7454  -31.7530 H   0  0  0  0  0  0  0  0  0  0  0  0
   -4.0393   13.2963  -29.3957 H   0  0  0  0  0  0  0  0  0  0  0  0
   -3.2998   10.2907  -34.6449 H   0  0  0  0  0  0  0  0  0  0  0  0
   -2.7217   10.4035  -32.8953 H   0  0  0  0  0  0  0  0  0  0  0  0
   -5.2932   13.3255  -26.2501 H   0  0  0  0  0  0  0  0  0  0  0  0
   -5.1825   14.0884  -27.8669 H   0  0  0  0  0  0  0  0  0  0  0  0
   -3.9571   12.8996  -27.3513 H   0  0  0  0  0  0  0  0  0  0  0  0
   -6.8498   11.2305  -33.8287 H   0  0  0  0  0  0  0  0  0  0  0  0
   -5.6612   11.6961  -35.0379 H   0  0  0  0  0  0  0  0  0  0  0  0
   -7.2648   10.4469  -28.1398 H   0  0  0  0  0  0  0  0  0  0  0  0
  1  2  1  0  0  0  0
  1  3  2  0  0  0  0
  2  4  2  0  0  0  0
  3  6  1  0  0  0  0
  3  8  1  0  0  0  0
  4  5  1  0  0  0  0
  4 12  1  0  0  0  0
  5  6  2  0  0  0  0
  5 11  1  0  0  0  0
  6 14  1  0  0  0  0
  7  8  2  0  0  0  0
  8 10  1  0  0  0  0
  9 12  1  0  0  0  0
 10 13  1  0  0  0  0
  1 15  1  0  0  0  0
  2 16  1  0  0  0  0
  7 17  1  0  0  0  0
  7 18  1  0  0  0  0
  9 19  1  0  0  0  0
  9 20  1  0  0  0  0
  9 21  1  0  0  0  0
 10 22  1  0  0  0  0
 10 23  1  0  0  0  0
 11 24  1  0  0  0  0
M  END
> <id>
EN300-1936271

> <smiles>
COC=1C=CC(C(=C)CCl)=C(Br)C1O

> <IUPAC Name>
2-bromo-3-(3-chloroprop-1-en-2-yl)-6-methoxyphenol

> <CAS>
2229228-37-7

> <URL>
https://www.enaminestore.com/catalog/EN300-1936271

> <ROCS_ShapeQuery>
_x1604L0AP1_x0771L0AP1

> <ROCS_TanimotoCombo>
0.942 

> <ROCS_ShapeTanimoto>
0.490 

> <ROCS_ColorTanimoto>
0.452 

> <ROCS_RefTversky>
0.455 

> <ROCS_RefColorTversky>
0.513 

> <ROCS_RefTverskyCombo>
0.968 

> <ROCS_FitTversky>
1.190 

> <ROCS_FitColorTversky>
0.790 

> <ROCS_FitTverskyCombo>
1.979 

> <ROCS_ColorScore>
-4.884

> <ROCS_Overlap>
762.673

> <ROCS_Rank>
471                 

$$$$
untitled-dbase-222_0
  -OEChem-06052310023D

 18 18  0     0  0  0  0  0  0999 V2000
   -5.5594   11.7775  -29.1441 C   0  0  0  0  0  0  0  0  0  0  0  0
   -5.0633   11.1248  -31.8107 C   0  0  0  0  0  0  0  0  0  0  0  0
   -4.5805   12.4663  -29.8602 C   0  0  0  0  0  0  0  0  0  0  0  0
   -4.3325   12.1401  -31.1935 C   0  0  0  0  0  0  0  0  0  0  0  0
   -6.2902   10.7622  -29.7613 C   0  0  0  0  0  0  0  0  0  0  0  0
   -6.0422   10.4359  -31.0946 C   0  0  0  0  0  0  0  0  0  0  0  0
   -3.8133   13.5494  -29.1740 C   0  0  0  0  0  0  0  0  0  0  0  0
   -3.3433   12.8260  -31.9321 N   0  0  0  0  0  0  0  0  0  0  0  0
   -7.2393   10.1081  -29.0336 O   0  0  0  0  0  0  0  0  0  0  0  0
   -7.0135    9.0596  -31.9637 Br  0  0  0  0  0  0  0  0  0  0  0  0
   -5.7552   12.0299  -28.1044 H   0  0  0  0  0  0  0  0  0  0  0  0
   -4.8648   10.8755  -32.8511 H   0  0  0  0  0  0  0  0  0  0  0  0
   -2.9154   13.1364  -28.7004 H   0  0  0  0  0  0  0  0  0  0  0  0
   -3.5083   14.3285  -29.8831 H   0  0  0  0  0  0  0  0  0  0  0  0
   -4.4221   14.0385  -28.4038 H   0  0  0  0  0  0  0  0  0  0  0  0
   -3.1517   12.5403  -32.8700 H   0  0  0  0  0  0  0  0  0  0  0  0
   -2.7893   13.5200  -31.4744 H   0  0  0  0  0  0  0  0  0  0  0  0
   -7.6703    9.4310  -29.5780 H   0  0  0  0  0  0  0  0  0  0  0  0
  1  3  2  0  0  0  0
  1  5  1  0  0  0  0
  2  4  2  0  0  0  0
  2  6  1  0  0  0  0
  3  4  1  0  0  0  0
  3  7  1  0  0  0  0
  4  8  1  0  0  0  0
  5  6  2  0  0  0  0
  5  9  1  0  0  0  0
  6 10  1  0  0  0  0
  1 11  1  0  0  0  0
  2 12  1  0  0  0  0
  7 13  1  0  0  0  0
  7 14  1  0  0  0  0
  7 15  1  0  0  0  0
  8 16  1  0  0  0  0
  8 17  1  0  0  0  0
  9 18  1  0  0  0  0
M  END
> <id>
EN300-183700

> <smiles>
CC=1C=C(O)C(Br)=CC1N

> <MDLNUMBER>
MFCD24623901

> <IUPAC Name>
4-amino-2-bromo-5-methylphenol

> <CAS>
1195190-04-5

> <Purity>
95

> <URL>
https://www.enaminestore.com/catalog/EN300-183700

> <ROCS_ShapeQuery>
_x1604L0AP1_x0771L0AP1

> <ROCS_TanimotoCombo>
0.941 

> <ROCS_ShapeTanimoto>
0.491 

> <ROCS_ColorTanimoto>
0.451 

> <ROCS_RefTversky>
0.425 

> <ROCS_RefColorTversky>
0.513 

> <ROCS_RefTverskyCombo>
0.937 

> <ROCS_FitTversky>
1.463 

> <ROCS_FitColorTversky>
0.789 

> <ROCS_FitTverskyCombo>
2.252 

> <ROCS_ColorScore>
-4.879

> <ROCS_Overlap>
708.876

> <ROCS_Rank>
472                 

$$$$
untitled-dbase-1378_168
  -OEChem-06052310023D

 22 22  0     0  0  0  0  0  0999 V2000
   -4.9892   11.1525  -31.8159 C   0  0  0  0  0  0  0  0  0  0  0  0
   -4.5907   12.4841  -29.8398 C   0  0  0  0  0  0  0  0  0  0  0  0
   -5.9730   10.4359  -31.1347 C   0  0  0  0  0  0  0  0  0  0  0  0
   -6.2658   10.7434  -29.8061 C   0  0  0  0  0  0  0  0  0  0  0  0
   -4.2979   12.1766  -31.1684 C   0  0  0  0  0  0  0  0  0  0  0  0
   -5.5746   11.7675  -29.1585 C   0  0  0  0  0  0  0  0  0  0  0  0
   -6.8604    7.8763  -33.8861 C   0  0  0  0  0  0  0  0  0  0  0  0
   -6.7010    9.3434  -31.8468 C   0  0  0  0  0  0  0  0  0  0  0  0
   -6.0699    8.9569  -33.1887 C   0  0  0  0  0  0  0  0  0  0  0  0
   -6.4048    6.7767  -34.1736 O   0  0  0  0  0  0  0  0  0  0  0  0
   -7.2310   10.0331  -29.1531 O   0  0  0  0  0  0  0  0  0  0  0  0
   -8.1250    8.2600  -34.1890 O   0  0  0  0  0  0  0  0  0  0  0  0
   -3.0838   13.0604  -32.0094 Cl  0  0  0  0  0  0  0  0  0  0  0  0
   -5.9440   12.2147  -27.3535 Br  0  0  0  0  0  0  0  0  0  0  0  0
   -4.7641   10.9099  -32.8524 H   0  0  0  0  0  0  0  0  0  0  0  0
   -4.0491   13.2831  -29.3383 H   0  0  0  0  0  0  0  0  0  0  0  0
   -6.7768    8.4491  -31.2060 H   0  0  0  0  0  0  0  0  0  0  0  0
   -7.7418    9.6593  -32.0257 H   0  0  0  0  0  0  0  0  0  0  0  0
   -6.0534    9.8219  -33.8631 H   0  0  0  0  0  0  0  0  0  0  0  0
   -5.0247    8.6481  -33.0742 H   0  0  0  0  0  0  0  0  0  0  0  0
   -7.6086    9.3639  -29.7439 H   0  0  0  0  0  0  0  0  0  0  0  0
   -8.6659    7.5921  -34.6618 H   0  0  0  0  0  0  0  0  0  0  0  0
  1  3  2  0  0  0  0
  1  5  1  0  0  0  0
  2  5  2  0  0  0  0
  2  6  1  0  0  0  0
  3  4  1  0  0  0  0
  3  8  1  0  0  0  0
  4  6  2  0  0  0  0
  4 11  1  0  0  0  0
  5 13  1  0  0  0  0
  6 14  1  0  0  0  0
  7  9  1  0  0  0  0
  7 10  2  0  0  0  0
  7 12  1  0  0  0  0
  8  9  1  0  0  0  0
  1 15  1  0  0  0  0
  2 16  1  0  0  0  0
  8 17  1  0  0  0  0
  8 18  1  0  0  0  0
  9 19  1  0  0  0  0
  9 20  1  0  0  0  0
 11 21  1  0  0  0  0
 12 22  1  0  0  0  0
M  END
> <id>
EN300-1910487

> <smiles>
OC(=O)CCC=1C=C(Cl)C=C(Br)C1O

> <MDLNUMBER>
MFCD09715631

> <IUPAC Name>
3-(3-bromo-5-chloro-2-hydroxyphenyl)propanoic acid

> <CAS>
938349-76-9

> <URL>
https://www.enaminestore.com/catalog/EN300-1910487

> <ROCS_ShapeQuery>
_x1604L0AP1_x0771L0AP1

> <ROCS_TanimotoCombo>
0.941 

> <ROCS_ShapeTanimoto>
0.553 

> <ROCS_ColorTanimoto>
0.388 

> <ROCS_RefTversky>
0.492 

> <ROCS_RefColorTversky>
0.488 

> <ROCS_RefTverskyCombo>
0.980 

> <ROCS_FitTversky>
1.292 

> <ROCS_FitColorTversky>
0.654 

> <ROCS_FitTverskyCombo>
1.946 

> <ROCS_ColorScore>
-4.671

> <ROCS_Overlap>
825.097

> <ROCS_Rank>
473                 

$$$$
untitled-dbase-1195_274
  -OEChem-06052310023D

 32 33  0     0  0  0  0  0  0999 V2000
   -4.3627   12.1644  -31.2218 C   0  0  0  0  0  0  0  0  0  0  0  0
   -4.6090   12.4972  -29.8898 C   0  0  0  0  0  0  0  0  0  0  0  0
   -5.0814   11.1337  -31.8275 C   0  0  0  0  0  0  0  0  0  0  0  0
   -5.5738   11.7993  -29.1635 C   0  0  0  0  0  0  0  0  0  0  0  0
   -6.2924   10.7685  -29.7691 C   0  0  0  0  0  0  0  0  0  0  0  0
   -6.0462   10.4357  -31.1011 C   0  0  0  0  0  0  0  0  0  0  0  0
   -5.8304   10.6168  -35.6250 C   0  0  0  0  0  0  0  0  0  0  0  0
   -6.5469    9.6355  -34.7419 C   0  0  0  0  0  0  0  0  0  0  0  0
   -5.9938   10.9119  -34.1523 C   0  0  0  0  0  0  0  0  0  0  0  0
   -5.0239   13.2016  -27.3231 C   0  0  0  0  0  0  0  0  0  0  0  0
   -4.7768   10.8137  -33.2742 C   0  0  0  0  0  0  0  0  0  0  0  0
   -6.9694   11.9842  -33.7519 C   0  0  0  0  0  0  0  0  0  0  0  0
   -6.3861   13.2826  -33.9098 N   0  0  0  0  0  0  0  0  0  0  0  0
   -7.2313   10.1006  -29.0377 O   0  0  0  0  0  0  0  0  0  0  0  0
   -5.8029   12.1361  -27.8633 O   0  0  0  0  0  0  0  0  0  0  0  0
   -7.0378    9.0339  -31.9225 Br  0  0  0  0  0  0  0  0  0  0  0  0
   -3.6090   12.7152  -31.7785 H   0  0  0  0  0  0  0  0  0  0  0  0
   -4.0464   13.3021  -29.4245 H   0  0  0  0  0  0  0  0  0  0  0  0
   -4.8498   10.3392  -35.9932 H   0  0  0  0  0  0  0  0  0  0  0  0
   -6.4234   11.1795  -36.3363 H   0  0  0  0  0  0  0  0  0  0  0  0
   -7.6197    9.5411  -34.8619 H   0  0  0  0  0  0  0  0  0  0  0  0
   -6.0461    8.7008  -34.5187 H   0  0  0  0  0  0  0  0  0  0  0  0
   -5.3058   13.3678  -26.2805 H   0  0  0  0  0  0  0  0  0  0  0  0
   -5.1931   14.1101  -27.9067 H   0  0  0  0  0  0  0  0  0  0  0  0
   -3.9668   12.9301  -27.3735 H   0  0  0  0  0  0  0  0  0  0  0  0
   -3.9855   11.4936  -33.6313 H   0  0  0  0  0  0  0  0  0  0  0  0
   -4.3380    9.8037  -33.3317 H   0  0  0  0  0  0  0  0  0  0  0  0
   -7.8571   11.8995  -34.3887 H   0  0  0  0  0  0  0  0  0  0  0  0
   -7.2427   11.8287  -32.7022 H   0  0  0  0  0  0  0  0  0  0  0  0
   -6.1214   13.4212  -34.8659 H   0  0  0  0  0  0  0  0  0  0  0  0
   -7.0492   13.9857  -33.6466 H   0  0  0  0  0  0  0  0  0  0  0  0
   -7.2703   10.4603  -28.1385 H   0  0  0  0  0  0  0  0  0  0  0  0
  1  2  1  0  0  0  0
  1  3  2  0  0  0  0
  2  4  2  0  0  0  0
  3  6  1  0  0  0  0
  3 11  1  0  0  0  0
  4  5  1  0  0  0  0
  4 15  1  0  0  0  0
  5  6  2  0  0  0  0
  5 14  1  0  0  0  0
  6 16  1  0  0  0  0
  7  8  1  0  0  0  0
  7  9  1  0  0  0  0
  8  9  1  0  0  0  0
  9 11  1  0  0  0  0
  9 12  1  0  0  0  0
 10 15  1  0  0  0  0
 12 13  1  0  0  0  0
  1 17  1  0  0  0  0
  2 18  1  0  0  0  0
  7 19  1  0  0  0  0
  7 20  1  0  0  0  0
  8 21  1  0  0  0  0
  8 22  1  0  0  0  0
 10 23  1  0  0  0  0
 10 24  1  0  0  0  0
 10 25  1  0  0  0  0
 11 26  1  0  0  0  0
 11 27  1  0  0  0  0
 12 28  1  0  0  0  0
 12 29  1  0  0  0  0
 13 30  1  0  0  0  0
 13 31  1  0  0  0  0
 14 32  1  0  0  0  0
M  END
> <id>
EN300-1935618

> <smiles>
COC=1C=CC(CC2(CN)CC2)=C(Br)C1O

> <IUPAC Name>
3-{[1-(aminomethyl)cyclopropyl]methyl}-2-bromo-6-methoxyphenol

> <CAS>
2228221-12-1

> <URL>
https://www.enaminestore.com/catalog/EN300-1935618

> <ROCS_ShapeQuery>
_x1604L0AP1_x0771L0AP1

> <ROCS_TanimotoCombo>
0.941 

> <ROCS_ShapeTanimoto>
0.528 

> <ROCS_ColorTanimoto>
0.413 

> <ROCS_RefTversky>
0.497 

> <ROCS_RefColorTversky>
0.510 

> <ROCS_RefTverskyCombo>
1.007 

> <ROCS_FitTversky>
1.136 

> <ROCS_FitColorTversky>
0.684 

> <ROCS_FitTverskyCombo>
1.820 

> <ROCS_ColorScore>
-4.883

> <ROCS_Overlap>
835.992

> <ROCS_Rank>
474                 

$$$$
untitled-dbase-562_128
  -OEChem-06052310023D

 28 29  0     0  0  0  0  0  0999 V2000
   -4.5899   12.4700  -29.8184 C   0  0  0  0  0  0  0  0  0  0  0  0
   -5.5731   11.7737  -29.1156 C   0  0  0  0  0  0  0  0  0  0  0  0
   -5.0529   11.1413  -31.7824 C   0  0  0  0  0  0  0  0  0  0  0  0
   -4.3298   12.1538  -31.1519 C   0  0  0  0  0  0  0  0  0  0  0  0
   -6.2962   10.7611  -29.7461 C   0  0  0  0  0  0  0  0  0  0  0  0
   -6.0361   10.4449  -31.0796 C   0  0  0  0  0  0  0  0  0  0  0  0
   -2.0982   13.4427  -31.1193 C   0  0  0  0  0  0  0  0  0  0  0  0
   -3.1377   14.3864  -31.6378 C   0  0  0  0  0  0  0  0  0  0  0  0
   -3.2794   12.8982  -31.9022 C   0  0  0  0  0  0  0  0  0  0  0  0
   -3.0245   12.4007  -33.3179 C   0  0  0  0  0  0  0  0  0  0  0  0
   -4.0477   12.9232  -34.3190 C   0  0  0  0  0  0  0  0  0  0  0  0
   -3.8123   12.4327  -35.6487 N   0  0  0  0  0  0  0  0  0  0  0  0
   -7.2499   10.0996  -29.0312 O   0  0  0  0  0  0  0  0  0  0  0  0
   -6.9988    9.0752  -31.9683 Br  0  0  0  0  0  0  0  0  0  0  0  0
   -4.0320   13.2572  -29.3182 H   0  0  0  0  0  0  0  0  0  0  0  0
   -5.7703   12.0253  -28.0770 H   0  0  0  0  0  0  0  0  0  0  0  0
   -4.8437   10.9009  -32.8226 H   0  0  0  0  0  0  0  0  0  0  0  0
   -1.1240   13.4563  -31.5943 H   0  0  0  0  0  0  0  0  0  0  0  0
   -2.0600   13.2751  -30.0490 H   0  0  0  0  0  0  0  0  0  0  0  0
   -3.7969   14.8534  -30.9150 H   0  0  0  0  0  0  0  0  0  0  0  0
   -2.8640   15.0346  -32.4623 H   0  0  0  0  0  0  0  0  0  0  0  0
   -3.0589   11.3050  -33.3156 H   0  0  0  0  0  0  0  0  0  0  0  0
   -2.0135   12.6928  -33.6257 H   0  0  0  0  0  0  0  0  0  0  0  0
   -5.0526   12.5983  -34.0315 H   0  0  0  0  0  0  0  0  0  0  0  0
   -4.0417   14.0170  -34.3592 H   0  0  0  0  0  0  0  0  0  0  0  0
   -3.8758   11.4345  -35.6530 H   0  0  0  0  0  0  0  0  0  0  0  0
   -4.4973   12.8124  -36.2707 H   0  0  0  0  0  0  0  0  0  0  0  0
   -7.6745    9.4255  -29.5841 H   0  0  0  0  0  0  0  0  0  0  0  0
  1  2  1  0  0  0  0
  1  4  2  0  0  0  0
  2  5  2  0  0  0  0
  3  4  1  0  0  0  0
  3  6  2  0  0  0  0
  4  9  1  0  0  0  0
  5  6  1  0  0  0  0
  5 13  1  0  0  0  0
  6 14  1  0  0  0  0
  7  8  1  0  0  0  0
  7  9  1  0  0  0  0
  8  9  1  0  0  0  0
  9 10  1  0  0  0  0
 10 11  1  0  0  0  0
 11 12  1  0  0  0  0
  1 15  1  0  0  0  0
  2 16  1  0  0  0  0
  3 17  1  0  0  0  0
  7 18  1  0  0  0  0
  7 19  1  0  0  0  0
  8 20  1  0  0  0  0
  8 21  1  0  0  0  0
 10 22  1  0  0  0  0
 10 23  1  0  0  0  0
 11 24  1  0  0  0  0
 11 25  1  0  0  0  0
 12 26  1  0  0  0  0
 12 27  1  0  0  0  0
 13 28  1  0  0  0  0
M  END
> <id>
EN300-1906341

> <smiles>
NCCC1(CC1)C=2C=CC(O)=C(Br)C2

> <IUPAC Name>
4-[1-(2-aminoethyl)cyclopropyl]-2-bromophenol

> <CAS>
2228330-42-3

> <URL>
https://www.enaminestore.com/catalog/EN300-1906341

> <ROCS_ShapeQuery>
_x1604L0AP1_x0771L0AP1

> <ROCS_TanimotoCombo>
0.941 

> <ROCS_ShapeTanimoto>
0.491 

> <ROCS_ColorTanimoto>
0.451 

> <ROCS_RefTversky>
0.456 

> <ROCS_RefColorTversky>
0.513 

> <ROCS_RefTverskyCombo>
0.969 

> <ROCS_FitTversky>
1.183 

> <ROCS_FitColorTversky>
0.789 

> <ROCS_FitTverskyCombo>
1.972 

> <ROCS_ColorScore>
-4.877

> <ROCS_Overlap>
765.231

> <ROCS_Rank>
475                 

$$$$
untitled-dbase-2294_2
  -OEChem-06052310023D

 22 22  0     0  0  0  0  0  0999 V2000
   -5.1063   11.2403  -31.8162 C   0  0  0  0  0  0  0  0  0  0  0  0
   -4.3392   12.2122  -31.1740 C   0  0  0  0  0  0  0  0  0  0  0  0
   -6.0756   10.5339  -31.1039 C   0  0  0  0  0  0  0  0  0  0  0  0
   -4.5411   12.4777  -29.8196 C   0  0  0  0  0  0  0  0  0  0  0  0
   -6.2776   10.7994  -29.7496 C   0  0  0  0  0  0  0  0  0  0  0  0
   -5.5103   11.7713  -29.1074 C   0  0  0  0  0  0  0  0  0  0  0  0
   -2.9404   14.3685  -30.2055 C   0  0  0  0  0  0  0  0  0  0  0  0
   -3.6913   13.5276  -29.1785 C   0  0  0  0  0  0  0  0  0  0  0  0
   -6.8857    9.4975  -31.8113 C   0  0  0  0  0  0  0  0  0  0  0  0
   -7.2295   10.0959  -29.0700 O   0  0  0  0  0  0  0  0  0  0  0  0
   -6.5642    9.3609  -33.1310 F   0  0  0  0  0  0  0  0  0  0  0  0
   -6.7543    8.2471  -31.2797 F   0  0  0  0  0  0  0  0  0  0  0  0
   -8.2220    9.7702  -31.7846 F   0  0  0  0  0  0  0  0  0  0  0  0
   -5.7902   12.1264  -27.2583 Br  0  0  0  0  0  0  0  0  0  0  0  0
   -4.9424   11.0412  -32.8720 H   0  0  0  0  0  0  0  0  0  0  0  0
   -3.5868   12.7569  -31.7386 H   0  0  0  0  0  0  0  0  0  0  0  0
   -2.3131   13.7399  -30.8466 H   0  0  0  0  0  0  0  0  0  0  0  0
   -2.2931   15.0972  -29.7075 H   0  0  0  0  0  0  0  0  0  0  0  0
   -3.6358   14.9171  -30.8498 H   0  0  0  0  0  0  0  0  0  0  0  0
   -4.3104   14.1878  -28.5523 H   0  0  0  0  0  0  0  0  0  0  0  0
   -2.9679   13.0637  -28.4909 H   0  0  0  0  0  0  0  0  0  0  0  0
   -7.2589   10.3839  -28.1451 H   0  0  0  0  0  0  0  0  0  0  0  0
  1  2  1  0  0  0  0
  1  3  2  0  0  0  0
  2  4  2  0  0  0  0
  3  5  1  0  0  0  0
  3  9  1  0  0  0  0
  4  6  1  0  0  0  0
  4  8  1  0  0  0  0
  5  6  2  0  0  0  0
  5 10  1  0  0  0  0
  6 14  1  0  0  0  0
  7  8  1  0  0  0  0
  9 11  1  0  0  0  0
  9 12  1  0  0  0  0
  9 13  1  0  0  0  0
  1 15  1  0  0  0  0
  2 16  1  0  0  0  0
  7 17  1  0  0  0  0
  7 18  1  0  0  0  0
  7 19  1  0  0  0  0
  8 20  1  0  0  0  0
  8 21  1  0  0  0  0
 10 22  1  0  0  0  0
M  END
> <id>
EN300-39852291

> <smiles>
CCC=1C=CC(=C(O)C1Br)C(F)(F)F

> <IUPAC Name>
2-bromo-3-ethyl-6-(trifluoromethyl)phenol

> <CAS>
2707898-91-5

> <Purity>
95

> <URL>
https://www.enaminestore.com/catalog/EN300-39852291

> <ROCS_ShapeQuery>
_x1604L0AP1_x0771L0AP1

> <ROCS_TanimotoCombo>
0.941 

> <ROCS_ShapeTanimoto>
0.582 

> <ROCS_ColorTanimoto>
0.359 

> <ROCS_RefTversky>
0.513 

> <ROCS_RefColorTversky>
0.410 

> <ROCS_RefTverskyCombo>
0.924 

> <ROCS_FitTversky>
1.299 

> <ROCS_FitColorTversky>
0.742 

> <ROCS_FitTverskyCombo>
2.041 

> <ROCS_ColorScore>
-3.885

> <ROCS_Overlap>
861.395

> <ROCS_Rank>
476                 

$$$$
untitled-dbase-847_184
  -OEChem-06052310023D

 25 25  0     0  0  0  0  0  0999 V2000
   -4.3659   12.1662  -31.2252 C   0  0  0  0  0  0  0  0  0  0  0  0
   -4.6068   12.4955  -29.8914 C   0  0  0  0  0  0  0  0  0  0  0  0
   -5.0885   11.1384  -31.8313 C   0  0  0  0  0  0  0  0  0  0  0  0
   -5.5702   11.7971  -29.1636 C   0  0  0  0  0  0  0  0  0  0  0  0
   -6.2928   10.7693  -29.7697 C   0  0  0  0  0  0  0  0  0  0  0  0
   -6.0519   10.4400  -31.1036 C   0  0  0  0  0  0  0  0  0  0  0  0
   -5.7623   10.6211  -35.5960 C   0  0  0  0  0  0  0  0  0  0  0  0
   -5.0114   13.1931  -27.3212 C   0  0  0  0  0  0  0  0  0  0  0  0
   -4.7932   10.8258  -33.2632 C   0  0  0  0  0  0  0  0  0  0  0  0
   -6.0369   10.9432  -34.1468 C   0  0  0  0  0  0  0  0  0  0  0  0
   -6.2767    9.6970  -36.2167 O   0  0  0  0  0  0  0  0  0  0  0  0
   -7.2302   10.1009  -29.0369 O   0  0  0  0  0  0  0  0  0  0  0  0
   -5.7941   12.1305  -27.8617 O   0  0  0  0  0  0  0  0  0  0  0  0
   -7.0489    9.0423  -31.9254 Br  0  0  0  0  0  0  0  0  0  0  0  0
   -3.6133   12.7172  -31.7830 H   0  0  0  0  0  0  0  0  0  0  0  0
   -4.0412   13.2980  -29.4258 H   0  0  0  0  0  0  0  0  0  0  0  0
   -5.0402   11.2924  -36.0919 H   0  0  0  0  0  0  0  0  0  0  0  0
   -5.2892   13.3567  -26.2771 H   0  0  0  0  0  0  0  0  0  0  0  0
   -5.1811   14.1035  -27.9015 H   0  0  0  0  0  0  0  0  0  0  0  0
   -3.9549   12.9200  -27.3762 H   0  0  0  0  0  0  0  0  0  0  0  0
   -4.0037   11.4949  -33.6412 H   0  0  0  0  0  0  0  0  0  0  0  0
   -4.3701    9.8122  -33.3490 H   0  0  0  0  0  0  0  0  0  0  0  0
   -6.4419   11.9607  -34.1072 H   0  0  0  0  0  0  0  0  0  0  0  0
   -6.8199   10.2588  -33.8010 H   0  0  0  0  0  0  0  0  0  0  0  0
   -7.2653   10.4580  -28.1365 H   0  0  0  0  0  0  0  0  0  0  0  0
  1  2  1  0  0  0  0
  1  3  2  0  0  0  0
  2  4  2  0  0  0  0
  3  6  1  0  0  0  0
  3  9  1  0  0  0  0
  4  5  1  0  0  0  0
  4 13  1  0  0  0  0
  5  6  2  0  0  0  0
  5 12  1  0  0  0  0
  6 14  1  0  0  0  0
  7 10  1  0  0  0  0
  7 11  2  0  0  0  0
  8 13  1  0  0  0  0
  9 10  1  0  0  0  0
  1 15  1  0  0  0  0
  2 16  1  0  0  0  0
  7 17  1  0  0  0  0
  8 18  1  0  0  0  0
  8 19  1  0  0  0  0
  8 20  1  0  0  0  0
  9 21  1  0  0  0  0
  9 22  1  0  0  0  0
 10 23  1  0  0  0  0
 10 24  1  0  0  0  0
 12 25  1  0  0  0  0
M  END
> <id>
EN300-1935981

> <smiles>
COC=1C=CC(CCC=O)=C(Br)C1O

> <IUPAC Name>
3-(2-bromo-3-hydroxy-4-methoxyphenyl)propanal

> <CAS>
2229076-50-8

> <URL>
https://www.enaminestore.com/catalog/EN300-1935981

> <ROCS_ShapeQuery>
_x1604L0AP1_x0771L0AP1

> <ROCS_TanimotoCombo>
0.941 

> <ROCS_ShapeTanimoto>
0.490 

> <ROCS_ColorTanimoto>
0.451 

> <ROCS_RefTversky>
0.455 

> <ROCS_RefColorTversky>
0.513 

> <ROCS_RefTverskyCombo>
0.968 

> <ROCS_FitTversky>
1.183 

> <ROCS_FitColorTversky>
0.789 

> <ROCS_FitTverskyCombo>
1.972 

> <ROCS_ColorScore>
-4.882

> <ROCS_Overlap>
763.665

> <ROCS_Rank>
477                 

$$$$
untitled-dbase-1700_44
  -OEChem-06052310023D

 31 32  0     0  0  0  0  0  0999 V2000
   -4.3174   12.2298  -31.1432 C   0  0  0  0  0  0  0  0  0  0  0  0
   -5.0756   11.2762  -31.8223 C   0  0  0  0  0  0  0  0  0  0  0  0
   -4.5342   12.4541  -29.7837 C   0  0  0  0  0  0  0  0  0  0  0  0
   -6.0507   10.5469  -31.1419 C   0  0  0  0  0  0  0  0  0  0  0  0
   -6.2675   10.7712  -29.7824 C   0  0  0  0  0  0  0  0  0  0  0  0
   -5.5092   11.7248  -29.1033 C   0  0  0  0  0  0  0  0  0  0  0  0
   -5.1486    8.6540  -33.5545 C   0  0  0  0  0  0  0  0  0  0  0  0
   -7.5593    8.8496  -34.2368 C   0  0  0  0  0  0  0  0  0  0  0  0
   -5.3618    7.1459  -33.4150 C   0  0  0  0  0  0  0  0  0  0  0  0
   -7.6779    7.3339  -34.0699 C   0  0  0  0  0  0  0  0  0  0  0  0
   -6.4469    9.4518  -33.3669 C   0  0  0  0  0  0  0  0  0  0  0  0
   -6.8578    9.5241  -31.8940 C   0  0  0  0  0  0  0  0  0  0  0  0
   -6.4039    6.6569  -34.3199 N   0  0  0  0  0  0  0  0  0  0  0  0
   -7.2263   10.0508  -29.1309 O   0  0  0  0  0  0  0  0  0  0  0  0
   -5.7728   12.0584  -27.2557 Br  0  0  0  0  0  0  0  0  0  0  0  0
   -3.5578   12.7974  -31.6728 H   0  0  0  0  0  0  0  0  0  0  0  0
   -4.8985   11.1061  -32.8810 H   0  0  0  0  0  0  0  0  0  0  0  0
   -3.9331   13.2011  -29.2712 H   0  0  0  0  0  0  0  0  0  0  0  0
   -4.3974    8.9837  -32.8160 H   0  0  0  0  0  0  0  0  0  0  0  0
   -4.7175    8.8702  -34.5455 H   0  0  0  0  0  0  0  0  0  0  0  0
   -7.3736    9.0858  -35.2972 H   0  0  0  0  0  0  0  0  0  0  0  0
   -8.5259    9.3184  -33.9839 H   0  0  0  0  0  0  0  0  0  0  0  0
   -4.4215    6.6123  -33.6000 H   0  0  0  0  0  0  0  0  0  0  0  0
   -5.6578    6.9218  -32.3842 H   0  0  0  0  0  0  0  0  0  0  0  0
   -7.9999    7.1118  -33.0467 H   0  0  0  0  0  0  0  0  0  0  0  0
   -8.4512    6.9395  -34.7405 H   0  0  0  0  0  0  0  0  0  0  0  0
   -6.2644   10.4847  -33.7151 H   0  0  0  0  0  0  0  0  0  0  0  0
   -6.7352    8.5390  -31.4318 H   0  0  0  0  0  0  0  0  0  0  0  0
   -7.9238    9.7651  -31.8236 H   0  0  0  0  0  0  0  0  0  0  0  0
   -6.1176    6.8248  -35.2846 H   0  0  0  0  0  0  0  0  0  0  0  0
   -7.2632   10.3129  -28.1985 H   0  0  0  0  0  0  0  0  0  0  0  0
  1  2  1  0  0  0  0
  1  3  2  0  0  0  0
  2  4  2  0  0  0  0
  3  6  1  0  0  0  0
  4  5  1  0  0  0  0
  4 12  1  0  0  0  0
  5  6  2  0  0  0  0
  5 14  1  0  0  0  0
  6 15  1  0  0  0  0
  7  9  1  0  0  0  0
  7 11  1  0  0  0  0
  8 10  1  0  0  0  0
  8 11  1  0  0  0  0
  9 13  1  0  0  0  0
 10 13  1  0  0  0  0
 11 12  1  0  0  0  0
  1 16  1  0  0  0  0
  2 17  1  0  0  0  0
  3 18  1  0  0  0  0
  7 19  1  0  0  0  0
  7 20  1  0  0  0  0
  8 21  1  0  0  0  0
  8 22  1  0  0  0  0
  9 23  1  0  0  0  0
  9 24  1  0  0  0  0
 10 25  1  0  0  0  0
 10 26  1  0  0  0  0
 11 27  1  0  0  0  0
 12 28  1  0  0  0  0
 12 29  1  0  0  0  0
 13 30  1  0  0  0  0
 14 31  1  0  0  0  0
M  END
> <id>
EN300-1923133

> <smiles>
OC=1C(Br)=CC=CC1CC2CCNCC2

> <IUPAC Name>
2-bromo-6-[(piperidin-4-yl)methyl]phenol

> <CAS>
1785507-23-4

> <URL>
https://www.enaminestore.com/catalog/EN300-1923133

> <ROCS_ShapeQuery>
_x1604L0AP1_x0771L0AP1

> <ROCS_TanimotoCombo>
0.941 

> <ROCS_ShapeTanimoto>
0.537 

> <ROCS_ColorTanimoto>
0.404 

> <ROCS_RefTversky>
0.493 

> <ROCS_RefColorTversky>
0.502 

> <ROCS_RefTverskyCombo>
0.995 

> <ROCS_FitTversky>
1.200 

> <ROCS_FitColorTversky>
0.673 

> <ROCS_FitTverskyCombo>
1.873 

> <ROCS_ColorScore>
-4.802

> <ROCS_Overlap>
828.398

> <ROCS_Rank>
478                 

$$$$
untitled-dbase-1128_5
  -OEChem-06052310023D

 22 23  0     0  0  0  0  0  0999 V2000
   -7.1736   10.5228  -34.5413 C   0  0  0  0  0  0  0  0  0  0  0  0
   -6.7454   11.0964  -33.3442 C   0  0  0  0  0  0  0  0  0  0  0  0
   -7.0832    9.1430  -34.7251 C   0  0  0  0  0  0  0  0  0  0  0  0
   -5.4086   11.6982  -29.0840 C   0  0  0  0  0  0  0  0  0  0  0  0
   -6.2267   10.2904  -32.3309 C   0  0  0  0  0  0  0  0  0  0  0  0
   -6.2063   10.7909  -29.8066 C   0  0  0  0  0  0  0  0  0  0  0  0
   -6.5645    8.3369  -33.7118 C   0  0  0  0  0  0  0  0  0  0  0  0
   -6.1362    8.9106  -32.5147 C   0  0  0  0  0  0  0  0  0  0  0  0
   -5.7977   10.9367  -31.1097 C   0  0  0  0  0  0  0  0  0  0  0  0
   -4.5574   12.3706  -29.8634 N   0  0  0  0  0  0  0  0  0  0  0  0
   -4.8179   11.8853  -31.0892 N   0  0  0  0  0  0  0  0  0  0  0  0
   -7.1567    9.9677  -29.3215 N   0  0  0  0  0  0  0  0  0  0  0  0
   -6.4921    6.9929  -33.9304 O   0  0  0  0  0  0  0  0  0  0  0  0
   -5.4323    7.7797  -31.1486 Br  0  0  0  0  0  0  0  0  0  0  0  0
   -7.5769   11.1501  -35.3306 H   0  0  0  0  0  0  0  0  0  0  0  0
   -6.8239   12.1741  -33.2191 H   0  0  0  0  0  0  0  0  0  0  0  0
   -7.4176    8.7035  -35.6607 H   0  0  0  0  0  0  0  0  0  0  0  0
   -5.4094   11.9003  -28.0219 H   0  0  0  0  0  0  0  0  0  0  0  0
   -4.2854   12.2501  -31.8696 H   0  0  0  0  0  0  0  0  0  0  0  0
   -7.3612    9.8969  -28.3124 H   0  0  0  0  0  0  0  0  0  0  0  0
   -7.6631    9.2978  -29.9215 H   0  0  0  0  0  0  0  0  0  0  0  0
   -6.1161    6.5484  -33.1550 H   0  0  0  0  0  0  0  0  0  0  0  0
  1  2  1  0  0  0  0
  1  3  2  0  0  0  0
  2  5  2  0  0  0  0
  3  7  1  0  0  0  0
  4  6  1  0  0  0  0
  4 10  2  0  0  0  0
  5  8  1  0  0  0  0
  5  9  1  0  0  0  0
  6  9  2  0  0  0  0
  6 12  1  0  0  0  0
  7  8  2  0  0  0  0
  7 13  1  0  0  0  0
  8 14  1  0  0  0  0
  9 11  1  0  0  0  0
 10 11  1  0  0  0  0
  1 15  1  0  0  0  0
  2 16  1  0  0  0  0
  3 17  1  0  0  0  0
  4 18  1  0  0  0  0
 11 19  1  0  0  0  0
 12 20  1  0  0  0  0
 12 21  1  0  0  0  0
 13 22  1  0  0  0  0
M  END
> <id>
EN300-1904646

> <smiles>
NC=1C=NNC1C=2C=CC=C(O)C2Br

> <IUPAC Name>
3-(4-amino-1H-pyrazol-5-yl)-2-bromophenol

> <URL>
https://www.enaminestore.com/catalog/EN300-1904646

> <ROCS_ShapeQuery>
_x1604L0AP1_x0771L0AP1

> <ROCS_TanimotoCombo>
0.941 

> <ROCS_ShapeTanimoto>
0.581 

> <ROCS_ColorTanimoto>
0.360 

> <ROCS_RefTversky>
0.517 

> <ROCS_RefColorTversky>
0.512 

> <ROCS_RefTverskyCombo>
1.029 

> <ROCS_FitTversky>
1.270 

> <ROCS_FitColorTversky>
0.548 

> <ROCS_FitTverskyCombo>
1.818 

> <ROCS_ColorScore>
-4.950

> <ROCS_Overlap>
868.146

> <ROCS_Rank>
479                 

$$$$
untitled-dbase-2174_592
  -OEChem-06052310023D

 35 35  0     1  0  0  0  0  0999 V2000
   -7.1387   10.0970  -34.8299 C   0  0  0  0  0  0  0  0  0  0  0  0
   -6.8427   10.5583  -33.5473 C   0  0  0  0  0  0  0  0  0  0  0  0
   -6.9721    8.7475  -35.1415 C   0  0  0  0  0  0  0  0  0  0  0  0
   -6.3801    9.6703  -32.5762 C   0  0  0  0  0  0  0  0  0  0  0  0
   -6.5095    7.8595  -34.1704 C   0  0  0  0  0  0  0  0  0  0  0  0
   -6.2135    8.3209  -32.8877 C   0  0  0  0  0  0  0  0  0  0  0  0
   -7.2608   10.1879  -30.2696 C   0  0  0  0  0  0  0  0  0  0  0  0
   -4.7444   12.1274  -30.3172 C   0  0  0  0  0  0  0  0  0  0  0  0
   -2.4108   12.5172  -31.4341 C   0  0  0  0  0  0  0  0  0  0  0  0
   -3.0745   14.8979  -31.8826 C   0  0  0  0  0  0  0  0  0  0  0  0
   -2.4750   14.1848  -29.5501 C   0  0  0  0  0  0  0  0  0  0  0  0
   -6.0744   10.2191  -31.2063 C   0  0  2  0  0  0  0  0  0  0  0  0
   -3.1099   13.7539  -30.8715 C   0  0  0  0  0  0  0  0  0  0  0  0
   -5.5996   11.5829  -31.2519 N   0  0  0  0  0  0  0  0  0  0  0  0
   -7.1578   10.1112  -29.0477 O   0  0  0  0  0  0  0  0  0  0  0  0
   -4.2814   11.5426  -29.3433 O   0  0  0  0  0  0  0  0  0  0  0  0
   -6.3585    6.5481  -34.5116 O   0  0  0  0  0  0  0  0  0  0  0  0
   -4.4808   13.4321  -30.6337 O   0  0  0  0  0  0  0  0  0  0  0  0
   -5.5834    7.0999  -31.5711 Br  0  0  0  0  0  0  0  0  0  0  0  0
   -7.4984   10.7885  -35.5862 H   0  0  0  0  0  0  0  0  0  0  0  0
   -6.9761   11.6120  -33.3155 H   0  0  0  0  0  0  0  0  0  0  0  0
   -7.2043    8.3958  -36.1432 H   0  0  0  0  0  0  0  0  0  0  0  0
   -8.2553   10.3311  -30.7278 H   0  0  0  0  0  0  0  0  0  0  0  0
   -2.4340   11.6938  -30.7114 H   0  0  0  0  0  0  0  0  0  0  0  0
   -2.8787   12.1772  -32.3638 H   0  0  0  0  0  0  0  0  0  0  0  0
   -1.3530   12.7231  -31.6342 H   0  0  0  0  0  0  0  0  0  0  0  0
   -3.5750   15.7873  -31.4830 H   0  0  0  0  0  0  0  0  0  0  0  0
   -3.6122   14.6263  -32.7982 H   0  0  0  0  0  0  0  0  0  0  0  0
   -2.0481   15.1686  -32.1505 H   0  0  0  0  0  0  0  0  0  0  0  0
   -2.9763   15.0719  -29.1463 H   0  0  0  0  0  0  0  0  0  0  0  0
   -2.5245   13.3886  -28.8003 H   0  0  0  0  0  0  0  0  0  0  0  0
   -1.4246   14.4622  -29.6947 H   0  0  0  0  0  0  0  0  0  0  0  0
   -5.2756    9.6461  -30.7217 H   0  0  0  0  0  0  0  0  0  0  0  0
   -5.9134   12.1739  -32.0155 H   0  0  0  0  0  0  0  0  0  0  0  0
   -6.0328    6.0408  -33.7522 H   0  0  0  0  0  0  0  0  0  0  0  0
  1  2  1  0  0  0  0
  1  3  2  0  0  0  0
  2  4  2  0  0  0  0
  3  5  1  0  0  0  0
  4  6  1  0  0  0  0
  4 12  1  0  0  0  0
  5  6  2  0  0  0  0
  5 17  1  0  0  0  0
  6 19  1  0  0  0  0
  7 12  1  0  0  0  0
  7 15  2  0  0  0  0
  8 14  1  0  0  0  0
  8 16  2  0  0  0  0
  8 18  1  0  0  0  0
  9 13  1  0  0  0  0
 10 13  1  0  0  0  0
 11 13  1  0  0  0  0
 12 14  1  0  0  0  0
 13 18  1  0  0  0  0
  1 20  1  0  0  0  0
  2 21  1  0  0  0  0
  3 22  1  0  0  0  0
  7 23  1  0  0  0  0
  9 24  1  0  0  0  0
  9 25  1  0  0  0  0
  9 26  1  0  0  0  0
 10 27  1  0  0  0  0
 10 28  1  0  0  0  0
 10 29  1  0  0  0  0
 11 30  1  0  0  0  0
 11 31  1  0  0  0  0
 11 32  1  0  0  0  0
 12 33  1  0  0  0  0
 14 34  1  0  0  0  0
 17 35  1  0  0  0  0
M  END
> <id>
EN300-1874430

> <smiles>
CC(C)(C)OC(=O)NC(C=O)C=1C=CC=C(O)C1Br

> <IUPAC Name>
tert-butyl N-[1-(2-bromo-3-hydroxyphenyl)-2-oxoethyl]carbamate

> <CAS>
2229539-24-4

> <URL>
https://www.enaminestore.com/catalog/EN300-1874430

> <ROCS_ShapeQuery>
_x1604L0AP1_x0771L0AP1

> <ROCS_TanimotoCombo>
0.941 

> <ROCS_ShapeTanimoto>
0.652 

> <ROCS_ColorTanimoto>
0.288 

> <ROCS_RefTversky>
0.597 

> <ROCS_RefColorTversky>
0.412 

> <ROCS_RefTverskyCombo>
1.008 

> <ROCS_FitTversky>
1.168 

> <ROCS_FitColorTversky>
0.490 

> <ROCS_FitTverskyCombo>
1.658 

> <ROCS_ColorScore>
-3.959

> <ROCS_Overlap>
1007.549

> <ROCS_Rank>
480                 

$$$$
untitled-dbase-1984_4
  -OEChem-06052310023D

 19 19  0     0  0  0  0  0  0999 V2000
   -4.5795   12.4684  -29.8615 C   0  0  0  0  0  0  0  0  0  0  0  0
   -5.0626   11.1232  -31.8092 C   0  0  0  0  0  0  0  0  0  0  0  0
   -4.3320   12.1399  -31.1943 C   0  0  0  0  0  0  0  0  0  0  0  0
   -5.5575   11.7801  -29.1435 C   0  0  0  0  0  0  0  0  0  0  0  0
   -6.2881   10.7634  -29.7584 C   0  0  0  0  0  0  0  0  0  0  0  0
   -6.0407   10.4349  -31.0913 C   0  0  0  0  0  0  0  0  0  0  0  0
   -3.3141   12.8598  -31.9434 C   0  0  0  0  0  0  0  0  0  0  0  0
   -4.9958   13.1635  -27.2924 C   0  0  0  0  0  0  0  0  0  0  0  0
   -2.6373   13.7699  -31.4571 O   0  0  0  0  0  0  0  0  0  0  0  0
   -7.2412   10.1023  -29.0398 O   0  0  0  0  0  0  0  0  0  0  0  0
   -5.7876   12.1125  -27.8425 O   0  0  0  0  0  0  0  0  0  0  0  0
   -7.0154    9.0614  -31.9617 Br  0  0  0  0  0  0  0  0  0  0  0  0
   -4.0126   13.2611  -29.3785 H   0  0  0  0  0  0  0  0  0  0  0  0
   -4.8647   10.8736  -32.8495 H   0  0  0  0  0  0  0  0  0  0  0  0
   -3.1527   12.5626  -33.0025 H   0  0  0  0  0  0  0  0  0  0  0  0
   -5.2800   13.3275  -26.2501 H   0  0  0  0  0  0  0  0  0  0  0  0
   -5.1493   14.0777  -27.8713 H   0  0  0  0  0  0  0  0  0  0  0  0
   -3.9425   12.8772  -27.3398 H   0  0  0  0  0  0  0  0  0  0  0  0
   -7.2822   10.4548  -28.1378 H   0  0  0  0  0  0  0  0  0  0  0  0
  1  3  1  0  0  0  0
  1  4  2  0  0  0  0
  2  3  2  0  0  0  0
  2  6  1  0  0  0  0
  3  7  1  0  0  0  0
  4  5  1  0  0  0  0
  4 11  1  0  0  0  0
  5  6  2  0  0  0  0
  5 10  1  0  0  0  0
  6 12  1  0  0  0  0
  7  9  2  0  0  0  0
  8 11  1  0  0  0  0
  1 13  1  0  0  0  0
  2 14  1  0  0  0  0
  7 15  1  0  0  0  0
  8 16  1  0  0  0  0
  8 17  1  0  0  0  0
  8 18  1  0  0  0  0
 10 19  1  0  0  0  0
M  END
> <id>
EN300-18184

> <smiles>
COC=1C=C(C=O)C=C(Br)C1O

> <MDLNUMBER>
MFCD00006940

> <IUPAC Name>
3-bromo-4-hydroxy-5-methoxybenzaldehyde

> <CAS>
2973-76-4

> <Purity>
95

> <URL>
https://www.enaminestore.com/catalog/EN300-18184

> <MP>
164-166

> <ROCS_ShapeQuery>
_x1604L0AP1_x0771L0AP1

> <ROCS_TanimotoCombo>
0.941 

> <ROCS_ShapeTanimoto>
0.489 

> <ROCS_ColorTanimoto>
0.451 

> <ROCS_RefTversky>
0.441 

> <ROCS_RefColorTversky>
0.513 

> <ROCS_RefTverskyCombo>
0.954 

> <ROCS_FitTversky>
1.289 

> <ROCS_FitColorTversky>
0.789 

> <ROCS_FitTverskyCombo>
2.078 

> <ROCS_ColorScore>
-4.882

> <ROCS_Overlap>
738.016

> <ROCS_Rank>
481                 

$$$$
untitled-dbase-8_3
  -OEChem-06052310023D

 19 19  0     0  0  0  0  0  0999 V2000
   -4.5818   12.4753  -29.8610 C   0  0  0  0  0  0  0  0  0  0  0  0
   -5.0656   11.1295  -31.8083 C   0  0  0  0  0  0  0  0  0  0  0  0
   -5.5578   11.7855  -29.1418 C   0  0  0  0  0  0  0  0  0  0  0  0
   -4.3357   12.1473  -31.1943 C   0  0  0  0  0  0  0  0  0  0  0  0
   -6.2877   10.7677  -29.7558 C   0  0  0  0  0  0  0  0  0  0  0  0
   -6.0416   10.4396  -31.0890 C   0  0  0  0  0  0  0  0  0  0  0  0
   -5.7963   12.1471  -27.7510 C   0  0  0  0  0  0  0  0  0  0  0  0
   -2.6755   13.8500  -31.2073 C   0  0  0  0  0  0  0  0  0  0  0  0
   -6.6397   11.5877  -27.0469 O   0  0  0  0  0  0  0  0  0  0  0  0
   -7.2411   10.1011  -29.0416 O   0  0  0  0  0  0  0  0  0  0  0  0
   -3.3837   12.8209  -31.8963 O   0  0  0  0  0  0  0  0  0  0  0  0
   -7.0106    9.0615  -31.9586 Br  0  0  0  0  0  0  0  0  0  0  0  0
   -4.0098   13.2697  -29.3872 H   0  0  0  0  0  0  0  0  0  0  0  0
   -4.8645   10.8828  -32.8482 H   0  0  0  0  0  0  0  0  0  0  0  0
   -5.1796   12.9669  -27.3251 H   0  0  0  0  0  0  0  0  0  0  0  0
   -1.9466   14.3061  -31.8816 H   0  0  0  0  0  0  0  0  0  0  0  0
   -2.1675   13.4248  -30.3381 H   0  0  0  0  0  0  0  0  0  0  0  0
   -3.3868   14.6100  -30.8753 H   0  0  0  0  0  0  0  0  0  0  0  0
   -7.2851   10.4507  -28.1388 H   0  0  0  0  0  0  0  0  0  0  0  0
  1  3  2  0  0  0  0
  1  4  1  0  0  0  0
  2  4  2  0  0  0  0
  2  6  1  0  0  0  0
  3  5  1  0  0  0  0
  3  7  1  0  0  0  0
  4 11  1  0  0  0  0
  5  6  2  0  0  0  0
  5 10  1  0  0  0  0
  6 12  1  0  0  0  0
  7  9  2  0  0  0  0
  8 11  1  0  0  0  0
  1 13  1  0  0  0  0
  2 14  1  0  0  0  0
  7 15  1  0  0  0  0
  8 16  1  0  0  0  0
  8 17  1  0  0  0  0
  8 18  1  0  0  0  0
 10 19  1  0  0  0  0
M  END
> <id>
EN300-68557

> <smiles>
COC=1C=C(Br)C(O)=C(C=O)C1

> <MDLNUMBER>
MFCD00091938

> <IUPAC Name>
3-bromo-2-hydroxy-5-methoxybenzaldehyde

> <CAS>
50343-02-7

> <Purity>
95

> <URL>
https://www.enaminestore.com/catalog/EN300-68557

> <MP>
108-109

> <ROCS_ShapeQuery>
_x1604L0AP1_x0771L0AP1

> <ROCS_TanimotoCombo>
0.941 

> <ROCS_ShapeTanimoto>
0.489 

> <ROCS_ColorTanimoto>
0.451 

> <ROCS_RefTversky>
0.441 

> <ROCS_RefColorTversky>
0.513 

> <ROCS_RefTverskyCombo>
0.954 

> <ROCS_FitTversky>
1.288 

> <ROCS_FitColorTversky>
0.790 

> <ROCS_FitTverskyCombo>
2.078 

> <ROCS_ColorScore>
-4.883

> <ROCS_Overlap>
737.867

> <ROCS_Rank>
482                 

$$$$
untitled-dbase-1275_1049
  -OEChem-06052310023D

 27 27  0     0  0  0  0  0  0999 V2000
   -6.0261   10.4794  -32.6493 C   0  0  0  0  0  0  0  0  0  0  0  0
   -7.2553    8.4077  -32.4653 C   0  0  0  0  0  0  0  0  0  0  0  0
   -6.5286    9.3170  -33.2339 C   0  0  0  0  0  0  0  0  0  0  0  0
   -6.2501   10.7326  -31.2960 C   0  0  0  0  0  0  0  0  0  0  0  0
   -6.9768    9.8233  -30.5274 C   0  0  0  0  0  0  0  0  0  0  0  0
   -7.4794    8.6608  -31.1120 C   0  0  0  0  0  0  0  0  0  0  0  0
   -3.8627   12.8811  -29.6716 C   0  0  0  0  0  0  0  0  0  0  0  0
   -6.2896    9.0473  -34.6811 C   0  0  0  0  0  0  0  0  0  0  0  0
   -4.8333   11.7194  -29.6606 C   0  0  0  0  0  0  0  0  0  0  0  0
   -6.9091    7.7324  -35.1591 C   0  0  0  0  0  0  0  0  0  0  0  0
   -7.1863   10.0890  -29.2056 O   0  0  0  0  0  0  0  0  0  0  0  0
   -6.3806    6.6518  -34.4008 O   0  0  0  0  0  0  0  0  0  0  0  0
   -5.7534   11.8726  -30.7395 O   0  0  0  0  0  0  0  0  0  0  0  0
   -8.4715    7.4018  -30.0998 Br  0  0  0  0  0  0  0  0  0  0  0  0
   -5.4595   11.1900  -33.2465 H   0  0  0  0  0  0  0  0  0  0  0  0
   -7.6435    7.5042  -32.9304 H   0  0  0  0  0  0  0  0  0  0  0  0
   -3.2998   12.9104  -30.6087 H   0  0  0  0  0  0  0  0  0  0  0  0
   -4.3950   13.8301  -29.5490 H   0  0  0  0  0  0  0  0  0  0  0  0
   -3.1570   12.8021  -28.8380 H   0  0  0  0  0  0  0  0  0  0  0  0
   -6.6856    9.8747  -35.2903 H   0  0  0  0  0  0  0  0  0  0  0  0
   -5.2067    9.0148  -34.8766 H   0  0  0  0  0  0  0  0  0  0  0  0
   -5.3930   11.6958  -28.7208 H   0  0  0  0  0  0  0  0  0  0  0  0
   -4.2999   10.7722  -29.7839 H   0  0  0  0  0  0  0  0  0  0  0  0
   -7.9932    7.7495  -35.0073 H   0  0  0  0  0  0  0  0  0  0  0  0
   -6.7049    7.5525  -36.2198 H   0  0  0  0  0  0  0  0  0  0  0  0
   -7.7025    9.3757  -28.8002 H   0  0  0  0  0  0  0  0  0  0  0  0
   -5.4207    6.6522  -34.5452 H   0  0  0  0  0  0  0  0  0  0  0  0
  1  3  1  0  0  0  0
  1  4  2  0  0  0  0
  2  3  2  0  0  0  0
  2  6  1  0  0  0  0
  3  8  1  0  0  0  0
  4  5  1  0  0  0  0
  4 13  1  0  0  0  0
  5  6  2  0  0  0  0
  5 11  1  0  0  0  0
  6 14  1  0  0  0  0
  7  9  1  0  0  0  0
  8 10  1  0  0  0  0
  9 13  1  0  0  0  0
 10 12  1  0  0  0  0
  1 15  1  0  0  0  0
  2 16  1  0  0  0  0
  7 17  1  0  0  0  0
  7 18  1  0  0  0  0
  7 19  1  0  0  0  0
  8 20  1  0  0  0  0
  8 21  1  0  0  0  0
  9 22  1  0  0  0  0
  9 23  1  0  0  0  0
 10 24  1  0  0  0  0
 10 25  1  0  0  0  0
 11 26  1  0  0  0  0
 12 27  1  0  0  0  0
M  END
> <id>
EN300-1920248

> <smiles>
CCOC=1C=C(CCO)C=C(Br)C1O

> <IUPAC Name>
2-bromo-6-ethoxy-4-(2-hydroxyethyl)phenol

> <CAS>
2229485-49-6

> <URL>
https://www.enaminestore.com/catalog/EN300-1920248

> <ROCS_ShapeQuery>
_x1604L0AP1_x0771L0AP1

> <ROCS_TanimotoCombo>
0.940 

> <ROCS_ShapeTanimoto>
0.519 

> <ROCS_ColorTanimoto>
0.421 

> <ROCS_RefTversky>
0.472 

> <ROCS_RefColorTversky>
0.518 

> <ROCS_RefTverskyCombo>
0.990 

> <ROCS_FitTversky>
1.235 

> <ROCS_FitColorTversky>
0.694 

> <ROCS_FitTverskyCombo>
1.929 

> <ROCS_ColorScore>
-4.951

> <ROCS_Overlap>
792.198

> <ROCS_Rank>
483                 

$$$$
untitled-dbase-684_1507
  -OEChem-06052310023D

 31 31  0     0  0  0  0  0  0999 V2000
   -5.1752   11.3446  -31.8052 C   0  0  0  0  0  0  0  0  0  0  0  0
   -4.3926   12.2993  -29.7285 C   0  0  0  0  0  0  0  0  0  0  0  0
   -4.2879   12.1689  -31.1133 C   0  0  0  0  0  0  0  0  0  0  0  0
   -6.1673   10.6507  -31.1123 C   0  0  0  0  0  0  0  0  0  0  0  0
   -6.2720   10.7811  -29.7275 C   0  0  0  0  0  0  0  0  0  0  0  0
   -5.3846   11.6054  -29.0355 C   0  0  0  0  0  0  0  0  0  0  0  0
   -2.8503   14.2439  -31.1724 C   0  0  0  0  0  0  0  0  0  0  0  0
   -6.8152   10.1532  -34.1674 C   0  0  0  0  0  0  0  0  0  0  0  0
   -1.8592   12.1766  -32.0072 C   0  0  0  0  0  0  0  0  0  0  0  0
   -3.6936   13.2618  -33.2967 C   0  0  0  0  0  0  0  0  0  0  0  0
   -6.5302    9.2413  -32.9931 C   0  0  0  0  0  0  0  0  0  0  0  0
   -3.1972   12.9305  -31.8750 C   0  0  0  0  0  0  0  0  0  0  0  0
   -3.6374   14.9050  -30.5007 O   0  0  0  0  0  0  0  0  0  0  0  0
   -7.2483   10.0935  -29.0674 O   0  0  0  0  0  0  0  0  0  0  0  0
   -7.0261    9.8490  -31.8020 O   0  0  0  0  0  0  0  0  0  0  0  0
   -5.4956   11.8078  -27.1538 Br  0  0  0  0  0  0  0  0  0  0  0  0
   -5.0955   11.2410  -32.8847 H   0  0  0  0  0  0  0  0  0  0  0  0
   -3.6957   12.9443  -29.1976 H   0  0  0  0  0  0  0  0  0  0  0  0
   -1.7928   14.5563  -31.2419 H   0  0  0  0  0  0  0  0  0  0  0  0
   -7.8902   10.3182  -34.2814 H   0  0  0  0  0  0  0  0  0  0  0  0
   -6.3211   11.1211  -34.0333 H   0  0  0  0  0  0  0  0  0  0  0  0
   -6.4237    9.7218  -35.0947 H   0  0  0  0  0  0  0  0  0  0  0  0
   -1.1160   12.7639  -32.5587 H   0  0  0  0  0  0  0  0  0  0  0  0
   -1.4313   11.9510  -31.0225 H   0  0  0  0  0  0  0  0  0  0  0  0
   -1.9878   11.2161  -32.5208 H   0  0  0  0  0  0  0  0  0  0  0  0
   -2.9321   13.8077  -33.8657 H   0  0  0  0  0  0  0  0  0  0  0  0
   -3.9518   12.3599  -33.8635 H   0  0  0  0  0  0  0  0  0  0  0  0
   -4.5982   13.8812  -33.2689 H   0  0  0  0  0  0  0  0  0  0  0  0
   -5.4535    9.0803  -32.8847 H   0  0  0  0  0  0  0  0  0  0  0  0
   -7.0252    8.2750  -33.1283 H   0  0  0  0  0  0  0  0  0  0  0  0
   -7.7715    9.5726  -29.6956 H   0  0  0  0  0  0  0  0  0  0  0  0
  1  3  1  0  0  0  0
  1  4  2  0  0  0  0
  2  3  2  0  0  0  0
  2  6  1  0  0  0  0
  3 12  1  0  0  0  0
  4  5  1  0  0  0  0
  4 15  1  0  0  0  0
  5  6  2  0  0  0  0
  5 14  1  0  0  0  0
  6 16  1  0  0  0  0
  7 12  1  0  0  0  0
  7 13  2  0  0  0  0
  8 11  1  0  0  0  0
  9 12  1  0  0  0  0
 10 12  1  0  0  0  0
 11 15  1  0  0  0  0
  1 17  1  0  0  0  0
  2 18  1  0  0  0  0
  7 19  1  0  0  0  0
  8 20  1  0  0  0  0
  8 21  1  0  0  0  0
  8 22  1  0  0  0  0
  9 23  1  0  0  0  0
  9 24  1  0  0  0  0
  9 25  1  0  0  0  0
 10 26  1  0  0  0  0
 10 27  1  0  0  0  0
 10 28  1  0  0  0  0
 11 29  1  0  0  0  0
 11 30  1  0  0  0  0
 14 31  1  0  0  0  0
M  END
> <id>
EN300-1920235

> <smiles>
CCOC=1C=C(C=C(Br)C1O)C(C)(C)C=O

> <IUPAC Name>
2-(3-bromo-5-ethoxy-4-hydroxyphenyl)-2-methylpropanal

> <CAS>
2229091-77-2

> <URL>
https://www.enaminestore.com/catalog/EN300-1920235

> <ROCS_ShapeQuery>
_x1604L0AP1_x0771L0AP1

> <ROCS_TanimotoCombo>
0.940 

> <ROCS_ShapeTanimoto>
0.637 

> <ROCS_ColorTanimoto>
0.303 

> <ROCS_RefTversky>
0.557 

> <ROCS_RefColorTversky>
0.406 

> <ROCS_RefTverskyCombo>
0.964 

> <ROCS_FitTversky>
1.288 

> <ROCS_FitColorTversky>
0.545 

> <ROCS_FitTverskyCombo>
1.833 

> <ROCS_ColorScore>
-3.887

> <ROCS_Overlap>
937.436

> <ROCS_Rank>
484                 

$$$$
untitled-dbase-804_44
  -OEChem-06052310023D

 24 24  0     1  0  0  0  0  0999 V2000
   -2.6943   13.9972  -31.1504 C   0  0  0  0  0  0  0  0  0  0  0  0
   -4.6080   12.4901  -29.8546 C   0  0  0  0  0  0  0  0  0  0  0  0
   -5.0803   11.1465  -31.8061 C   0  0  0  0  0  0  0  0  0  0  0  0
   -4.3591   12.1685  -31.1888 C   0  0  0  0  0  0  0  0  0  0  0  0
   -5.5780   11.7896  -29.1376 C   0  0  0  0  0  0  0  0  0  0  0  0
   -6.2992   10.7676  -29.7549 C   0  0  0  0  0  0  0  0  0  0  0  0
   -6.0504   10.4460  -31.0892 C   0  0  0  0  0  0  0  0  0  0  0  0
   -2.2268   12.0019  -32.5327 C   0  0  0  0  0  0  0  0  0  0  0  0
   -5.0282   13.1727  -27.2827 C   0  0  0  0  0  0  0  0  0  0  0  0
   -3.3226   12.9183  -31.9553 C   0  0  2  0  0  0  0  0  0  0  0  0
   -2.2139   14.8370  -30.5094 N   0  0  0  0  0  0  0  0  0  0  0  0
   -7.2446   10.0946  -29.0372 O   0  0  0  0  0  0  0  0  0  0  0  0
   -5.8101   12.1156  -27.8353 O   0  0  0  0  0  0  0  0  0  0  0  0
   -7.0102    9.0637  -31.9621 Br  0  0  0  0  0  0  0  0  0  0  0  0
   -4.0473   13.2866  -29.3712 H   0  0  0  0  0  0  0  0  0  0  0  0
   -4.8793   10.9034  -32.8472 H   0  0  0  0  0  0  0  0  0  0  0  0
   -1.7103   11.4675  -31.7274 H   0  0  0  0  0  0  0  0  0  0  0  0
   -1.4752   12.5688  -33.0944 H   0  0  0  0  0  0  0  0  0  0  0  0
   -2.6456   11.2549  -33.2170 H   0  0  0  0  0  0  0  0  0  0  0  0
   -5.3130   13.3307  -26.2396 H   0  0  0  0  0  0  0  0  0  0  0  0
   -5.1913   14.0872  -27.8586 H   0  0  0  0  0  0  0  0  0  0  0  0
   -3.9722   12.8969  -27.3319 H   0  0  0  0  0  0  0  0  0  0  0  0
   -3.7879   13.4138  -32.8288 H   0  0  0  0  0  0  0  0  0  0  0  0
   -7.2881   10.4438  -28.1340 H   0  0  0  0  0  0  0  0  0  0  0  0
  1 10  1  0  0  0  0
  1 11  3  0  0  0  0
  2  4  1  0  0  0  0
  2  5  2  0  0  0  0
  3  4  2  0  0  0  0
  3  7  1  0  0  0  0
  4 10  1  0  0  0  0
  5  6  1  0  0  0  0
  5 13  1  0  0  0  0
  6  7  2  0  0  0  0
  6 12  1  0  0  0  0
  7 14  1  0  0  0  0
  8 10  1  0  0  0  0
  9 13  1  0  0  0  0
  2 15  1  0  0  0  0
  3 16  1  0  0  0  0
  8 17  1  0  0  0  0
  8 18  1  0  0  0  0
  8 19  1  0  0  0  0
  9 20  1  0  0  0  0
  9 21  1  0  0  0  0
  9 22  1  0  0  0  0
 10 23  1  0  0  0  0
 12 24  1  0  0  0  0
M  END
> <id>
EN300-1898184

> <smiles>
COC=1C=C(C=C(Br)C1O)C(C)C#N

> <MDLNUMBER>
MFCD28022021

> <IUPAC Name>
2-(3-bromo-4-hydroxy-5-methoxyphenyl)propanenitrile

> <CAS>
1823989-99-6

> <URL>
https://www.enaminestore.com/catalog/EN300-1898184

> <ROCS_ShapeQuery>
_x1604L0AP1_x0771L0AP1

> <ROCS_TanimotoCombo>
0.940 

> <ROCS_ShapeTanimoto>
0.527 

> <ROCS_ColorTanimoto>
0.413 

> <ROCS_RefTversky>
0.478 

> <ROCS_RefColorTversky>
0.510 

> <ROCS_RefTverskyCombo>
0.988 

> <ROCS_FitTversky>
1.238 

> <ROCS_FitColorTversky>
0.684 

> <ROCS_FitTverskyCombo>
1.922 

> <ROCS_ColorScore>
-4.880

> <ROCS_Overlap>
802.441

> <ROCS_Rank>
485                 

$$$$
untitled-dbase-1787_19
  -OEChem-06052310023D

 30 30  0     0  0  0  0  0  0999 V2000
   -5.0890   12.0131  -31.4540 C   0  0  0  0  0  0  0  0  0  0  0  0
   -4.2360   12.3061  -29.2127 C   0  0  0  0  0  0  0  0  0  0  0  0
   -6.1051   11.1949  -30.9604 C   0  0  0  0  0  0  0  0  0  0  0  0
   -4.1544   12.5687  -30.5802 C   0  0  0  0  0  0  0  0  0  0  0  0
   -6.1867   10.9323  -29.5929 C   0  0  0  0  0  0  0  0  0  0  0  0
   -5.2522   11.4879  -28.7190 C   0  0  0  0  0  0  0  0  0  0  0  0
   -7.0729   10.6251  -31.8971 C   0  0  0  0  0  0  0  0  0  0  0  0
   -3.0679   13.4432  -31.1083 C   0  0  0  0  0  0  0  0  0  0  0  0
   -6.2720    8.2960  -31.0966 C   0  0  0  0  0  0  0  0  0  0  0  0
   -8.6718    8.6931  -31.7472 C   0  0  0  0  0  0  0  0  0  0  0  0
   -6.8634    8.7000  -33.4733 C   0  0  0  0  0  0  0  0  0  0  0  0
   -7.2134    9.0853  -32.0198 C   0  0  0  0  0  0  0  0  0  0  0  0
   -7.7774   11.3603  -32.5931 O   0  0  0  0  0  0  0  0  0  0  0  0
   -7.1861   10.1303  -29.1222 O   0  0  0  0  0  0  0  0  0  0  0  0
   -5.3303   11.1559  -26.8539 Br  0  0  0  0  0  0  0  0  0  0  0  0
   -5.0229   12.2203  -32.5200 H   0  0  0  0  0  0  0  0  0  0  0  0
   -3.5028   12.7435  -28.5387 H   0  0  0  0  0  0  0  0  0  0  0  0
   -3.3931   14.4906  -31.1217 H   0  0  0  0  0  0  0  0  0  0  0  0
   -2.1616   13.3681  -30.4935 H   0  0  0  0  0  0  0  0  0  0  0  0
   -2.7842   13.1538  -32.1287 H   0  0  0  0  0  0  0  0  0  0  0  0
   -6.3955    7.2144  -31.2069 H   0  0  0  0  0  0  0  0  0  0  0  0
   -5.2221    8.5159  -31.3228 H   0  0  0  0  0  0  0  0  0  0  0  0
   -6.4441    8.5474  -30.0438 H   0  0  0  0  0  0  0  0  0  0  0  0
   -8.8216    7.6120  -31.8225 H   0  0  0  0  0  0  0  0  0  0  0  0
   -9.3507    9.1705  -32.4627 H   0  0  0  0  0  0  0  0  0  0  0  0
   -8.9820    8.9928  -30.7394 H   0  0  0  0  0  0  0  0  0  0  0  0
   -6.9453    7.6169  -33.6224 H   0  0  0  0  0  0  0  0  0  0  0  0
   -7.5324    9.1910  -34.1893 H   0  0  0  0  0  0  0  0  0  0  0  0
   -5.8384    8.9892  -33.7327 H   0  0  0  0  0  0  0  0  0  0  0  0
   -7.1144   10.0401  -28.1600 H   0  0  0  0  0  0  0  0  0  0  0  0
  1  3  2  0  0  0  0
  1  4  1  0  0  0  0
  2  4  2  0  0  0  0
  2  6  1  0  0  0  0
  3  5  1  0  0  0  0
  3  7  1  0  0  0  0
  4  8  1  0  0  0  0
  5  6  2  0  0  0  0
  5 14  1  0  0  0  0
  6 15  1  0  0  0  0
  7 12  1  0  0  0  0
  7 13  2  0  0  0  0
  9 12  1  0  0  0  0
 10 12  1  0  0  0  0
 11 12  1  0  0  0  0
  1 16  1  0  0  0  0
  2 17  1  0  0  0  0
  8 18  1  0  0  0  0
  8 19  1  0  0  0  0
  8 20  1  0  0  0  0
  9 21  1  0  0  0  0
  9 22  1  0  0  0  0
  9 23  1  0  0  0  0
 10 24  1  0  0  0  0
 10 25  1  0  0  0  0
 10 26  1  0  0  0  0
 11 27  1  0  0  0  0
 11 28  1  0  0  0  0
 11 29  1  0  0  0  0
 14 30  1  0  0  0  0
M  END
> <id>
EN300-1276762

> <smiles>
CC=1C=C(Br)C(O)=C(C1)C(=O)C(C)(C)C

> <MDLNUMBER>
MFCD16742954

> <IUPAC Name>
1-(3-bromo-2-hydroxy-5-methylphenyl)-2,2-dimethylpropan-1-one

> <CAS>
1247228-68-7

> <URL>
https://www.enaminestore.com/catalog/EN300-1276762

> <ROCS_ShapeQuery>
_x1604L0AP1_x0771L0AP1

> <ROCS_TanimotoCombo>
0.939 

> <ROCS_ShapeTanimoto>
0.541 

> <ROCS_ColorTanimoto>
0.399 

> <ROCS_RefTversky>
0.495 

> <ROCS_RefColorTversky>
0.470 

> <ROCS_RefTverskyCombo>
0.965 

> <ROCS_FitTversky>
1.208 

> <ROCS_FitColorTversky>
0.724 

> <ROCS_FitTverskyCombo>
1.932 

> <ROCS_ColorScore>
-4.475

> <ROCS_Overlap>
831.074

> <ROCS_Rank>
486                 

$$$$
untitled-dbase-1905_371
  -OEChem-06052310023D

 22 22  0     0  0  0  0  0  0999 V2000
   -4.3271   12.1101  -31.2762 C   0  0  0  0  0  0  0  0  0  0  0  0
   -5.1452   11.1828  -31.9216 C   0  0  0  0  0  0  0  0  0  0  0  0
   -4.4808   12.3438  -29.9096 C   0  0  0  0  0  0  0  0  0  0  0  0
   -6.1170   10.4892  -31.2005 C   0  0  0  0  0  0  0  0  0  0  0  0
   -6.2708   10.7229  -29.8339 C   0  0  0  0  0  0  0  0  0  0  0  0
   -5.4527   11.6502  -29.1885 C   0  0  0  0  0  0  0  0  0  0  0  0
   -7.0549    7.8555  -33.7884 C   0  0  0  0  0  0  0  0  0  0  0  0
   -6.9829    9.5018  -31.9114 C   0  0  0  0  0  0  0  0  0  0  0  0
   -6.4718    9.1610  -33.3159 C   0  0  0  0  0  0  0  0  0  0  0  0
   -6.3870    6.8749  -34.0880 O   0  0  0  0  0  0  0  0  0  0  0  0
   -7.2272   10.0376  -29.1424 O   0  0  0  0  0  0  0  0  0  0  0  0
   -8.4077    7.8954  -33.8725 O   0  0  0  0  0  0  0  0  0  0  0  0
   -5.1130    9.1108  -33.3017 F   0  0  0  0  0  0  0  0  0  0  0  0
   -6.8100   10.1632  -34.1707 F   0  0  0  0  0  0  0  0  0  0  0  0
   -5.6296   11.9953  -27.3328 Br  0  0  0  0  0  0  0  0  0  0  0  0
   -3.5700   12.6499  -31.8375 H   0  0  0  0  0  0  0  0  0  0  0  0
   -5.0170   11.0052  -32.9860 H   0  0  0  0  0  0  0  0  0  0  0  0
   -3.8338   13.0698  -29.4239 H   0  0  0  0  0  0  0  0  0  0  0  0
   -7.0601    8.5782  -31.3137 H   0  0  0  0  0  0  0  0  0  0  0  0
   -8.0123    9.8914  -31.9806 H   0  0  0  0  0  0  0  0  0  0  0  0
   -7.2173   10.3021  -28.2100 H   0  0  0  0  0  0  0  0  0  0  0  0
   -8.8196    7.0658  -34.1970 H   0  0  0  0  0  0  0  0  0  0  0  0
  1  2  1  0  0  0  0
  1  3  2  0  0  0  0
  2  4  2  0  0  0  0
  3  6  1  0  0  0  0
  4  5  1  0  0  0  0
  4  8  1  0  0  0  0
  5  6  2  0  0  0  0
  5 11  1  0  0  0  0
  6 15  1  0  0  0  0
  7  9  1  0  0  0  0
  7 10  2  0  0  0  0
  7 12  1  0  0  0  0
  8  9  1  0  0  0  0
  9 13  1  0  0  0  0
  9 14  1  0  0  0  0
  1 16  1  0  0  0  0
  2 17  1  0  0  0  0
  3 18  1  0  0  0  0
  8 19  1  0  0  0  0
  8 20  1  0  0  0  0
 11 21  1  0  0  0  0
 12 22  1  0  0  0  0
M  END
> <id>
EN300-1963208

> <smiles>
OC(=O)C(F)(F)CC=1C=CC=C(Br)C1O

> <IUPAC Name>
3-(3-bromo-2-hydroxyphenyl)-2,2-difluoropropanoic acid

> <CAS>
2228691-56-1

> <URL>
https://www.enaminestore.com/catalog/EN300-1963208

> <ROCS_ShapeQuery>
_x1604L0AP1_x0771L0AP1

> <ROCS_TanimotoCombo>
0.939 

> <ROCS_ShapeTanimoto>
0.563 

> <ROCS_ColorTanimoto>
0.376 

> <ROCS_RefTversky>
0.512 

> <ROCS_RefColorTversky>
0.477 

> <ROCS_RefTverskyCombo>
0.989 

> <ROCS_FitTversky>
1.216 

> <ROCS_FitColorTversky>
0.639 

> <ROCS_FitTverskyCombo>
1.855 

> <ROCS_ColorScore>
-4.566

> <ROCS_Overlap>
860.657

> <ROCS_Rank>
487                 

$$$$
untitled-dbase-424_2158
  -OEChem-06052310023D

 31 32  0     0  0  0  0  0  0999 V2000
   -5.1747   11.3918  -31.7856 C   0  0  0  0  0  0  0  0  0  0  0  0
   -4.3916   12.3084  -29.6920 C   0  0  0  0  0  0  0  0  0  0  0  0
   -4.2874   12.2036  -31.0790 C   0  0  0  0  0  0  0  0  0  0  0  0
   -6.1663   10.6850  -31.1053 C   0  0  0  0  0  0  0  0  0  0  0  0
   -6.2705   10.7898  -29.7183 C   0  0  0  0  0  0  0  0  0  0  0  0
   -5.3831   11.6015  -29.0116 C   0  0  0  0  0  0  0  0  0  0  0  0
   -3.5170   13.3947  -33.2308 C   0  0  0  0  0  0  0  0  0  0  0  0
   -2.5530   12.2768  -32.9837 C   0  0  0  0  0  0  0  0  0  0  0  0
   -3.2274   12.9575  -31.8063 C   0  0  0  0  0  0  0  0  0  0  0  0
   -6.8162    9.0169  -34.0256 C   0  0  0  0  0  0  0  0  0  0  0  0
   -2.3924   13.8675  -30.9490 C   0  0  0  0  0  0  0  0  0  0  0  0
   -6.4556    8.8315  -32.5670 C   0  0  0  0  0  0  0  0  0  0  0  0
   -7.2471   10.0906  -29.0712 O   0  0  0  0  0  0  0  0  0  0  0  0
   -3.2301   14.8434  -30.3398 O   0  0  0  0  0  0  0  0  0  0  0  0
   -7.0260    9.8961  -31.8085 O   0  0  0  0  0  0  0  0  0  0  0  0
   -5.4917   11.7682  -27.1262 Br  0  0  0  0  0  0  0  0  0  0  0  0
   -5.0958   11.3076  -32.8669 H   0  0  0  0  0  0  0  0  0  0  0  0
   -3.6948   12.9429  -29.1484 H   0  0  0  0  0  0  0  0  0  0  0  0
   -3.1141   14.3404  -33.5743 H   0  0  0  0  0  0  0  0  0  0  0  0
   -4.4765   13.1438  -33.6686 H   0  0  0  0  0  0  0  0  0  0  0  0
   -2.8651   11.2753  -33.2568 H   0  0  0  0  0  0  0  0  0  0  0  0
   -1.5011   12.4700  -33.1599 H   0  0  0  0  0  0  0  0  0  0  0  0
   -7.9008    9.0020  -34.1643 H   0  0  0  0  0  0  0  0  0  0  0  0
   -6.4246    9.9675  -34.4023 H   0  0  0  0  0  0  0  0  0  0  0  0
   -6.3711    8.2247  -34.6367 H   0  0  0  0  0  0  0  0  0  0  0  0
   -1.6348   14.3886  -31.5487 H   0  0  0  0  0  0  0  0  0  0  0  0
   -1.8840   13.3048  -30.1553 H   0  0  0  0  0  0  0  0  0  0  0  0
   -5.3696    8.8473  -32.4353 H   0  0  0  0  0  0  0  0  0  0  0  0
   -6.8483    7.8817  -32.1921 H   0  0  0  0  0  0  0  0  0  0  0  0
   -7.7707    9.5818  -29.7089 H   0  0  0  0  0  0  0  0  0  0  0  0
   -3.6514   15.3376  -31.0609 H   0  0  0  0  0  0  0  0  0  0  0  0
  1  3  1  0  0  0  0
  1  4  2  0  0  0  0
  2  3  2  0  0  0  0
  2  6  1  0  0  0  0
  3  9  1  0  0  0  0
  4  5  1  0  0  0  0
  4 15  1  0  0  0  0
  5  6  2  0  0  0  0
  5 13  1  0  0  0  0
  6 16  1  0  0  0  0
  7  8  1  0  0  0  0
  7  9  1  0  0  0  0
  8  9  1  0  0  0  0
  9 11  1  0  0  0  0
 10 12  1  0  0  0  0
 11 14  1  0  0  0  0
 12 15  1  0  0  0  0
  1 17  1  0  0  0  0
  2 18  1  0  0  0  0
  7 19  1  0  0  0  0
  7 20  1  0  0  0  0
  8 21  1  0  0  0  0
  8 22  1  0  0  0  0
 10 23  1  0  0  0  0
 10 24  1  0  0  0  0
 10 25  1  0  0  0  0
 11 26  1  0  0  0  0
 11 27  1  0  0  0  0
 12 28  1  0  0  0  0
 12 29  1  0  0  0  0
 13 30  1  0  0  0  0
 14 31  1  0  0  0  0
M  END
> <id>
EN300-1920219

> <smiles>
CCOC=1C=C(C=C(Br)C1O)C2(CO)CC2

> <IUPAC Name>
2-bromo-6-ethoxy-4-[1-(hydroxymethyl)cyclopropyl]phenol

> <CAS>
2228863-95-2

> <URL>
https://www.enaminestore.com/catalog/EN300-1920219

> <ROCS_ShapeQuery>
_x1604L0AP1_x0771L0AP1

> <ROCS_TanimotoCombo>
0.939 

> <ROCS_ShapeTanimoto>
0.636 

> <ROCS_ColorTanimoto>
0.303 

> <ROCS_RefTversky>
0.559 

> <ROCS_RefColorTversky>
0.406 

> <ROCS_RefTverskyCombo>
0.965 

> <ROCS_FitTversky>
1.278 

> <ROCS_FitColorTversky>
0.544 

> <ROCS_FitTverskyCombo>
1.822 

> <ROCS_ColorScore>
-3.884

> <ROCS_Overlap>
940.250

> <ROCS_Rank>
488                 

$$$$
untitled-dbase-1991_19
  -OEChem-06052310023D

 27 27  0     0  0  0  0  0  0999 V2000
   -5.0887   12.0136  -31.4542 C   0  0  0  0  0  0  0  0  0  0  0  0
   -4.2351   12.3069  -29.2131 C   0  0  0  0  0  0  0  0  0  0  0  0
   -6.1043   11.1950  -30.9602 C   0  0  0  0  0  0  0  0  0  0  0  0
   -6.1854   10.9323  -29.5927 C   0  0  0  0  0  0  0  0  0  0  0  0
   -4.1540   12.5695  -30.5806 C   0  0  0  0  0  0  0  0  0  0  0  0
   -5.2507   11.4883  -28.7191 C   0  0  0  0  0  0  0  0  0  0  0  0
   -7.0726   10.6262  -31.8970 C   0  0  0  0  0  0  0  0  0  0  0  0
   -6.2715    8.2963  -31.0995 C   0  0  0  0  0  0  0  0  0  0  0  0
   -8.6716    8.6942  -31.7483 C   0  0  0  0  0  0  0  0  0  0  0  0
   -6.8642    8.7029  -33.4755 C   0  0  0  0  0  0  0  0  0  0  0  0
   -7.2133    9.0866  -32.0214 C   0  0  0  0  0  0  0  0  0  0  0  0
   -7.7775   11.3623  -32.5918 O   0  0  0  0  0  0  0  0  0  0  0  0
   -7.1847   10.1304  -29.1218 O   0  0  0  0  0  0  0  0  0  0  0  0
   -3.1787   13.3556  -31.0551 F   0  0  0  0  0  0  0  0  0  0  0  0
   -5.3281   11.1579  -26.8537 Br  0  0  0  0  0  0  0  0  0  0  0  0
   -5.0152   12.2270  -32.5175 H   0  0  0  0  0  0  0  0  0  0  0  0
   -3.4979   12.7488  -28.5479 H   0  0  0  0  0  0  0  0  0  0  0  0
   -6.3951    7.2148  -31.2110 H   0  0  0  0  0  0  0  0  0  0  0  0
   -5.2216    8.5164  -31.3261 H   0  0  0  0  0  0  0  0  0  0  0  0
   -6.4429    8.5465  -30.0464 H   0  0  0  0  0  0  0  0  0  0  0  0
   -8.8215    7.6132  -31.8247 H   0  0  0  0  0  0  0  0  0  0  0  0
   -9.3509    9.1725  -32.4629 H   0  0  0  0  0  0  0  0  0  0  0  0
   -8.9812    8.9927  -30.7400 H   0  0  0  0  0  0  0  0  0  0  0  0
   -6.9462    7.6200  -33.6257 H   0  0  0  0  0  0  0  0  0  0  0  0
   -7.5335    9.1947  -34.1905 H   0  0  0  0  0  0  0  0  0  0  0  0
   -5.8393    8.9924  -33.7352 H   0  0  0  0  0  0  0  0  0  0  0  0
   -7.1127   10.0400  -28.1596 H   0  0  0  0  0  0  0  0  0  0  0  0
  1  3  2  0  0  0  0
  1  5  1  0  0  0  0
  2  5  2  0  0  0  0
  2  6  1  0  0  0  0
  3  4  1  0  0  0  0
  3  7  1  0  0  0  0
  4  6  2  0  0  0  0
  4 13  1  0  0  0  0
  5 14  1  0  0  0  0
  6 15  1  0  0  0  0
  7 11  1  0  0  0  0
  7 12  2  0  0  0  0
  8 11  1  0  0  0  0
  9 11  1  0  0  0  0
 10 11  1  0  0  0  0
  1 16  1  0  0  0  0
  2 17  1  0  0  0  0
  8 18  1  0  0  0  0
  8 19  1  0  0  0  0
  8 20  1  0  0  0  0
  9 21  1  0  0  0  0
  9 22  1  0  0  0  0
  9 23  1  0  0  0  0
 10 24  1  0  0  0  0
 10 25  1  0  0  0  0
 10 26  1  0  0  0  0
 13 27  1  0  0  0  0
M  END
> <id>
EN300-1276930

> <smiles>
CC(C)(C)C(=O)C=1C=C(F)C=C(Br)C1O

> <MDLNUMBER>
MFCD16742962

> <IUPAC Name>
1-(3-bromo-5-fluoro-2-hydroxyphenyl)-2,2-dimethylpropan-1-one

> <CAS>
1250012-80-6

> <URL>
https://www.enaminestore.com/catalog/EN300-1276930

> <ROCS_ShapeQuery>
_x1604L0AP1_x0771L0AP1

> <ROCS_TanimotoCombo>
0.939 

> <ROCS_ShapeTanimoto>
0.541 

> <ROCS_ColorTanimoto>
0.399 

> <ROCS_RefTversky>
0.496 

> <ROCS_RefColorTversky>
0.470 

> <ROCS_RefTverskyCombo>
0.966 

> <ROCS_FitTversky>
1.202 

> <ROCS_FitColorTversky>
0.723 

> <ROCS_FitTverskyCombo>
1.925 

> <ROCS_ColorScore>
-4.475

> <ROCS_Overlap>
832.596

> <ROCS_Rank>
489                 

$$$$
untitled-dbase-661_70
  -OEChem-06052310023D

 28 29  0     0  0  0  0  0  0999 V2000
   -4.3274   12.0580  -31.3007 C   0  0  0  0  0  0  0  0  0  0  0  0
   -5.1114   11.0713  -31.8985 C   0  0  0  0  0  0  0  0  0  0  0  0
   -4.5185   12.3819  -29.9574 C   0  0  0  0  0  0  0  0  0  0  0  0
   -6.0866   10.4087  -31.1532 C   0  0  0  0  0  0  0  0  0  0  0  0
   -6.2778   10.7326  -29.8100 C   0  0  0  0  0  0  0  0  0  0  0  0
   -5.4937   11.7193  -29.2121 C   0  0  0  0  0  0  0  0  0  0  0  0
   -8.4055    8.2294  -34.5713 C   0  0  0  0  0  0  0  0  0  0  0  0
   -8.5228    7.5383  -33.2442 C   0  0  0  0  0  0  0  0  0  0  0  0
   -7.1549    7.8299  -33.8201 C   0  0  0  0  0  0  0  0  0  0  0  0
   -6.9237    9.3463  -31.8197 C   0  0  0  0  0  0  0  0  0  0  0  0
   -6.3466    8.9255  -33.1796 C   0  0  0  0  0  0  0  0  0  0  0  0
   -6.3513    6.7016  -34.3368 N   0  0  0  0  0  0  0  0  0  0  0  0
   -7.2370   10.0766  -29.0945 O   0  0  0  0  0  0  0  0  0  0  0  0
   -5.7219   12.1876  -27.3893 Br  0  0  0  0  0  0  0  0  0  0  0  0
   -3.5677   12.5736  -31.8808 H   0  0  0  0  0  0  0  0  0  0  0  0
   -4.9542   10.8235  -32.9449 H   0  0  0  0  0  0  0  0  0  0  0  0
   -3.8975   13.1532  -29.5087 H   0  0  0  0  0  0  0  0  0  0  0  0
   -8.6828    7.6681  -35.4561 H   0  0  0  0  0  0  0  0  0  0  0  0
   -8.6711    9.2791  -34.6171 H   0  0  0  0  0  0  0  0  0  0  0  0
   -8.8670    8.1244  -32.4002 H   0  0  0  0  0  0  0  0  0  0  0  0
   -8.8781    6.5143  -33.2411 H   0  0  0  0  0  0  0  0  0  0  0  0
   -6.9977    8.4680  -31.1653 H   0  0  0  0  0  0  0  0  0  0  0  0
   -7.9496    9.7128  -31.9546 H   0  0  0  0  0  0  0  0  0  0  0  0
   -6.3067    9.8012  -33.8476 H   0  0  0  0  0  0  0  0  0  0  0  0
   -5.3037    8.5943  -33.0489 H   0  0  0  0  0  0  0  0  0  0  0  0
   -6.9346    5.9054  -34.3426 H   0  0  0  0  0  0  0  0  0  0  0  0
   -6.0584    6.9446  -35.2475 H   0  0  0  0  0  0  0  0  0  0  0  0
   -7.2546   10.4048  -28.1827 H   0  0  0  0  0  0  0  0  0  0  0  0
  1  2  1  0  0  0  0
  1  3  2  0  0  0  0
  2  4  2  0  0  0  0
  3  6  1  0  0  0  0
  4  5  1  0  0  0  0
  4 10  1  0  0  0  0
  5  6  2  0  0  0  0
  5 13  1  0  0  0  0
  6 14  1  0  0  0  0
  7  8  1  0  0  0  0
  7  9  1  0  0  0  0
  8  9  1  0  0  0  0
  9 11  1  0  0  0  0
  9 12  1  0  0  0  0
 10 11  1  0  0  0  0
  1 15  1  0  0  0  0
  2 16  1  0  0  0  0
  3 17  1  0  0  0  0
  7 18  1  0  0  0  0
  7 19  1  0  0  0  0
  8 20  1  0  0  0  0
  8 21  1  0  0  0  0
 10 22  1  0  0  0  0
 10 23  1  0  0  0  0
 11 24  1  0  0  0  0
 11 25  1  0  0  0  0
 12 26  1  0  0  0  0
 12 27  1  0  0  0  0
 13 28  1  0  0  0  0
M  END
> <id>
EN300-1923406

> <smiles>
NC1(CCC=2C=CC=C(Br)C2O)CC1

> <IUPAC Name>
2-[2-(1-aminocyclopropyl)ethyl]-6-bromophenol

> <CAS>
1784783-64-7

> <URL>
https://www.enaminestore.com/catalog/EN300-1923406

> <ROCS_ShapeQuery>
_x1604L0AP1_x0771L0AP1

> <ROCS_TanimotoCombo>
0.939 

> <ROCS_ShapeTanimoto>
0.499 

> <ROCS_ColorTanimoto>
0.440 

> <ROCS_RefTversky>
0.461 

> <ROCS_RefColorTversky>
0.504 

> <ROCS_RefTverskyCombo>
0.965 

> <ROCS_FitTversky>
1.198 

> <ROCS_FitColorTversky>
0.775 

> <ROCS_FitTverskyCombo>
1.974 

> <ROCS_ColorScore>
-4.795

> <ROCS_Overlap>
773.869

> <ROCS_Rank>
490                 

$$$$
untitled-dbase-1463_12
  -OEChem-06052310023D

 17 17  0     0  0  0  0  0  0999 V2000
   -4.3798   12.1788  -31.2237 C   0  0  0  0  0  0  0  0  0  0  0  0
   -5.0957   11.1467  -31.8300 C   0  0  0  0  0  0  0  0  0  0  0  0
   -5.5878   11.8074  -29.1647 C   0  0  0  0  0  0  0  0  0  0  0  0
   -4.6257   12.5092  -29.8910 C   0  0  0  0  0  0  0  0  0  0  0  0
   -6.3038   10.7752  -29.7710 C   0  0  0  0  0  0  0  0  0  0  0  0
   -6.0578   10.4449  -31.1037 C   0  0  0  0  0  0  0  0  0  0  0  0
   -3.8597   13.6119  -29.2422 C   0  0  0  0  0  0  0  0  0  0  0  0
   -7.2350   10.1067  -29.0331 O   0  0  0  0  0  0  0  0  0  0  0  0
   -2.5672   13.6987  -29.8296 O   0  0  0  0  0  0  0  0  0  0  0  0
   -7.0114    9.0490  -31.9605 Br  0  0  0  0  0  0  0  0  0  0  0  0
   -3.6305   12.7190  -31.7966 H   0  0  0  0  0  0  0  0  0  0  0  0
   -4.8904   10.9034  -32.8695 H   0  0  0  0  0  0  0  0  0  0  0  0
   -5.7805   12.0638  -28.1254 H   0  0  0  0  0  0  0  0  0  0  0  0
   -4.3667   14.5789  -29.3655 H   0  0  0  0  0  0  0  0  0  0  0  0
   -3.7461   13.4354  -28.1638 H   0  0  0  0  0  0  0  0  0  0  0  0
   -7.2697   10.4667  -28.1333 H   0  0  0  0  0  0  0  0  0  0  0  0
   -2.1050   14.4246  -29.3808 H   0  0  0  0  0  0  0  0  0  0  0  0
  1  2  1  0  0  0  0
  1  4  2  0  0  0  0
  2  6  2  0  0  0  0
  3  4  1  0  0  0  0
  3  5  2  0  0  0  0
  4  7  1  0  0  0  0
  5  6  1  0  0  0  0
  5  8  1  0  0  0  0
  6 10  1  0  0  0  0
  7  9  1  0  0  0  0
  1 11  1  0  0  0  0
  2 12  1  0  0  0  0
  3 13  1  0  0  0  0
  7 14  1  0  0  0  0
  7 15  1  0  0  0  0
  8 16  1  0  0  0  0
  9 17  1  0  0  0  0
M  END
> <id>
EN300-199959

> <smiles>
OCC=1C=CC(Br)=C(O)C1

> <MDLNUMBER>
MFCD14705103

> <IUPAC Name>
2-bromo-5-(hydroxymethyl)phenol

> <CAS>
2737-19-1

> <Purity>
95

> <URL>
https://www.enaminestore.com/catalog/EN300-199959

> <MP>
101-102

> <ROCS_ShapeQuery>
_x1604L0AP1_x0771L0AP1

> <ROCS_TanimotoCombo>
0.939 

> <ROCS_ShapeTanimoto>
0.488 

> <ROCS_ColorTanimoto>
0.450 

> <ROCS_RefTversky>
0.423 

> <ROCS_RefColorTversky>
0.512 

> <ROCS_RefTverskyCombo>
0.935 

> <ROCS_FitTversky>
1.467 

> <ROCS_FitColorTversky>
0.788 

> <ROCS_FitTverskyCombo>
2.255 

> <ROCS_ColorScore>
-4.876

> <ROCS_Overlap>
705.583

> <ROCS_Rank>
491                 

$$$$
untitled-dbase-1074_243
  -OEChem-06052310023D

 27 27  0     1  0  0  0  0  0999 V2000
   -4.5701   12.4548  -29.8314 C   0  0  0  0  0  0  0  0  0  0  0  0
   -5.0439   11.1194  -31.7882 C   0  0  0  0  0  0  0  0  0  0  0  0
   -4.3127   12.1295  -31.1631 C   0  0  0  0  0  0  0  0  0  0  0  0
   -5.5586   11.7699  -29.1246 C   0  0  0  0  0  0  0  0  0  0  0  0
   -6.2898   10.7598  -29.7497 C   0  0  0  0  0  0  0  0  0  0  0  0
   -6.0324   10.4345  -31.0814 C   0  0  0  0  0  0  0  0  0  0  0  0
   -4.3619   15.1183  -31.5462 C   0  0  0  0  0  0  0  0  0  0  0  0
   -5.0524   11.4006  -26.8305 C   0  0  0  0  0  0  0  0  0  0  0  0
   -3.2564   12.8626  -31.9186 C   0  0  0  0  0  0  0  0  0  0  0  0
   -3.0731   14.3136  -31.4346 C   0  0  2  0  0  0  0  0  0  0  0  0
   -7.2533   10.1020  -29.0420 O   0  0  0  0  0  0  0  0  0  0  0  0
   -2.6582   14.3156  -30.0698 O   0  0  0  0  0  0  0  0  0  0  0  0
   -5.7988   12.0994  -27.8247 O   0  0  0  0  0  0  0  0  0  0  0  0
   -7.0053    9.0679  -31.9647 Br  0  0  0  0  0  0  0  0  0  0  0  0
   -4.0017   13.2421  -29.3420 H   0  0  0  0  0  0  0  0  0  0  0  0
   -4.8361   10.8732  -32.8272 H   0  0  0  0  0  0  0  0  0  0  0  0
   -5.1708   14.6475  -30.9767 H   0  0  0  0  0  0  0  0  0  0  0  0
   -4.2247   16.1404  -31.1804 H   0  0  0  0  0  0  0  0  0  0  0  0
   -4.6952   15.1621  -32.5887 H   0  0  0  0  0  0  0  0  0  0  0  0
   -5.3401   11.7588  -25.8390 H   0  0  0  0  0  0  0  0  0  0  0  0
   -3.9842   11.5647  -26.9931 H   0  0  0  0  0  0  0  0  0  0  0  0
   -5.2708   10.3328  -26.9071 H   0  0  0  0  0  0  0  0  0  0  0  0
   -2.2955   12.3243  -31.8415 H   0  0  0  0  0  0  0  0  0  0  0  0
   -3.5089   12.8634  -32.9930 H   0  0  0  0  0  0  0  0  0  0  0  0
   -2.2899   14.8136  -32.0150 H   0  0  0  0  0  0  0  0  0  0  0  0
   -7.3004   10.4516  -28.1392 H   0  0  0  0  0  0  0  0  0  0  0  0
   -1.8394   13.7981  -30.0306 H   0  0  0  0  0  0  0  0  0  0  0  0
  1  3  1  0  0  0  0
  1  4  2  0  0  0  0
  2  3  2  0  0  0  0
  2  6  1  0  0  0  0
  3  9  1  0  0  0  0
  4  5  1  0  0  0  0
  4 13  1  0  0  0  0
  5  6  2  0  0  0  0
  5 11  1  0  0  0  0
  6 14  1  0  0  0  0
  7 10  1  1  0  0  0
  8 13  1  0  0  0  0
  9 10  1  0  0  0  0
 10 12  1  0  0  0  0
  1 15  1  0  0  0  0
  2 16  1  0  0  0  0
  7 17  1  0  0  0  0
  7 18  1  0  0  0  0
  7 19  1  0  0  0  0
  8 20  1  0  0  0  0
  8 21  1  0  0  0  0
  8 22  1  0  0  0  0
  9 23  1  0  0  0  0
  9 24  1  0  0  0  0
 10 25  1  0  0  0  0
 11 26  1  0  0  0  0
 12 27  1  0  0  0  0
M  END
> <id>
EN300-1927012

> <smiles>
COC=1C=C(C[C@@H](C)O)C=C(Br)C1O

> <IUPAC Name>
2-bromo-4-[(2R)-2-hydroxypropyl]-6-methoxyphenol

> <CAS>
2227685-76-7

> <URL>
https://www.enaminestore.com/catalog/EN300-1927012

> <ROCS_ShapeQuery>
_x1604L0AP1_x0771L0AP1

> <ROCS_TanimotoCombo>
0.939 

> <ROCS_ShapeTanimoto>
0.526 

> <ROCS_ColorTanimoto>
0.413 

> <ROCS_RefTversky>
0.477 

> <ROCS_RefColorTversky>
0.510 

> <ROCS_RefTverskyCombo>
0.987 

> <ROCS_FitTversky>
1.244 

> <ROCS_FitColorTversky>
0.684 

> <ROCS_FitTverskyCombo>
1.928 

> <ROCS_ColorScore>
-4.881

> <ROCS_Overlap>
799.849

> <ROCS_Rank>
492                 

$$$$
untitled-dbase-2075_20
  -OEChem-06052310023D

 27 27  0     0  0  0  0  0  0999 V2000
   -5.0862   12.0142  -31.4510 C   0  0  0  0  0  0  0  0  0  0  0  0
   -4.2333   12.3025  -29.2090 C   0  0  0  0  0  0  0  0  0  0  0  0
   -6.1040   11.1972  -30.9588 C   0  0  0  0  0  0  0  0  0  0  0  0
   -6.1865   10.9329  -29.5917 C   0  0  0  0  0  0  0  0  0  0  0  0
   -4.1509   12.5668  -30.5761 C   0  0  0  0  0  0  0  0  0  0  0  0
   -5.2511   11.4856  -28.7168 C   0  0  0  0  0  0  0  0  0  0  0  0
   -7.0718   10.6282  -31.8959 C   0  0  0  0  0  0  0  0  0  0  0  0
   -6.2743    8.2985  -31.0942 C   0  0  0  0  0  0  0  0  0  0  0  0
   -8.6732    8.6983  -31.7466 C   0  0  0  0  0  0  0  0  0  0  0  0
   -6.8636    8.7025  -33.4715 C   0  0  0  0  0  0  0  0  0  0  0  0
   -7.2141    9.0886  -32.0184 C   0  0  0  0  0  0  0  0  0  0  0  0
   -7.7750   11.3641  -32.5927 O   0  0  0  0  0  0  0  0  0  0  0  0
   -7.1863   10.1305  -29.1225 O   0  0  0  0  0  0  0  0  0  0  0  0
   -2.8951   13.5747  -31.1843 Cl  0  0  0  0  0  0  0  0  0  0  0  0
   -5.3294   11.1503  -26.8523 Br  0  0  0  0  0  0  0  0  0  0  0  0
   -5.0237   12.2187  -32.5178 H   0  0  0  0  0  0  0  0  0  0  0  0
   -3.5017   12.7353  -28.5300 H   0  0  0  0  0  0  0  0  0  0  0  0
   -6.3991    7.2170  -31.2043 H   0  0  0  0  0  0  0  0  0  0  0  0
   -5.2240    8.5170  -31.3198 H   0  0  0  0  0  0  0  0  0  0  0  0
   -6.4469    8.5504  -30.0416 H   0  0  0  0  0  0  0  0  0  0  0  0
   -8.8243    7.6173  -31.8217 H   0  0  0  0  0  0  0  0  0  0  0  0
   -9.3510    9.1763  -32.4628 H   0  0  0  0  0  0  0  0  0  0  0  0
   -8.9837    8.9986  -30.7392 H   0  0  0  0  0  0  0  0  0  0  0  0
   -6.9467    7.6194  -33.6203 H   0  0  0  0  0  0  0  0  0  0  0  0
   -7.5314    9.1941  -34.1881 H   0  0  0  0  0  0  0  0  0  0  0  0
   -5.8380    8.9904  -33.7303 H   0  0  0  0  0  0  0  0  0  0  0  0
   -7.1152   10.0391  -28.1604 H   0  0  0  0  0  0  0  0  0  0  0  0
  1  3  2  0  0  0  0
  1  5  1  0  0  0  0
  2  5  2  0  0  0  0
  2  6  1  0  0  0  0
  3  4  1  0  0  0  0
  3  7  1  0  0  0  0
  4  6  2  0  0  0  0
  4 13  1  0  0  0  0
  5 14  1  0  0  0  0
  6 15  1  0  0  0  0
  7 11  1  0  0  0  0
  7 12  2  0  0  0  0
  8 11  1  0  0  0  0
  9 11  1  0  0  0  0
 10 11  1  0  0  0  0
  1 16  1  0  0  0  0
  2 17  1  0  0  0  0
  8 18  1  0  0  0  0
  8 19  1  0  0  0  0
  8 20  1  0  0  0  0
  9 21  1  0  0  0  0
  9 22  1  0  0  0  0
  9 23  1  0  0  0  0
 10 24  1  0  0  0  0
 10 25  1  0  0  0  0
 10 26  1  0  0  0  0
 13 27  1  0  0  0  0
M  END
> <id>
EN300-1276679

> <smiles>
CC(C)(C)C(=O)C=1C=C(Cl)C=C(Br)C1O

> <MDLNUMBER>
MFCD16742960

> <IUPAC Name>
1-(3-bromo-5-chloro-2-hydroxyphenyl)-2,2-dimethylpropan-1-one

> <CAS>
1248109-22-9

> <URL>
https://www.enaminestore.com/catalog/EN300-1276679

> <ROCS_ShapeQuery>
_x1604L0AP1_x0771L0AP1

> <ROCS_TanimotoCombo>
0.939 

> <ROCS_ShapeTanimoto>
0.540 

> <ROCS_ColorTanimoto>
0.399 

> <ROCS_RefTversky>
0.493 

> <ROCS_RefColorTversky>
0.470 

> <ROCS_RefTverskyCombo>
0.963 

> <ROCS_FitTversky>
1.215 

> <ROCS_FitColorTversky>
0.724 

> <ROCS_FitTverskyCombo>
1.938 

> <ROCS_ColorScore>
-4.475

> <ROCS_Overlap>
828.224

> <ROCS_Rank>
493                 

$$$$
untitled-dbase-232_6
  -OEChem-06052310023D

 20 20  0     1  0  0  0  0  0999 V2000
   -6.9266   10.7561  -33.3980 C   0  0  0  0  0  0  0  0  0  0  0  0
   -4.1972   12.4517  -30.7991 C   0  0  0  0  0  0  0  0  0  0  0  0
   -5.1391   11.8389  -31.6254 C   0  0  0  0  0  0  0  0  0  0  0  0
   -4.2618   12.2749  -29.4170 C   0  0  0  0  0  0  0  0  0  0  0  0
   -6.1457   11.0494  -31.0696 C   0  0  0  0  0  0  0  0  0  0  0  0
   -6.2104   10.8726  -29.6874 C   0  0  0  0  0  0  0  0  0  0  0  0
   -5.2684   11.4854  -28.8612 C   0  0  0  0  0  0  0  0  0  0  0  0
   -7.1831    8.8716  -31.8190 C   0  0  0  0  0  0  0  0  0  0  0  0
   -7.1447   10.4034  -31.9724 C   0  0  2  0  0  0  0  0  0  0  0  0
   -6.7455   11.0414  -34.5083 N   0  0  0  0  0  0  0  0  0  0  0  0
   -7.2021   10.0985  -29.1586 O   0  0  0  0  0  0  0  0  0  0  0  0
   -5.3215   11.2689  -26.9785 Br  0  0  0  0  0  0  0  0  0  0  0  0
   -3.4130   13.0661  -31.2318 H   0  0  0  0  0  0  0  0  0  0  0  0
   -5.0799   11.9800  -32.7013 H   0  0  0  0  0  0  0  0  0  0  0  0
   -3.5186   12.7601  -28.7891 H   0  0  0  0  0  0  0  0  0  0  0  0
   -6.2056    8.4371  -32.0566 H   0  0  0  0  0  0  0  0  0  0  0  0
   -7.9241    8.4130  -32.4841 H   0  0  0  0  0  0  0  0  0  0  0  0
   -7.4420    8.5769  -30.7954 H   0  0  0  0  0  0  0  0  0  0  0  0
   -8.1613   10.7560  -31.7161 H   0  0  0  0  0  0  0  0  0  0  0  0
   -7.1209   10.0674  -28.1932 H   0  0  0  0  0  0  0  0  0  0  0  0
  1  9  1  0  0  0  0
  1 10  3  0  0  0  0
  2  3  1  0  0  0  0
  2  4  2  0  0  0  0
  3  5  2  0  0  0  0
  4  7  1  0  0  0  0
  5  6  1  0  0  0  0
  5  9  1  0  0  0  0
  6  7  2  0  0  0  0
  6 11  1  0  0  0  0
  7 12  1  0  0  0  0
  8  9  1  0  0  0  0
  2 13  1  0  0  0  0
  3 14  1  0  0  0  0
  4 15  1  0  0  0  0
  8 16  1  0  0  0  0
  8 17  1  0  0  0  0
  8 18  1  0  0  0  0
  9 19  1  0  0  0  0
 11 20  1  0  0  0  0
M  END
> <id>
EN300-1895465

> <smiles>
CC(C#N)C=1C=CC=C(Br)C1O

> <MDLNUMBER>
MFCD28022153

> <IUPAC Name>
2-(3-bromo-2-hydroxyphenyl)propanenitrile

> <CAS>
1823836-05-0

> <URL>
https://www.enaminestore.com/catalog/EN300-1895465

> <ROCS_ShapeQuery>
_x1604L0AP1_x0771L0AP1

> <ROCS_TanimotoCombo>
0.939 

> <ROCS_ShapeTanimoto>
0.510 

> <ROCS_ColorTanimoto>
0.429 

> <ROCS_RefTversky>
0.451 

> <ROCS_RefColorTversky>
0.495 

> <ROCS_RefTverskyCombo>
0.947 

> <ROCS_FitTversky>
1.340 

> <ROCS_FitColorTversky>
0.762 

> <ROCS_FitTverskyCombo>
2.102 

> <ROCS_ColorScore>
-4.714

> <ROCS_Overlap>
755.179

> <ROCS_Rank>
494                 

$$$$
untitled-dbase-669_81
  -OEChem-06052310023D

 29 30  0     0  0  0  0  0  0999 V2000
   -4.3643   12.1721  -31.2155 C   0  0  0  0  0  0  0  0  0  0  0  0
   -4.6074   12.4969  -29.8810 C   0  0  0  0  0  0  0  0  0  0  0  0
   -5.0861   11.1467  -31.8264 C   0  0  0  0  0  0  0  0  0  0  0  0
   -5.5723   11.7963  -29.1573 C   0  0  0  0  0  0  0  0  0  0  0  0
   -6.2941   10.7708  -29.7682 C   0  0  0  0  0  0  0  0  0  0  0  0
   -6.0510   10.4461  -31.1028 C   0  0  0  0  0  0  0  0  0  0  0  0
   -5.9192   10.9824  -34.1922 C   0  0  0  0  0  0  0  0  0  0  0  0
   -3.7783    9.7402  -33.5451 C   0  0  0  0  0  0  0  0  0  0  0  0
   -3.4011   11.1674  -33.7765 C   0  0  0  0  0  0  0  0  0  0  0  0
   -4.7891   10.8360  -33.2581 C   0  0  0  0  0  0  0  0  0  0  0  0
   -5.9205   10.0834  -35.3989 C   0  0  0  0  0  0  0  0  0  0  0  0
   -5.0163   13.1848  -27.3083 C   0  0  0  0  0  0  0  0  0  0  0  0
   -6.8184   11.7980  -33.9943 O   0  0  0  0  0  0  0  0  0  0  0  0
   -7.2328   10.1003  -29.0389 O   0  0  0  0  0  0  0  0  0  0  0  0
   -5.7981   12.1244  -27.8544 O   0  0  0  0  0  0  0  0  0  0  0  0
   -7.0431    9.0445  -31.9254 Br  0  0  0  0  0  0  0  0  0  0  0  0
   -3.6100   12.7251  -31.7694 H   0  0  0  0  0  0  0  0  0  0  0  0
   -4.0418   13.2969  -29.4110 H   0  0  0  0  0  0  0  0  0  0  0  0
   -3.9327    9.1132  -34.4159 H   0  0  0  0  0  0  0  0  0  0  0  0
   -3.3115    9.2251  -32.7132 H   0  0  0  0  0  0  0  0  0  0  0  0
   -2.6801   11.6128  -33.1006 H   0  0  0  0  0  0  0  0  0  0  0  0
   -3.3019   11.5014  -34.8031 H   0  0  0  0  0  0  0  0  0  0  0  0
   -6.4492    9.1548  -35.1664 H   0  0  0  0  0  0  0  0  0  0  0  0
   -4.8916    9.8438  -35.6783 H   0  0  0  0  0  0  0  0  0  0  0  0
   -6.4299   10.5823  -36.2269 H   0  0  0  0  0  0  0  0  0  0  0  0
   -5.2958   13.3441  -26.2640 H   0  0  0  0  0  0  0  0  0  0  0  0
   -5.1852   14.0976  -27.8852 H   0  0  0  0  0  0  0  0  0  0  0  0
   -3.9598   12.9120  -27.3628 H   0  0  0  0  0  0  0  0  0  0  0  0
   -7.2691   10.4544  -28.1374 H   0  0  0  0  0  0  0  0  0  0  0  0
  1  2  1  0  0  0  0
  1  3  2  0  0  0  0
  2  4  2  0  0  0  0
  3  6  1  0  0  0  0
  3 10  1  0  0  0  0
  4  5  1  0  0  0  0
  4 15  1  0  0  0  0
  5  6  2  0  0  0  0
  5 14  1  0  0  0  0
  6 16  1  0  0  0  0
  7 10  1  0  0  0  0
  7 11  1  0  0  0  0
  7 13  2  0  0  0  0
  8  9  1  0  0  0  0
  8 10  1  0  0  0  0
  9 10  1  0  0  0  0
 12 15  1  0  0  0  0
  1 17  1  0  0  0  0
  2 18  1  0  0  0  0
  8 19  1  0  0  0  0
  8 20  1  0  0  0  0
  9 21  1  0  0  0  0
  9 22  1  0  0  0  0
 11 23  1  0  0  0  0
 11 24  1  0  0  0  0
 11 25  1  0  0  0  0
 12 26  1  0  0  0  0
 12 27  1  0  0  0  0
 12 28  1  0  0  0  0
 14 29  1  0  0  0  0
M  END
> <id>
EN300-1935972

> <smiles>
COC=1C=CC(=C(Br)C1O)C2(CC2)C(=O)C

> <IUPAC Name>
1-[1-(2-bromo-3-hydroxy-4-methoxyphenyl)cyclopropyl]ethan-1-one

> <CAS>
2228443-69-2

> <URL>
https://www.enaminestore.com/catalog/EN300-1935972

> <ROCS_ShapeQuery>
_x1604L0AP1_x0771L0AP1

> <ROCS_TanimotoCombo>
0.939 

> <ROCS_ShapeTanimoto>
0.487 

> <ROCS_ColorTanimoto>
0.451 

> <ROCS_RefTversky>
0.473 

> <ROCS_RefColorTversky>
0.513 

> <ROCS_RefTverskyCombo>
0.986 

> <ROCS_FitTversky>
1.066 

> <ROCS_FitColorTversky>
0.789 

> <ROCS_FitTverskyCombo>
1.855 

> <ROCS_ColorScore>
-4.883

> <ROCS_Overlap>
795.972

> <ROCS_Rank>
495                 

$$$$
untitled-dbase-1731_236
  -OEChem-06052310023D

 28 28  0     0  0  0  0  0  0999 V2000
   -4.3910   12.1659  -31.2735 C   0  0  0  0  0  0  0  0  0  0  0  0
   -4.6199   12.5099  -29.9413 C   0  0  0  0  0  0  0  0  0  0  0  0
   -5.1139   11.1269  -31.8596 C   0  0  0  0  0  0  0  0  0  0  0  0
   -5.5717   11.8149  -29.1951 C   0  0  0  0  0  0  0  0  0  0  0  0
   -6.2945   10.7758  -29.7812 C   0  0  0  0  0  0  0  0  0  0  0  0
   -6.0656   10.4318  -31.1135 C   0  0  0  0  0  0  0  0  0  0  0  0
   -5.8139   10.5595  -35.6135 C   0  0  0  0  0  0  0  0  0  0  0  0
   -5.9408    9.1152  -35.9647 C   0  0  0  0  0  0  0  0  0  0  0  0
   -5.0018   13.2361  -27.3755 C   0  0  0  0  0  0  0  0  0  0  0  0
   -4.8294   10.7961  -33.3018 C   0  0  0  0  0  0  0  0  0  0  0  0
   -6.0864   10.8994  -34.1640 C   0  0  0  0  0  0  0  0  0  0  0  0
   -5.5050   11.3737  -36.4742 O   0  0  0  0  0  0  0  0  0  0  0  0
   -7.2204   10.1110  -29.0307 O   0  0  0  0  0  0  0  0  0  0  0  0
   -5.7839   12.1627  -27.8950 O   0  0  0  0  0  0  0  0  0  0  0  0
   -7.0629    9.0186  -31.9080 Br  0  0  0  0  0  0  0  0  0  0  0  0
   -3.6474   12.7144  -31.8457 H   0  0  0  0  0  0  0  0  0  0  0  0
   -4.0541   13.3212  -29.4912 H   0  0  0  0  0  0  0  0  0  0  0  0
   -6.9605    8.8456  -36.2816 H   0  0  0  0  0  0  0  0  0  0  0  0
   -5.2853    8.8253  -36.8007 H   0  0  0  0  0  0  0  0  0  0  0  0
   -5.6949    8.4236  -35.1439 H   0  0  0  0  0  0  0  0  0  0  0  0
   -5.2697   13.4107  -26.3306 H   0  0  0  0  0  0  0  0  0  0  0  0
   -5.1828   14.1385  -27.9649 H   0  0  0  0  0  0  0  0  0  0  0  0
   -3.9444   12.9683  -27.4383 H   0  0  0  0  0  0  0  0  0  0  0  0
   -4.0499   11.4679  -33.6845 H   0  0  0  0  0  0  0  0  0  0  0  0
   -4.4040    9.7863  -33.3690 H   0  0  0  0  0  0  0  0  0  0  0  0
   -6.4899   11.9182  -34.1239 H   0  0  0  0  0  0  0  0  0  0  0  0
   -6.8571   10.2127  -33.7941 H   0  0  0  0  0  0  0  0  0  0  0  0
   -7.2482   10.4787  -28.1343 H   0  0  0  0  0  0  0  0  0  0  0  0
  1  2  1  0  0  0  0
  1  3  2  0  0  0  0
  2  4  2  0  0  0  0
  3  6  1  0  0  0  0
  3 10  1  0  0  0  0
  4  5  1  0  0  0  0
  4 14  1  0  0  0  0
  5  6  2  0  0  0  0
  5 13  1  0  0  0  0
  6 15  1  0  0  0  0
  7  8  1  0  0  0  0
  7 11  1  0  0  0  0
  7 12  2  0  0  0  0
  9 14  1  0  0  0  0
 10 11  1  0  0  0  0
  1 16  1  0  0  0  0
  2 17  1  0  0  0  0
  8 18  1  0  0  0  0
  8 19  1  0  0  0  0
  8 20  1  0  0  0  0
  9 21  1  0  0  0  0
  9 22  1  0  0  0  0
  9 23  1  0  0  0  0
 10 24  1  0  0  0  0
 10 25  1  0  0  0  0
 11 26  1  0  0  0  0
 11 27  1  0  0  0  0
 13 28  1  0  0  0  0
M  END
> <id>
EN300-1935984

> <smiles>
COC=1C=CC(CCC(=O)C)=C(Br)C1O

> <IUPAC Name>
4-(2-bromo-3-hydroxy-4-methoxyphenyl)butan-2-one

> <CAS>
2228742-47-8

> <URL>
https://www.enaminestore.com/catalog/EN300-1935984

> <ROCS_ShapeQuery>
_x1604L0AP1_x0771L0AP1

> <ROCS_TanimotoCombo>
0.939 

> <ROCS_ShapeTanimoto>
0.488 

> <ROCS_ColorTanimoto>
0.450 

> <ROCS_RefTversky>
0.462 

> <ROCS_RefColorTversky>
0.512 

> <ROCS_RefTverskyCombo>
0.974 

> <ROCS_FitTversky>
1.132 

> <ROCS_FitColorTversky>
0.788 

> <ROCS_FitTverskyCombo>
1.920 

> <ROCS_ColorScore>
-4.875

> <ROCS_Overlap>
776.061

> <ROCS_Rank>
496                 

$$$$
untitled-dbase-1316_10
  -OEChem-06052310023D

 18 18  0     0  0  0  0  0  0999 V2000
   -4.3786   12.1784  -31.2239 C   0  0  0  0  0  0  0  0  0  0  0  0
   -5.0948   11.1464  -31.8302 C   0  0  0  0  0  0  0  0  0  0  0  0
   -5.5856   11.8062  -29.1644 C   0  0  0  0  0  0  0  0  0  0  0  0
   -4.6240   12.5083  -29.8910 C   0  0  0  0  0  0  0  0  0  0  0  0
   -6.3019   10.7742  -29.7708 C   0  0  0  0  0  0  0  0  0  0  0  0
   -6.0564   10.4443  -31.1037 C   0  0  0  0  0  0  0  0  0  0  0  0
   -3.8578   13.6109  -29.2422 C   0  0  0  0  0  0  0  0  0  0  0  0
   -2.5310   13.7504  -29.7868 N   0  0  0  0  0  0  0  0  0  0  0  0
   -7.2326   10.1053  -29.0327 O   0  0  0  0  0  0  0  0  0  0  0  0
   -7.0103    9.0486  -31.9605 Br  0  0  0  0  0  0  0  0  0  0  0  0
   -3.6296   12.7188  -31.7970 H   0  0  0  0  0  0  0  0  0  0  0  0
   -4.8898   10.9035  -32.8698 H   0  0  0  0  0  0  0  0  0  0  0  0
   -5.7779   12.0623  -28.1251 H   0  0  0  0  0  0  0  0  0  0  0  0
   -4.3689   14.5758  -29.3677 H   0  0  0  0  0  0  0  0  0  0  0  0
   -3.7522   13.4465  -28.1610 H   0  0  0  0  0  0  0  0  0  0  0  0
   -2.5948   13.9907  -30.7541 H   0  0  0  0  0  0  0  0  0  0  0  0
   -2.0462   14.4705  -29.2928 H   0  0  0  0  0  0  0  0  0  0  0  0
   -7.6546    9.4177  -29.5707 H   0  0  0  0  0  0  0  0  0  0  0  0
  1  2  1  0  0  0  0
  1  4  2  0  0  0  0
  2  6  2  0  0  0  0
  3  4  1  0  0  0  0
  3  5  2  0  0  0  0
  4  7  1  0  0  0  0
  5  6  1  0  0  0  0
  5  9  1  0  0  0  0
  6 10  1  0  0  0  0
  7  8  1  0  0  0  0
  1 11  1  0  0  0  0
  2 12  1  0  0  0  0
  3 13  1  0  0  0  0
  7 14  1  0  0  0  0
  7 15  1  0  0  0  0
  8 16  1  0  0  0  0
  8 17  1  0  0  0  0
  9 18  1  0  0  0  0
M  END
> <id>
EN300-1272422

> <smiles>
NCC=1C=CC(Br)=C(O)C1

> <MDLNUMBER>
MFCD16999582

> <IUPAC Name>
5-(aminomethyl)-2-bromophenol

> <CAS>
916304-26-2

> <URL>
https://www.enaminestore.com/catalog/EN300-1272422

> <ROCS_ShapeQuery>
_x1604L0AP1_x0771L0AP1

> <ROCS_TanimotoCombo>
0.938 

> <ROCS_ShapeTanimoto>
0.488 

> <ROCS_ColorTanimoto>
0.451 

> <ROCS_RefTversky>
0.422 

> <ROCS_RefColorTversky>
0.512 

> <ROCS_RefTverskyCombo>
0.935 

> <ROCS_FitTversky>
1.468 

> <ROCS_FitColorTversky>
0.788 

> <ROCS_FitTverskyCombo>
2.256 

> <ROCS_ColorScore>
-4.876

> <ROCS_Overlap>
704.776

> <ROCS_Rank>
497                 

$$$$
untitled-dbase-1346_10
  -OEChem-06052310023D

 18 18  0     0  0  0  0  0  0999 V2000
   -4.3786   12.1784  -31.2239 C   0  0  0  0  0  0  0  0  0  0  0  0
   -5.0948   11.1464  -31.8302 C   0  0  0  0  0  0  0  0  0  0  0  0
   -5.5856   11.8062  -29.1644 C   0  0  0  0  0  0  0  0  0  0  0  0
   -4.6240   12.5083  -29.8910 C   0  0  0  0  0  0  0  0  0  0  0  0
   -6.3019   10.7742  -29.7708 C   0  0  0  0  0  0  0  0  0  0  0  0
   -6.0564   10.4443  -31.1037 C   0  0  0  0  0  0  0  0  0  0  0  0
   -3.8578   13.6109  -29.2422 C   0  0  0  0  0  0  0  0  0  0  0  0
   -2.5310   13.7504  -29.7868 N   0  0  0  0  0  0  0  0  0  0  0  0
   -7.2326   10.1053  -29.0327 O   0  0  0  0  0  0  0  0  0  0  0  0
   -7.0103    9.0486  -31.9605 Br  0  0  0  0  0  0  0  0  0  0  0  0
   -3.6296   12.7188  -31.7970 H   0  0  0  0  0  0  0  0  0  0  0  0
   -4.8898   10.9035  -32.8698 H   0  0  0  0  0  0  0  0  0  0  0  0
   -5.7779   12.0623  -28.1251 H   0  0  0  0  0  0  0  0  0  0  0  0
   -4.3689   14.5758  -29.3677 H   0  0  0  0  0  0  0  0  0  0  0  0
   -3.7522   13.4465  -28.1610 H   0  0  0  0  0  0  0  0  0  0  0  0
   -2.5948   13.9907  -30.7541 H   0  0  0  0  0  0  0  0  0  0  0  0
   -2.0462   14.4705  -29.2928 H   0  0  0  0  0  0  0  0  0  0  0  0
   -7.6546    9.4177  -29.5707 H   0  0  0  0  0  0  0  0  0  0  0  0
  1  2  1  0  0  0  0
  1  4  2  0  0  0  0
  2  6  2  0  0  0  0
  3  4  1  0  0  0  0
  3  5  2  0  0  0  0
  4  7  1  0  0  0  0
  5  6  1  0  0  0  0
  5  9  1  0  0  0  0
  6 10  1  0  0  0  0
  7  8  1  0  0  0  0
  1 11  1  0  0  0  0
  2 12  1  0  0  0  0
  3 13  1  0  0  0  0
  7 14  1  0  0  0  0
  7 15  1  0  0  0  0
  8 16  1  0  0  0  0
  8 17  1  0  0  0  0
  9 18  1  0  0  0  0
M  END
> <id>
EN300-6495042

> <smiles>
Cl.NCC=1C=CC(Br)=C(O)C1

> <MDLNUMBER>
MFCD27923601

> <IUPAC Name>
5-(aminomethyl)-2-bromophenol hydrochloride

> <CAS>
916213-66-6

> <Purity>
95

> <URL>
https://www.enaminestore.com/catalog/EN300-6495042

> <Saltdate>
Cl

> <ROCS_ShapeQuery>
_x1604L0AP1_x0771L0AP1

> <ROCS_TanimotoCombo>
0.938 

> <ROCS_ShapeTanimoto>
0.488 

> <ROCS_ColorTanimoto>
0.451 

> <ROCS_RefTversky>
0.422 

> <ROCS_RefColorTversky>
0.512 

> <ROCS_RefTverskyCombo>
0.935 

> <ROCS_FitTversky>
1.468 

> <ROCS_FitColorTversky>
0.788 

> <ROCS_FitTverskyCombo>
2.256 

> <ROCS_ColorScore>
-4.876

> <ROCS_Overlap>
704.776

> <ROCS_Rank>
498                 

$$$$
untitled-dbase-1782_29
  -OEChem-06052310023D

 25 26  0     1  0  0  0  0  0999 V2000
   -4.5820   12.5204  -29.7810 C   0  0  0  0  0  0  0  0  0  0  0  0
   -5.9937   10.4849  -31.0643 C   0  0  0  0  0  0  0  0  0  0  0  0
   -6.2714   10.7939  -29.7327 C   0  0  0  0  0  0  0  0  0  0  0  0
   -5.0101   11.1937  -31.7542 C   0  0  0  0  0  0  0  0  0  0  0  0
   -4.3043   12.2114  -31.1125 C   0  0  0  0  0  0  0  0  0  0  0  0
   -5.5656   11.8116  -29.0911 C   0  0  0  0  0  0  0  0  0  0  0  0
   -7.2234    8.5881  -34.2268 C   0  0  0  0  0  0  0  0  0  0  0  0
   -6.8643   10.0450  -34.3172 C   0  0  0  0  0  0  0  0  0  0  0  0
   -6.2872    9.1954  -33.2191 C   0  0  0  0  0  0  0  0  0  0  0  0
   -6.7399    9.3982  -31.7664 C   0  0  2  0  0  0  0  0  0  0  0  0
   -8.1762    9.6092  -31.7244 N   0  0  0  0  0  0  0  0  0  0  0  0
   -7.2366   10.0919  -29.0708 O   0  0  0  0  0  0  0  0  0  0  0  0
   -4.7463   10.8923  -33.0348 F   0  0  0  0  0  0  0  0  0  0  0  0
   -3.0890   13.0900  -31.9585 Cl  0  0  0  0  0  0  0  0  0  0  0  0
   -5.9145   12.2611  -27.2826 Br  0  0  0  0  0  0  0  0  0  0  0  0
   -4.0295   13.3149  -29.2838 H   0  0  0  0  0  0  0  0  0  0  0  0
   -8.2292    8.3358  -33.9145 H   0  0  0  0  0  0  0  0  0  0  0  0
   -6.8020    7.9182  -34.9663 H   0  0  0  0  0  0  0  0  0  0  0  0
   -6.2018   10.3522  -35.1172 H   0  0  0  0  0  0  0  0  0  0  0  0
   -7.6297   10.7687  -34.0657 H   0  0  0  0  0  0  0  0  0  0  0  0
   -5.2384    8.9322  -33.2853 H   0  0  0  0  0  0  0  0  0  0  0  0
   -6.5869    8.4363  -31.2474 H   0  0  0  0  0  0  0  0  0  0  0  0
   -8.6232    8.8531  -32.1921 H   0  0  0  0  0  0  0  0  0  0  0  0
   -8.4648    9.6449  -30.7728 H   0  0  0  0  0  0  0  0  0  0  0  0
   -7.3180   10.4152  -28.1607 H   0  0  0  0  0  0  0  0  0  0  0  0
  1  5  1  0  0  0  0
  1  6  2  0  0  0  0
  2  3  2  0  0  0  0
  2  4  1  0  0  0  0
  2 10  1  0  0  0  0
  3  6  1  0  0  0  0
  3 12  1  0  0  0  0
  4  5  2  0  0  0  0
  4 13  1  0  0  0  0
  5 14  1  0  0  0  0
  6 15  1  0  0  0  0
  7  8  1  0  0  0  0
  7  9  1  0  0  0  0
  8  9  1  0  0  0  0
  9 10  1  0  0  0  0
 10 11  1  0  0  0  0
  1 16  1  0  0  0  0
  7 17  1  0  0  0  0
  7 18  1  0  0  0  0
  8 19  1  0  0  0  0
  8 20  1  0  0  0  0
  9 21  1  0  0  0  0
 10 22  1  0  0  0  0
 11 23  1  0  0  0  0
 11 24  1  0  0  0  0
 12 25  1  0  0  0  0
M  END
> <id>
EN300-1276994

> <smiles>
NC(C1CC1)C=2C(O)=C(Br)C=C(Cl)C2F

> <IUPAC Name>
2-[amino(cyclopropyl)methyl]-6-bromo-4-chloro-3-fluorophenol

> <CAS>
2169481-22-3

> <URL>
https://www.enaminestore.com/catalog/EN300-1276994

> <ROCS_ShapeQuery>
_x1604L0AP1_x0771L0AP1

> <ROCS_TanimotoCombo>
0.938 

> <ROCS_ShapeTanimoto>
0.610 

> <ROCS_ColorTanimoto>
0.329 

> <ROCS_RefTversky>
0.535 

> <ROCS_RefColorTversky>
0.408 

> <ROCS_RefTverskyCombo>
0.944 

> <ROCS_FitTversky>
1.295 

> <ROCS_FitColorTversky>
0.628 

> <ROCS_FitTverskyCombo>
1.923 

> <ROCS_ColorScore>
-3.885

> <ROCS_Overlap>
899.437

> <ROCS_Rank>
499                 

$$$$
untitled-dbase-1423_10
  -OEChem-06052310023D

 24 24  0     0  0  0  0  0  0999 V2000
   -3.0642   11.9814  -34.4337 C   0  0  0  0  0  0  0  0  0  0  0  0
   -3.1415   12.3972  -33.3095 C   0  0  0  0  0  0  0  0  0  0  0  0
   -4.5831   12.4656  -29.8141 C   0  0  0  0  0  0  0  0  0  0  0  0
   -5.5696   11.7719  -29.1134 C   0  0  0  0  0  0  0  0  0  0  0  0
   -5.0445   11.1375  -31.7788 C   0  0  0  0  0  0  0  0  0  0  0  0
   -4.3205   12.1485  -31.1468 C   0  0  0  0  0  0  0  0  0  0  0  0
   -6.2936   10.7608  -29.7454 C   0  0  0  0  0  0  0  0  0  0  0  0
   -6.0310   10.4437  -31.0781 C   0  0  0  0  0  0  0  0  0  0  0  0
   -3.5933   14.4150  -31.9601 C   0  0  0  0  0  0  0  0  0  0  0  0
   -1.8228   12.7999  -31.2953 C   0  0  0  0  0  0  0  0  0  0  0  0
   -3.2334   12.9133  -31.9176 C   0  0  0  0  0  0  0  0  0  0  0  0
   -7.2498   10.1008  -29.0324 O   0  0  0  0  0  0  0  0  0  0  0  0
   -6.9940    9.0749  -31.9680 Br  0  0  0  0  0  0  0  0  0  0  0  0
   -2.9956   11.6128  -35.4303 H   0  0  0  0  0  0  0  0  0  0  0  0
   -4.0244   13.2516  -29.3126 H   0  0  0  0  0  0  0  0  0  0  0  0
   -5.7686   12.0245  -28.0753 H   0  0  0  0  0  0  0  0  0  0  0  0
   -4.8332   10.8973  -32.8187 H   0  0  0  0  0  0  0  0  0  0  0  0
   -3.6753   14.8528  -30.9584 H   0  0  0  0  0  0  0  0  0  0  0  0
   -4.5595   14.5789  -32.4533 H   0  0  0  0  0  0  0  0  0  0  0  0
   -2.8365   14.9876  -32.5093 H   0  0  0  0  0  0  0  0  0  0  0  0
   -1.8144   13.1654  -30.2605 H   0  0  0  0  0  0  0  0  0  0  0  0
   -1.4720   11.7614  -31.2745 H   0  0  0  0  0  0  0  0  0  0  0  0
   -1.0868   13.3980  -31.8469 H   0  0  0  0  0  0  0  0  0  0  0  0
   -7.6746    9.4276  -29.5864 H   0  0  0  0  0  0  0  0  0  0  0  0
  1  2  3  0  0  0  0
  2 11  1  0  0  0  0
  3  4  1  0  0  0  0
  3  6  2  0  0  0  0
  4  7  2  0  0  0  0
  5  6  1  0  0  0  0
  5  8  2  0  0  0  0
  6 11  1  0  0  0  0
  7  8  1  0  0  0  0
  7 12  1  0  0  0  0
  8 13  1  0  0  0  0
  9 11  1  0  0  0  0
 10 11  1  0  0  0  0
  1 14  1  0  0  0  0
  3 15  1  0  0  0  0
  4 16  1  0  0  0  0
  5 17  1  0  0  0  0
  9 18  1  0  0  0  0
  9 19  1  0  0  0  0
  9 20  1  0  0  0  0
 10 21  1  0  0  0  0
 10 22  1  0  0  0  0
 10 23  1  0  0  0  0
 12 24  1  0  0  0  0
M  END
> <id>
EN300-1906340

> <smiles>
CC(C)(C#C)C=1C=CC(O)=C(Br)C1

> <IUPAC Name>
2-bromo-4-(2-methylbut-3-yn-2-yl)phenol

> <CAS>
2228385-81-5

> <URL>
https://www.enaminestore.com/catalog/EN300-1906340

> <ROCS_ShapeQuery>
_x1604L0AP1_x0771L0AP1

> <ROCS_TanimotoCombo>
0.938 

> <ROCS_ShapeTanimoto>
0.488 

> <ROCS_ColorTanimoto>
0.451 

> <ROCS_RefTversky>
0.446 

> <ROCS_RefColorTversky>
0.513 

> <ROCS_RefTverskyCombo>
0.958 

> <ROCS_FitTversky>
1.238 

> <ROCS_FitColorTversky>
0.789 

> <ROCS_FitTverskyCombo>
2.027 

> <ROCS_ColorScore>
-4.877

> <ROCS_Overlap>
746.975

> <ROCS_Rank>
500                 

$$$$
