x1498_0A§1
     RDKit          3D

  7  7  0  0  0  0  0  0  0  0999 V2000
   -5.6760   11.4090  -29.8020 N   0  0  0  0  0  0  0  0  0  0  0  0
   -6.5010   10.3800  -30.1470 C   0  0  0  0  0  0  0  0  0  0  0  0
   -7.1160    9.7560  -29.1800 O   0  0  0  0  0  0  0  0  0  0  0  0
   -6.7610   10.0140  -31.4690 C   0  0  0  0  0  0  0  0  0  0  0  0
   -6.1610   10.7590  -32.4710 C   0  0  0  0  0  0  0  0  0  0  0  0
   -5.3260   11.8150  -32.1470 C   0  0  0  0  0  0  0  0  0  0  0  0
   -5.1130   12.0970  -30.8080 C   0  0  0  0  0  0  0  0  0  0  0  0
  1  2  2  0
  1  7  1  0
  2  3  1  0
  2  4  1  0
  4  5  2  0
  5  6  1  0
  6  7  2  0
A    1
 N  
A    2
 C  
A    3
 O  
A    4
 C1 
A    5
 C2 
A    6
 C3 
A    7
 C4 
M  END
>  <XChem_code>  (1) 
D68EV3CPROA-x1498

>  <Occupancy>  (1) 
[0.88, 0.88, 0.88, 0.88, 0.88, 0.88, 0.88]

>  <TempFactor>  (1) 
[42.68, 37.56, 35.8, 40.47, 43.12, 43.66, 44.2]

>  <RealCrystalName>  (1) 
D68EV3CPROA-x1498

>  <smiles>  (1) 
OC=1C=CC=CN1

>  <new_smiles>  (1) 
OC=1C=CC=CN1

>  <alternate_name>  (1) 
Z1741982125

>  <site_name>  (1) 
1

>  <pdb_entry>  (1) 
nan

>  <mol>  (1) 
<rdkit.Chem.rdchem.Mol object at 0x13a26d1c0>

>  <single_smiles>  (1) 
Oc1ccccn1

>  <base_name>  (1) 
D68EV3CPROA-x1498_0A

>  <lig_resn>  (1) 
LIG

>  <lig_resi>  (1) 
201

>  <lig_chain>  (1) 
A

>  <lig_segi>  (1) 


>  <lig_alt>  (1) 


>  <polymer_chain>  (1) 
A

$$$$
x1498_0A§2
     RDKit          3D

  7  7  0  0  0  0  0  0  0  0999 V2000
  -18.2580   19.9450  -20.8390 N   0  0  0  0  0  0  0  0  0  0  0  0
  -19.3030   19.1730  -21.2740 C   0  0  0  0  0  0  0  0  0  0  0  0
  -19.7950   18.2350  -20.4300 O   0  0  0  0  0  0  0  0  0  0  0  0
  -19.8620   19.3270  -22.5430 C   0  0  0  0  0  0  0  0  0  0  0  0
  -19.3240   20.2810  -23.3900 C   0  0  0  0  0  0  0  0  0  0  0  0
  -18.2770   21.0700  -22.9690 C   0  0  0  0  0  0  0  0  0  0  0  0
  -17.7820   20.8710  -21.6940 C   0  0  0  0  0  0  0  0  0  0  0  0
  1  2  2  0
  1  7  1  0
  2  3  1  0
  2  4  1  0
  4  5  2  0
  5  6  1  0
  6  7  2  0
A    1
 N  
A    2
 C  
A    3
 O  
A    4
 C1 
A    5
 C2 
A    6
 C3 
A    7
 C4 
M  END
>  <XChem_code>  (2) 
D68EV3CPROA-x1498

>  <Occupancy>  (2) 
[0.88, 0.88, 0.88, 0.88, 0.88, 0.88, 0.88]

>  <TempFactor>  (2) 
[53.3, 52.52, 51.54, 47.0, 49.42, 50.99, 52.44]

>  <RealCrystalName>  (2) 
D68EV3CPROA-x1498

>  <smiles>  (2) 
OC=1C=CC=CN1

>  <new_smiles>  (2) 
OC=1C=CC=CN1

>  <alternate_name>  (2) 
Z1741982125

>  <site_name>  (2) 
1

>  <pdb_entry>  (2) 
nan

>  <mol>  (2) 
<rdkit.Chem.rdchem.Mol object at 0x13a26d1c0>

>  <single_smiles>  (2) 
Oc1ccccn1

>  <base_name>  (2) 
D68EV3CPROA-x1498_0A

>  <lig_resn>  (2) 
LIG

>  <lig_resi>  (2) 
201

>  <lig_chain>  (2) 
B

>  <lig_segi>  (2) 


>  <lig_alt>  (2) 


>  <polymer_chain>  (2) 
B

$$$$
x0771_1A§1
     RDKit          3D

 12 13  0  0  0  0  0  0  0  0999 V2000
   -5.6790   11.9310  -29.3990 N   0  0  0  0  0  0  0  0  0  0  0  0
   -6.3840   10.8960  -29.8420 C   0  0  0  0  0  0  0  0  0  0  0  0
   -6.9430   10.0880  -29.0820 O   0  0  0  0  0  0  0  0  0  0  0  0
   -6.5020   10.7170  -31.3270 C   0  0  0  0  0  0  0  0  0  0  0  0
   -6.7520   10.0160  -35.4110 N   0  0  0  0  0  0  0  0  0  0  0  0
   -6.5570   11.8360  -32.1720 C   0  0  0  0  0  0  0  0  0  0  0  0
   -6.6430   11.6880  -33.5490 C   0  0  0  0  0  0  0  0  0  0  0  0
   -6.6470   10.3990  -34.0790 C   0  0  0  0  0  0  0  0  0  0  0  0
   -6.3200    8.6230  -35.5550 C   0  0  0  0  0  0  0  0  0  0  0  0
   -6.4470    8.0560  -34.1300 C   0  0  0  0  0  0  0  0  0  0  0  0
   -6.5640    9.2800  -33.2630 C   0  0  0  0  0  0  0  0  0  0  0  0
   -6.5210    9.4400  -31.8850 C   0  0  0  0  0  0  0  0  0  0  0  0
  1  2  1  0
  2  3  2  0
  2  4  1  0
  4  6  2  0
  4 12  1  0
  5  8  1  0
  5  9  1  0
  6  7  1  0
  7  8  2  0
  8 11  1  0
  9 10  1  0
 10 11  1  0
 11 12  2  0
A    1
 N  
A    2
 C  
A    3
 O  
A    4
 C1 
A    5
 N1 
A    6
 C2 
A    7
 C3 
A    8
 C4 
A    9
 C5 
A   10
 C6 
A   11
 C7 
A   12
 C8 
M  END
>  <XChem_code>  (3) 
D68EV3CPROA-x0771

>  <Occupancy>  (3) 
[0.64, 0.64, 0.64, 0.64, 0.64, 0.64, 0.64, 0.64, 0.64, 0.64, 0.64, 0.64]

>  <TempFactor>  (3) 
[49.02, 50.98, 46.17, 54.1, 60.3, 56.33, 58.38, 60.28, 61.4, 60.15, 59.84, 57.61]

>  <RealCrystalName>  (3) 
D68EV3CPROA-x0771

>  <smiles>  (3) 
Cl.NC(=O)c1ccc2NCCc2c1

>  <new_smiles>  (3) 
Cl.NC(=O)c1ccc2NCCc2c1

>  <alternate_name>  (3) 
Z1696091761

>  <site_name>  (3) 
3

>  <pdb_entry>  (3) 
nan

>  <mol>  (3) 
<rdkit.Chem.rdchem.Mol object at 0x13a1a3680>

>  <single_smiles>  (3) 
NC(=O)c1ccc2c(c1)CCN2

>  <base_name>  (3) 
D68EV3CPROA-x0771_1A

>  <lig_resn>  (3) 
LIG

>  <lig_resi>  (3) 
301

>  <lig_chain>  (3) 
A

>  <lig_segi>  (3) 


>  <lig_alt>  (3) 


>  <polymer_chain>  (3) 
A

$$$$
x0980_0B§1
     RDKit          3D

 17 18  0  0  0  0  0  0  0  0999 V2000
   -4.3660   13.8820  -31.0770 N   0  0  0  0  0  0  0  0  0  0  0  0
   -2.8990   13.8130  -33.5730 C   0  0  0  0  0  0  0  0  0  0  0  0
   -2.8790   12.5190  -30.0510 O   0  0  0  0  0  0  0  0  0  0  0  0
   -2.7490   14.9250  -32.5660 C   0  0  0  0  0  0  0  0  0  0  0  0
   -7.1710    9.9370  -29.6620 N   0  0  0  0  0  0  0  0  0  0  0  0
   -1.8480   15.9640  -32.7910 C   0  0  0  0  0  0  0  0  0  0  0  0
   -1.6300   16.9590  -31.8560 C   0  0  0  0  0  0  0  0  0  0  0  0
   -2.3440   16.9140  -30.6860 C   0  0  0  0  0  0  0  0  0  0  0  0
   -3.2680   15.9380  -30.4090 C   0  0  0  0  0  0  0  0  0  0  0  0
   -3.4680   14.9320  -31.3550 C   0  0  0  0  0  0  0  0  0  0  0  0
   -4.0230   12.7490  -30.4300 C   0  0  0  0  0  0  0  0  0  0  0  0
   -5.1320   11.7810  -30.1740 C   0  0  0  0  0  0  0  0  0  0  0  0
   -5.8670   11.2200  -31.2140 C   0  0  0  0  0  0  0  0  0  0  0  0
   -6.8630   10.3130  -30.9100 C   0  0  0  0  0  0  0  0  0  0  0  0
   -6.4560   10.4850  -28.6720 C   0  0  0  0  0  0  0  0  0  0  0  0
   -5.4400   11.4000  -28.8740 C   0  0  0  0  0  0  0  0  0  0  0  0
   -2.1100   17.8670  -29.7410 F   0  0  0  0  0  0  0  0  0  0  0  0
  1 10  1  0
  1 11  1  0
  2  4  1  0
  3 11  2  0
  4  6  2  0
  4 10  1  0
  5 14  2  0
  5 15  1  0
  6  7  1  0
  7  8  2  0
  8  9  1  0
  8 17  1  0
  9 10  2  0
 11 12  1  0
 12 13  2  0
 12 16  1  0
 13 14  1  0
 15 16  2  0
A    1
 N  
A    2
 C  
A    3
 O  
A    4
 C1 
A    5
 N1 
A    6
 C2 
A    7
 C3 
A    8
 C4 
A    9
 C5 
A   10
 C6 
A   11
 C7 
A   12
 C8 
A   13
 C9 
A   14
 C10
A   15
 C11
A   16
 C12
A   17
 F  
M  END
>  <XChem_code>  (4) 
D68EV3CPROA-x0980

>  <Occupancy>  (4) 
[0.62, 0.62, 0.62, 0.62, 0.62, 0.62, 0.62, 0.62, 0.62, 0.62, 0.62, 0.62, 0.62, 0.62, 0.62, 0.62, 0.62]

>  <TempFactor>  (4) 
[63.79, 74.68, 53.61, 73.53, 45.77, 75.37, 78.48, 80.64, 76.38, 71.86, 57.46, 53.08, 49.42, 49.52, 51.16, 51.21, 87.9]

>  <RealCrystalName>  (4) 
D68EV3CPROA-x0980

>  <smiles>  (4) 
Cc1ccc(F)cc1NC(=O)c2ccncc2

>  <new_smiles>  (4) 
Cc1ccc(F)cc1NC(=O)c2ccncc2

>  <alternate_name>  (4) 
Z30904160

>  <site_name>  (4) 
1

>  <pdb_entry>  (4) 
nan

>  <mol>  (4) 
<rdkit.Chem.rdchem.Mol object at 0x13a1a3d10>

>  <single_smiles>  (4) 
Cc1ccc(F)cc1NC(=O)c1ccncc1

>  <base_name>  (4) 
D68EV3CPROA-x0980_0B

>  <lig_resn>  (4) 
LIG

>  <lig_resi>  (4) 
201

>  <lig_chain>  (4) 
B

>  <lig_segi>  (4) 


>  <lig_alt>  (4) 


>  <polymer_chain>  (4) 
B

$$$$
x0147_0A§1
     RDKit          3D

  9 10  0  0  0  0  0  0  0  0999 V2000
   -7.2300    9.6790  -30.3200 N   0  0  0  0  0  0  0  0  0  0  0  0
   -6.6340   10.0970  -31.4020 C   0  0  0  0  0  0  0  0  0  0  0  0
   -5.8950   11.3220  -29.7400 C   0  0  0  0  0  0  0  0  0  0  0  0
   -6.7690   10.4490  -29.2520 N   0  0  0  0  0  0  0  0  0  0  0  0
   -5.0960   12.3520  -29.1780 C   0  0  0  0  0  0  0  0  0  0  0  0
   -4.2700   13.0910  -29.8760 N   0  0  0  0  0  0  0  0  0  0  0  0
   -4.1850   12.8380  -31.2230 C   0  0  0  0  0  0  0  0  0  0  0  0
   -5.7810   11.1200  -31.1120 N   0  0  0  0  0  0  0  0  0  0  0  0
   -4.9040   11.8930  -31.8620 C   0  0  0  0  0  0  0  0  0  0  0  0
  1  2  2  0
  1  4  1  0
  2  8  1  0
  3  4  2  0
  3  5  1  0
  3  8  1  0
  5  6  2  0
  6  7  1  0
  7  9  2  0
  8  9  1  0
A    1
 N  
A    2
 C  
A    3
 C1 
A    4
 N1 
A    5
 C2 
A    6
 N2 
A    7
 C3 
A    8
 N3 
A    9
 C4 
M  END
>  <XChem_code>  (5) 
D68EV3CPROA-x0147

>  <Occupancy>  (5) 
[0.66, 0.66, 0.66, 0.66, 0.66, 0.66, 0.66, 0.66, 0.66]

>  <TempFactor>  (5) 
[40.37, 43.04, 42.99, 41.58, 44.34, 44.94, 44.77, 45.02, 45.86]

>  <RealCrystalName>  (5) 
D68EV3CPROA-x0147

>  <smiles>  (5) 
c1nnc2cnccn12

>  <new_smiles>  (5) 
c1nnc2cnccn12

>  <alternate_name>  (5) 
Z1182328459

>  <site_name>  (5) 
1

>  <pdb_entry>  (5) 
nan

>  <mol>  (5) 
<rdkit.Chem.rdchem.Mol object at 0x13a1a2d50>

>  <single_smiles>  (5) 
c1cn2cnnc2cn1

>  <base_name>  (5) 
D68EV3CPROA-x0147_0A

>  <lig_resn>  (5) 
LIG

>  <lig_resi>  (5) 
201

>  <lig_chain>  (5) 
A

>  <lig_segi>  (5) 


>  <lig_alt>  (5) 


>  <polymer_chain>  (5) 
A

$$$$
x1285_0B§1
     RDKit          3D

 13 14  0  0  0  0  0  0  0  0999 V2000
  -10.6520   19.6760  -30.1380 N   0  0  0  0  0  0  0  0  0  0  0  0
   -9.9820   17.1800  -31.2410 C   0  0  0  0  0  0  0  0  0  0  0  0
  -10.9250   16.5330  -30.3940 O   0  0  0  0  0  0  0  0  0  0  0  0
  -10.6930   18.1730  -32.1210 C   0  0  0  0  0  0  0  0  0  0  0  0
  -11.4430   19.1980  -31.2830 C   0  0  0  0  0  0  0  0  0  0  0  0
  -10.8780   21.1100  -29.9290 C   0  0  0  0  0  0  0  0  0  0  0  0
  -11.3020   21.5050  -28.5370 C   0  0  0  0  0  0  0  0  0  0  0  0
  -11.2000   22.8270  -27.9980 C   0  0  0  0  0  0  0  0  0  0  0  0
  -11.6850   22.9370  -26.7200 C   0  0  0  0  0  0  0  0  0  0  0  0
  -11.8630   20.6350  -27.6410 C   0  0  0  0  0  0  0  0  0  0  0  0
   -9.2200   19.3860  -30.3540 C   0  0  0  0  0  0  0  0  0  0  0  0
   -8.9480   17.8850  -30.4010 C   0  0  0  0  0  0  0  0  0  0  0  0
  -12.2700   21.3910  -26.1670 S   0  0  0  0  0  0  0  0  0  0  0  0
  1  5  1  0
  1  6  1  0
  1 11  1  0
  2  3  1  0
  2  4  1  0
  2 12  1  0
  4  5  1  0
  6  7  1  0
  7  8  1  0
  7 10  2  0
  8  9  2  0
  9 13  1  0
 10 13  1  0
 11 12  1  0
A    1
 N  
A    2
 C  
A    3
 O  
A    4
 C1 
A    5
 C2 
A    6
 C3 
A    7
 C4 
A    8
 C5 
A    9
 C6 
A   10
 C7 
A   11
 C8 
A   12
 C9 
A   13
 S  
M  END
>  <XChem_code>  (6) 
D68EV3CPROA-x1285

>  <Occupancy>  (6) 
[0.98, 0.98, 0.98, 0.98, 0.98, 0.98, 0.98, 0.98, 0.98, 0.98, 0.98, 0.98, 0.98]

>  <TempFactor>  (6) 
[62.92, 53.85, 55.84, 55.42, 59.07, 67.89, 75.42, 75.35, 79.39, 78.53, 58.69, 54.38, 86.51]

>  <RealCrystalName>  (6) 
D68EV3CPROA-x1285

>  <smiles>  (6) 
OC1CCN(Cc2ccsc2)CC1

>  <new_smiles>  (6) 
OC1CCN(Cc2ccsc2)CC1

>  <alternate_name>  (6) 
Z905434478

>  <site_name>  (6) 
5

>  <pdb_entry>  (6) 
nan

>  <mol>  (6) 
<rdkit.Chem.rdchem.Mol object at 0x13a26c970>

>  <single_smiles>  (6) 
OC1CCN(Cc2ccsc2)CC1

>  <base_name>  (6) 
D68EV3CPROA-x1285_0B

>  <lig_resn>  (6) 
LIG

>  <lig_resi>  (6) 
301

>  <lig_chain>  (6) 
B

>  <lig_segi>  (6) 


>  <lig_alt>  (6) 


>  <polymer_chain>  (6) 
B

$$$$
x1498_1B§1
     RDKit          3D

  7  7  0  0  0  0  0  0  0  0999 V2000
   -5.6770   11.4110  -29.8030 N   0  0  0  0  0  0  0  0  0  0  0  0
   -6.5030   10.3810  -30.1480 C   0  0  0  0  0  0  0  0  0  0  0  0
   -7.1170    9.7570  -29.1810 O   0  0  0  0  0  0  0  0  0  0  0  0
   -6.7630   10.0140  -31.4690 C   0  0  0  0  0  0  0  0  0  0  0  0
   -6.1620   10.7610  -32.4710 C   0  0  0  0  0  0  0  0  0  0  0  0
   -5.3280   11.8160  -32.1480 C   0  0  0  0  0  0  0  0  0  0  0  0
   -5.1140   12.0970  -30.8080 C   0  0  0  0  0  0  0  0  0  0  0  0
  1  2  2  0
  1  7  1  0
  2  3  1  0
  2  4  1  0
  4  5  2  0
  5  6  1  0
  6  7  2  0
A    1
 N  
A    2
 C  
A    3
 O  
A    4
 C1 
A    5
 C2 
A    6
 C3 
A    7
 C4 
M  END
>  <XChem_code>  (7) 
D68EV3CPROA-x1498

>  <Occupancy>  (7) 
[0.88, 0.88, 0.88, 0.88, 0.88, 0.88, 0.88]

>  <TempFactor>  (7) 
[42.68, 37.56, 35.8, 40.47, 43.12, 43.66, 44.2]

>  <RealCrystalName>  (7) 
D68EV3CPROA-x1498

>  <smiles>  (7) 
OC=1C=CC=CN1

>  <new_smiles>  (7) 
OC=1C=CC=CN1

>  <alternate_name>  (7) 
Z1741982125

>  <site_name>  (7) 
5

>  <pdb_entry>  (7) 
nan

>  <mol>  (7) 
<rdkit.Chem.rdchem.Mol object at 0x13a26d2a0>

>  <single_smiles>  (7) 
Oc1ccccn1

>  <base_name>  (7) 
D68EV3CPROA-x1498_1B

>  <lig_resn>  (7) 
LIG

>  <lig_resi>  (7) 
201

>  <lig_chain>  (7) 
A

>  <lig_segi>  (7) 


>  <lig_alt>  (7) 


>  <polymer_chain>  (7) 
A

$$$$
x1498_1B§2
     RDKit          3D

  7  7  0  0  0  0  0  0  0  0999 V2000
  -18.2570   19.9470  -20.8410 N   0  0  0  0  0  0  0  0  0  0  0  0
  -19.3030   19.1750  -21.2760 C   0  0  0  0  0  0  0  0  0  0  0  0
  -19.7950   18.2360  -20.4320 O   0  0  0  0  0  0  0  0  0  0  0  0
  -19.8620   19.3290  -22.5450 C   0  0  0  0  0  0  0  0  0  0  0  0
  -19.3230   20.2830  -23.3930 C   0  0  0  0  0  0  0  0  0  0  0  0
  -18.2760   21.0720  -22.9710 C   0  0  0  0  0  0  0  0  0  0  0  0
  -17.7810   20.8730  -21.6970 C   0  0  0  0  0  0  0  0  0  0  0  0
  1  2  2  0
  1  7  1  0
  2  3  1  0
  2  4  1  0
  4  5  2  0
  5  6  1  0
  6  7  2  0
A    1
 N  
A    2
 C  
A    3
 O  
A    4
 C1 
A    5
 C2 
A    6
 C3 
A    7
 C4 
M  END
>  <XChem_code>  (8) 
D68EV3CPROA-x1498

>  <Occupancy>  (8) 
[0.88, 0.88, 0.88, 0.88, 0.88, 0.88, 0.88]

>  <TempFactor>  (8) 
[53.3, 52.52, 51.54, 47.0, 49.42, 50.99, 52.44]

>  <RealCrystalName>  (8) 
D68EV3CPROA-x1498

>  <smiles>  (8) 
OC=1C=CC=CN1

>  <new_smiles>  (8) 
OC=1C=CC=CN1

>  <alternate_name>  (8) 
Z1741982125

>  <site_name>  (8) 
5

>  <pdb_entry>  (8) 
nan

>  <mol>  (8) 
<rdkit.Chem.rdchem.Mol object at 0x13a26d2a0>

>  <single_smiles>  (8) 
Oc1ccccn1

>  <base_name>  (8) 
D68EV3CPROA-x1498_1B

>  <lig_resn>  (8) 
LIG

>  <lig_resi>  (8) 
201

>  <lig_chain>  (8) 
B

>  <lig_segi>  (8) 


>  <lig_alt>  (8) 


>  <polymer_chain>  (8) 
B

$$$$
x1594_0A§1
     RDKit          3D

 10 11  0  0  0  0  0  0  0  0999 V2000
   -6.8740    9.8340  -32.5350 N   0  0  0  0  0  0  0  0  0  0  0  0
   -6.6660   10.2800  -31.2910 C   0  0  0  0  0  0  0  0  0  0  0  0
   -5.8820   11.4760  -29.6270 C   0  0  0  0  0  0  0  0  0  0  0  0
   -7.1990    9.8070  -30.1740 N   0  0  0  0  0  0  0  0  0  0  0  0
   -5.0830   12.4690  -29.0140 C   0  0  0  0  0  0  0  0  0  0  0  0
   -6.7030   10.5680  -29.1130 N   0  0  0  0  0  0  0  0  0  0  0  0
   -4.2680   13.2420  -29.7830 C   0  0  0  0  0  0  0  0  0  0  0  0
   -5.8120   11.3450  -31.0120 N   0  0  0  0  0  0  0  0  0  0  0  0
   -4.2110   13.0710  -31.1840 C   0  0  0  0  0  0  0  0  0  0  0  0
   -4.9820   12.1370  -31.7840 C   0  0  0  0  0  0  0  0  0  0  0  0
  1  2  1  0
  2  4  2  0
  2  8  1  0
  3  5  1  0
  3  6  2  0
  3  8  1  0
  4  6  1  0
  5  7  2  0
  7  9  1  0
  8 10  1  0
  9 10  2  0
A    1
 N  
A    2
 C  
A    3
 C1 
A    4
 N1 
A    5
 C2 
A    6
 N2 
A    7
 C3 
A    8
 N3 
A    9
 C4 
A   10
 C5 
M  END
>  <XChem_code>  (9) 
D68EV3CPROA-x1594

>  <Occupancy>  (9) 
[0.66, 0.66, 0.66, 0.66, 0.66, 0.66, 0.66, 0.66, 0.66, 0.66]

>  <TempFactor>  (9) 
[32.44, 31.86, 32.44, 29.37, 32.27, 30.89, 34.56, 32.15, 34.73, 34.07]

>  <RealCrystalName>  (9) 
D68EV3CPROA-x1594

>  <smiles>  (9) 
NC1=NN=C2C=CC=CN12

>  <new_smiles>  (9) 
NC1=NN=C2C=CC=CN12

>  <alternate_name>  (9) 
Z362020366

>  <site_name>  (9) 
1

>  <pdb_entry>  (9) 
nan

>  <mol>  (9) 
<rdkit.Chem.rdchem.Mol object at 0x13a26d930>

>  <single_smiles>  (9) 
Nc1nnc2ccccn12

>  <base_name>  (9) 
D68EV3CPROA-x1594_0A

>  <lig_resn>  (9) 
LIG

>  <lig_resi>  (9) 
201

>  <lig_chain>  (9) 
A

>  <lig_segi>  (9) 


>  <lig_alt>  (9) 


>  <polymer_chain>  (9) 
A

$$$$
x1537_0A§1
     RDKit          3D

  6  6  0  0  0  0  0  0  0  0999 V2000
   -6.1610   11.4540  -31.1560 N   0  0  0  0  0  0  0  0  0  0  0  0
   -5.0770   12.6190  -29.2410 C   0  0  0  0  0  0  0  0  0  0  0  0
   -6.0060   11.6350  -29.8650 C   0  0  0  0  0  0  0  0  0  0  0  0
   -7.0430   10.4260  -31.2910 N   0  0  0  0  0  0  0  0  0  0  0  0
   -7.4280    9.9910  -30.1340 N   0  0  0  0  0  0  0  0  0  0  0  0
   -6.7910   10.7450  -29.2200 N   0  0  0  0  0  0  0  0  0  0  0  0
  1  3  2  0
  1  4  1  0
  2  3  1  0
  3  6  1  0
  4  5  2  0
  5  6  1  0
A    1
 N  
A    2
 C  
A    3
 C1 
A    4
 N1 
A    5
 N2 
A    6
 N3 
M  END
>  <XChem_code>  (10) 
D68EV3CPROA-x1537

>  <Occupancy>  (10) 
[0.67, 0.67, 0.67, 0.67, 0.67, 0.67]

>  <TempFactor>  (10) 
[19.84, 19.74, 18.86, 19.5, 17.53, 18.3]

>  <RealCrystalName>  (10) 
D68EV3CPROA-x1537

>  <smiles>  (10) 
CC1=NN=NN1

>  <new_smiles>  (10) 
CC1=NN=NN1

>  <alternate_name>  (10) 
Z56761437

>  <site_name>  (10) 
1

>  <pdb_entry>  (10) 
nan

>  <mol>  (10) 
<rdkit.Chem.rdchem.Mol object at 0x13a26d3f0>

>  <single_smiles>  (10) 
Cc1nnn[nH]1

>  <base_name>  (10) 
D68EV3CPROA-x1537_0A

>  <lig_resn>  (10) 
LIG

>  <lig_resi>  (10) 
201

>  <lig_chain>  (10) 
A

>  <lig_segi>  (10) 


>  <lig_alt>  (10) 


>  <polymer_chain>  (10) 
A

$$$$
x1604_0A§1
     RDKit          3D

 15 16  0  0  0  0  0  0  0  0999 V2000
   -2.2250   15.0480  -29.0690 C   0  0  0  0  0  0  0  0  0  0  0  0
   -2.5240   13.6820  -31.0050 O   0  0  0  0  0  0  0  0  0  0  0  0
   -3.2430   14.3520  -29.9410 C   0  0  0  0  0  0  0  0  0  0  0  0
   -2.7250   12.4690  -32.8290 O   0  0  0  0  0  0  0  0  0  0  0  0
   -4.2730   15.2990  -30.5210 C   0  0  0  0  0  0  0  0  0  0  0  0
   -7.3450   10.1200  -29.0680 O   0  0  0  0  0  0  0  0  0  0  0  0
   -3.1620   12.7220  -31.7330 C   0  0  0  0  0  0  0  0  0  0  0  0
   -3.9100   13.3750  -29.1090 O   0  0  0  0  0  0  0  0  0  0  0  0
   -4.3010   12.0730  -31.0890 C   0  0  0  0  0  0  0  0  0  0  0  0
   -5.0350   11.0750  -31.7270 C   0  0  0  0  0  0  0  0  0  0  0  0
   -6.0580   10.4410  -31.0390 C   0  0  0  0  0  0  0  0  0  0  0  0
   -6.3750   10.7900  -29.7310 C   0  0  0  0  0  0  0  0  0  0  0  0
   -5.6600   11.8040  -29.1130 C   0  0  0  0  0  0  0  0  0  0  0  0
   -4.6330   12.4240  -29.7900 C   0  0  0  0  0  0  0  0  0  0  0  0
   -7.0310    9.0590  -31.8950 Br  0  0  0  0  0  0  0  0  0  0  0  0
  3  1  1  0
  2  3  1  0
  2  7  1  0
  3  5  1  0
  3  8  1  0
  4  7  2  0
  6 12  1  0
  7  9  1  0
  8 14  1  0
  9 10  2  0
  9 14  1  0
 10 11  1  0
 11 12  2  0
 11 15  1  0
 12 13  1  0
 13 14  2  0
A    1
 C  
A    2
 O  
A    3
 C1 
A    4
 O1 
A    5
 C2 
A    6
 O2 
A    7
 C3 
A    8
 O3 
A    9
 C4 
A   10
 C5 
A   11
 C6 
A   12
 C7 
A   13
 C8 
A   14
 C9 
A   15
BR  
M  END
>  <XChem_code>  (11) 
D68EV3CPROA-x1604

>  <Occupancy>  (11) 
[0.7, 0.7, 0.7, 0.7, 0.7, 0.7, 0.7, 0.7, 0.7, 0.7, 0.7, 0.7, 0.7, 0.7, 0.7]

>  <TempFactor>  (11) 
[72.3, 77.66, 74.79, 71.79, 72.05, 62.52, 75.7, 75.21, 75.25, 76.05, 72.74, 67.77, 70.53, 72.83, 84.1]

>  <RealCrystalName>  (11) 
D68EV3CPROA-x1604

>  <smiles>  (11) 
CC1(C)OC(=O)C=2C=C(Br)C(O)=CC2O1

>  <new_smiles>  (11) 
CC1(C)OC(=O)C=2C=C(Br)C(O)=CC2O1

>  <alternate_name>  (11) 
Z1509711879

>  <site_name>  (11) 
1

>  <pdb_entry>  (11) 
nan

>  <mol>  (11) 
<rdkit.Chem.rdchem.Mol object at 0x13a26da10>

>  <single_smiles>  (11) 
CC1(C)OC(=O)c2cc(Br)c(O)cc2O1

>  <base_name>  (11) 
D68EV3CPROA-x1604_0A

>  <lig_resn>  (11) 
LIG

>  <lig_resi>  (11) 
201

>  <lig_chain>  (11) 
A

>  <lig_segi>  (11) 


>  <lig_alt>  (11) 


>  <polymer_chain>  (11) 
A

$$$$
x1498_0B§1
     RDKit          3D

  7  7  0  0  0  0  0  0  0  0999 V2000
   -5.6770   11.4110  -29.8030 N   0  0  0  0  0  0  0  0  0  0  0  0
   -6.5030   10.3810  -30.1480 C   0  0  0  0  0  0  0  0  0  0  0  0
   -7.1170    9.7570  -29.1810 O   0  0  0  0  0  0  0  0  0  0  0  0
   -6.7630   10.0140  -31.4690 C   0  0  0  0  0  0  0  0  0  0  0  0
   -6.1620   10.7610  -32.4710 C   0  0  0  0  0  0  0  0  0  0  0  0
   -5.3280   11.8160  -32.1480 C   0  0  0  0  0  0  0  0  0  0  0  0
   -5.1140   12.0970  -30.8080 C   0  0  0  0  0  0  0  0  0  0  0  0
  1  2  2  0
  1  7  1  0
  2  3  1  0
  2  4  1  0
  4  5  2  0
  5  6  1  0
  6  7  2  0
A    1
 N  
A    2
 C  
A    3
 O  
A    4
 C1 
A    5
 C2 
A    6
 C3 
A    7
 C4 
M  END
>  <XChem_code>  (12) 
D68EV3CPROA-x1498

>  <Occupancy>  (12) 
[0.88, 0.88, 0.88, 0.88, 0.88, 0.88, 0.88]

>  <TempFactor>  (12) 
[42.68, 37.56, 35.8, 40.47, 43.12, 43.66, 44.2]

>  <RealCrystalName>  (12) 
D68EV3CPROA-x1498

>  <smiles>  (12) 
OC=1C=CC=CN1

>  <new_smiles>  (12) 
OC=1C=CC=CN1

>  <alternate_name>  (12) 
Z1741982125

>  <site_name>  (12) 
5

>  <pdb_entry>  (12) 
nan

>  <mol>  (12) 
<rdkit.Chem.rdchem.Mol object at 0x13a26d230>

>  <single_smiles>  (12) 
Oc1ccccn1

>  <base_name>  (12) 
D68EV3CPROA-x1498_0B

>  <lig_resn>  (12) 
LIG

>  <lig_resi>  (12) 
201

>  <lig_chain>  (12) 
A

>  <lig_segi>  (12) 


>  <lig_alt>  (12) 


>  <polymer_chain>  (12) 
A

$$$$
x1498_0B§2
     RDKit          3D

  7  7  0  0  0  0  0  0  0  0999 V2000
  -18.2570   19.9470  -20.8410 N   0  0  0  0  0  0  0  0  0  0  0  0
  -19.3030   19.1750  -21.2760 C   0  0  0  0  0  0  0  0  0  0  0  0
  -19.7950   18.2360  -20.4320 O   0  0  0  0  0  0  0  0  0  0  0  0
  -19.8620   19.3290  -22.5450 C   0  0  0  0  0  0  0  0  0  0  0  0
  -19.3230   20.2830  -23.3930 C   0  0  0  0  0  0  0  0  0  0  0  0
  -18.2760   21.0720  -22.9710 C   0  0  0  0  0  0  0  0  0  0  0  0
  -17.7810   20.8730  -21.6970 C   0  0  0  0  0  0  0  0  0  0  0  0
  1  2  2  0
  1  7  1  0
  2  3  1  0
  2  4  1  0
  4  5  2  0
  5  6  1  0
  6  7  2  0
A    1
 N  
A    2
 C  
A    3
 O  
A    4
 C1 
A    5
 C2 
A    6
 C3 
A    7
 C4 
M  END
>  <XChem_code>  (13) 
D68EV3CPROA-x1498

>  <Occupancy>  (13) 
[0.88, 0.88, 0.88, 0.88, 0.88, 0.88, 0.88]

>  <TempFactor>  (13) 
[53.3, 52.52, 51.54, 47.0, 49.42, 50.99, 52.44]

>  <RealCrystalName>  (13) 
D68EV3CPROA-x1498

>  <smiles>  (13) 
OC=1C=CC=CN1

>  <new_smiles>  (13) 
OC=1C=CC=CN1

>  <alternate_name>  (13) 
Z1741982125

>  <site_name>  (13) 
5

>  <pdb_entry>  (13) 
nan

>  <mol>  (13) 
<rdkit.Chem.rdchem.Mol object at 0x13a26d230>

>  <single_smiles>  (13) 
Oc1ccccn1

>  <base_name>  (13) 
D68EV3CPROA-x1498_0B

>  <lig_resn>  (13) 
LIG

>  <lig_resi>  (13) 
201

>  <lig_chain>  (13) 
B

>  <lig_segi>  (13) 


>  <lig_alt>  (13) 


>  <polymer_chain>  (13) 
B

$$$$
x0789_0A§1
     RDKit          3D

 14 15  0  0  0  0  0  0  0  0999 V2000
   -5.0840   12.5720  -31.8370 N   0  0  0  0  0  0  0  0  0  0  0  0
   -2.2140   12.6440  -32.8890 C   0  0  0  0  0  0  0  0  0  0  0  0
   -3.2670   15.7120  -32.3610 O   0  0  0  0  0  0  0  0  0  0  0  0
   -3.0400   13.7050  -33.6190 C   0  0  2  0  0  0  0  0  0  0  0  0
   -6.3400   10.6340  -29.0490 N   0  0  0  0  0  0  0  0  0  0  0  0
   -4.5700   14.3130  -30.4410 O   0  0  0  0  0  0  0  0  0  0  0  0
   -2.1950   14.7940  -34.2650 C   0  0  0  0  0  0  0  0  0  0  0  0
   -6.8740    9.8470  -29.9140 N   0  0  0  0  0  0  0  0  0  0  0  0
   -2.0740   15.8090  -33.1560 C   0  0  0  0  0  0  0  0  0  0  0  0
   -4.0140   14.5500  -32.7700 C   0  0  1  0  0  0  0  0  0  0  0  0
   -4.5740   13.8060  -31.5620 C   0  0  0  0  0  0  0  0  0  0  0  0
   -5.6560   11.7000  -30.9130 C   0  0  0  0  0  0  0  0  0  0  0  0
   -5.6500   11.6820  -29.5590 C   0  0  0  0  0  0  0  0  0  0  0  0
   -6.5580   10.3550  -31.4830 S   0  0  0  0  0  0  0  0  0  0  0  0
  1 11  1  0
  1 12  1  0
  4  2  1  1
  3  9  1  0
  3 10  1  0
  4  7  1  0
  4 10  1  0
  5  8  2  0
  5 13  1  0
  6 11  2  0
  7  9  1  0
  8 14  1  0
 10 11  1  1
 12 13  2  0
 12 14  1  0
A    1
 N  
A    2
 C  
A    3
 O  
A    4
 C1 
A    5
 N1 
A    6
 O1 
A    7
 C2 
A    8
 N2 
A    9
 C3 
A   10
 C4 
A   11
 C5 
A   12
 C6 
A   13
 C7 
A   14
 S  
M  END
>  <XChem_code>  (14) 
D68EV3CPROA-x0789

>  <Occupancy>  (14) 
[0.7, 0.7, 0.7, 0.7, 0.7, 0.7, 0.7, 0.7, 0.7, 0.7, 0.7, 0.7, 0.7, 0.7]

>  <TempFactor>  (14) 
[56.59, 66.21, 67.77, 68.43, 44.39, 60.91, 69.25, 42.57, 69.8, 66.66, 61.67, 48.87, 42.82, 49.48]

>  <RealCrystalName>  (14) 
D68EV3CPROA-x0789

>  <smiles>  (14) 
CC1CCOC1C(=O)Nc2cnns2

>  <new_smiles>  (14) 
CC1CCOC1C(=O)Nc2cnns2

>  <alternate_name>  (14) 
Z1827602749

>  <site_name>  (14) 
1

>  <pdb_entry>  (14) 
nan

>  <mol>  (14) 
<rdkit.Chem.rdchem.Mol object at 0x13a1a36f0>

>  <single_smiles>  (14) 
CC1CCOC1C(=O)Nc1cnns1

>  <base_name>  (14) 
D68EV3CPROA-x0789_0A

>  <lig_resn>  (14) 
LIG

>  <lig_resi>  (14) 
201

>  <lig_chain>  (14) 
A

>  <lig_segi>  (14) 


>  <lig_alt>  (14) 


>  <polymer_chain>  (14) 
A

$$$$
x1285_1B§1
     RDKit          3D

 13 14  0  0  0  0  0  0  0  0999 V2000
  -10.6520   19.6760  -30.1380 N   0  0  0  0  0  0  0  0  0  0  0  0
   -9.9820   17.1800  -31.2410 C   0  0  0  0  0  0  0  0  0  0  0  0
  -10.9250   16.5330  -30.3940 O   0  0  0  0  0  0  0  0  0  0  0  0
  -10.6930   18.1730  -32.1210 C   0  0  0  0  0  0  0  0  0  0  0  0
  -11.4430   19.1980  -31.2830 C   0  0  0  0  0  0  0  0  0  0  0  0
  -10.8780   21.1100  -29.9290 C   0  0  0  0  0  0  0  0  0  0  0  0
  -11.3020   21.5050  -28.5370 C   0  0  0  0  0  0  0  0  0  0  0  0
  -11.2000   22.8270  -27.9980 C   0  0  0  0  0  0  0  0  0  0  0  0
  -11.6850   22.9370  -26.7200 C   0  0  0  0  0  0  0  0  0  0  0  0
  -11.8630   20.6350  -27.6410 C   0  0  0  0  0  0  0  0  0  0  0  0
   -9.2200   19.3860  -30.3540 C   0  0  0  0  0  0  0  0  0  0  0  0
   -8.9480   17.8850  -30.4010 C   0  0  0  0  0  0  0  0  0  0  0  0
  -12.2700   21.3910  -26.1670 S   0  0  0  0  0  0  0  0  0  0  0  0
  1  5  1  0
  1  6  1  0
  1 11  1  0
  2  3  1  0
  2  4  1  0
  2 12  1  0
  4  5  1  0
  6  7  1  0
  7  8  1  0
  7 10  2  0
  8  9  2  0
  9 13  1  0
 10 13  1  0
 11 12  1  0
A    1
 N  
A    2
 C  
A    3
 O  
A    4
 C1 
A    5
 C2 
A    6
 C3 
A    7
 C4 
A    8
 C5 
A    9
 C6 
A   10
 C7 
A   11
 C8 
A   12
 C9 
A   13
 S  
M  END
>  <XChem_code>  (15) 
D68EV3CPROA-x1285

>  <Occupancy>  (15) 
[0.98, 0.98, 0.98, 0.98, 0.98, 0.98, 0.98, 0.98, 0.98, 0.98, 0.98, 0.98, 0.98]

>  <TempFactor>  (15) 
[62.92, 53.85, 55.84, 55.42, 59.07, 67.89, 75.42, 75.35, 79.39, 78.53, 58.69, 54.38, 86.51]

>  <RealCrystalName>  (15) 
D68EV3CPROA-x1285

>  <smiles>  (15) 
OC1CCN(Cc2ccsc2)CC1

>  <new_smiles>  (15) 
OC1CCN(Cc2ccsc2)CC1

>  <alternate_name>  (15) 
Z905434478

>  <site_name>  (15) 
2

>  <pdb_entry>  (15) 
nan

>  <mol>  (15) 
<rdkit.Chem.rdchem.Mol object at 0x13a26c9e0>

>  <single_smiles>  (15) 
OC1CCN(Cc2ccsc2)CC1

>  <base_name>  (15) 
D68EV3CPROA-x1285_1B

>  <lig_resn>  (15) 
LIG

>  <lig_resi>  (15) 
301

>  <lig_chain>  (15) 
B

>  <lig_segi>  (15) 


>  <lig_alt>  (15) 


>  <polymer_chain>  (15) 
B

$$$$
x1305_0B§1
     RDKit          3D

 13 14  0  0  0  0  0  0  0  0999 V2000
  -13.2820   14.1010  -38.5020 N   0  0  0  0  0  0  0  0  0  0  0  0
  -14.6500   13.0400  -40.8950 C   0  0  0  0  0  0  0  0  0  0  0  0
  -13.3650   16.1330  -39.3370 O   0  0  0  0  0  0  0  0  0  0  0  0
  -14.7440   14.4950  -40.4990 C   0  0  0  0  0  0  0  0  0  0  0  0
  -12.4120   16.1650  -38.2940 N   0  0  0  0  0  0  0  0  0  0  0  0
  -16.1590   14.8330  -40.1060 C   0  0  0  0  0  0  0  0  0  0  0  0
  -10.4200   13.5300  -37.3880 N   0  0  0  0  0  0  0  0  0  0  0  0
  -13.8120   14.8680  -39.3940 C   0  0  0  0  0  0  0  0  0  0  0  0
  -12.4080   14.9380  -37.8620 C   0  0  0  0  0  0  0  0  0  0  0  0
  -11.4670   14.3920  -36.8230 C   0  0  2  0  0  0  0  0  0  0  0  0
  -10.6800   15.4890  -36.0930 C   0  0  0  0  0  0  0  0  0  0  0  0
   -9.4290   15.6740  -36.9460 C   0  0  0  0  0  0  0  0  0  0  0  0
   -9.1590   14.2890  -37.5220 C   0  0  0  0  0  0  0  0  0  0  0  0
  1  8  2  0
  1  9  1  0
  4  2  1  0
  3  5  1  0
  3  8  1  0
  4  6  1  0
  4  8  1  0
  5  9  2  0
  7 10  1  0
  7 13  1  0
 10  9  1  6
 10 11  1  0
 11 12  1  0
 12 13  1  0
A    1
 N  
A    2
 C  
A    3
 O  
A    4
 C1 
A    5
 N1 
A    6
 C2 
A    7
 N2 
A    8
 C3 
A    9
 C4 
A   10
 C5 
A   11
 C6 
A   12
 C7 
A   13
 C8 
M  END
>  <XChem_code>  (16) 
D68EV3CPROA-x1305

>  <Occupancy>  (16) 
[0.4, 0.4, 0.4, 0.4, 0.4, 0.4, 0.4, 0.4, 0.4, 0.4, 0.4, 0.4, 0.4]

>  <TempFactor>  (16) 
[35.95, 35.27, 35.89, 35.43, 37.1, 34.72, 40.22, 36.12, 37.53, 39.88, 41.17, 41.72, 42.18]

>  <RealCrystalName>  (16) 
D68EV3CPROA-x1305

>  <smiles>  (16) 
CC(C)c1nc(no1)C2CCCN2

>  <new_smiles>  (16) 
CC(C)c1nc(no1)C2CCCN2

>  <alternate_name>  (16) 
Z979742720

>  <site_name>  (16) 
1

>  <pdb_entry>  (16) 
nan

>  <mol>  (16) 
<rdkit.Chem.rdchem.Mol object at 0x13a26cac0>

>  <single_smiles>  (16) 
CC(C)c1nc(C2CCCN2)no1

>  <base_name>  (16) 
D68EV3CPROA-x1305_0B

>  <lig_resn>  (16) 
LIG

>  <lig_resi>  (16) 
201

>  <lig_chain>  (16) 
B

>  <lig_segi>  (16) 


>  <lig_alt>  (16) 


>  <polymer_chain>  (16) 
B

$$$$
x0771_0A§1
     RDKit          3D

 12 13  0  0  0  0  0  0  0  0999 V2000
   -5.6790   11.9310  -29.3990 N   0  0  0  0  0  0  0  0  0  0  0  0
   -6.3840   10.8960  -29.8420 C   0  0  0  0  0  0  0  0  0  0  0  0
   -6.9430   10.0880  -29.0820 O   0  0  0  0  0  0  0  0  0  0  0  0
   -6.5020   10.7170  -31.3270 C   0  0  0  0  0  0  0  0  0  0  0  0
   -6.7520   10.0160  -35.4110 N   0  0  0  0  0  0  0  0  0  0  0  0
   -6.5570   11.8360  -32.1720 C   0  0  0  0  0  0  0  0  0  0  0  0
   -6.6430   11.6880  -33.5490 C   0  0  0  0  0  0  0  0  0  0  0  0
   -6.6470   10.3990  -34.0790 C   0  0  0  0  0  0  0  0  0  0  0  0
   -6.3200    8.6230  -35.5550 C   0  0  0  0  0  0  0  0  0  0  0  0
   -6.4470    8.0560  -34.1300 C   0  0  0  0  0  0  0  0  0  0  0  0
   -6.5640    9.2800  -33.2630 C   0  0  0  0  0  0  0  0  0  0  0  0
   -6.5210    9.4400  -31.8850 C   0  0  0  0  0  0  0  0  0  0  0  0
  1  2  1  0
  2  3  2  0
  2  4  1  0
  4  6  2  0
  4 12  1  0
  5  8  1  0
  5  9  1  0
  6  7  1  0
  7  8  2  0
  8 11  1  0
  9 10  1  0
 10 11  1  0
 11 12  2  0
A    1
 N  
A    2
 C  
A    3
 O  
A    4
 C1 
A    5
 N1 
A    6
 C2 
A    7
 C3 
A    8
 C4 
A    9
 C5 
A   10
 C6 
A   11
 C7 
A   12
 C8 
M  END
>  <XChem_code>  (17) 
D68EV3CPROA-x0771

>  <Occupancy>  (17) 
[0.64, 0.64, 0.64, 0.64, 0.64, 0.64, 0.64, 0.64, 0.64, 0.64, 0.64, 0.64]

>  <TempFactor>  (17) 
[49.02, 50.98, 46.17, 54.1, 60.3, 56.33, 58.38, 60.28, 61.4, 60.15, 59.84, 57.61]

>  <RealCrystalName>  (17) 
D68EV3CPROA-x0771

>  <smiles>  (17) 
Cl.NC(=O)c1ccc2NCCc2c1

>  <new_smiles>  (17) 
Cl.NC(=O)c1ccc2NCCc2c1

>  <alternate_name>  (17) 
Z1696091761

>  <site_name>  (17) 
1

>  <pdb_entry>  (17) 
nan

>  <mol>  (17) 
<rdkit.Chem.rdchem.Mol object at 0x13a1a3610>

>  <single_smiles>  (17) 
NC(=O)c1ccc2c(c1)CCN2

>  <base_name>  (17) 
D68EV3CPROA-x0771_0A

>  <lig_resn>  (17) 
LIG

>  <lig_resi>  (17) 
301

>  <lig_chain>  (17) 
A

>  <lig_segi>  (17) 


>  <lig_alt>  (17) 


>  <polymer_chain>  (17) 
A

$$$$
x1083_0A§1
     RDKit          3D

 11 11  0  0  0  0  0  0  0  0999 V2000
  -11.0190   15.1770  -37.5360 N   0  0  0  0  0  0  0  0  0  0  0  0
   -9.1670   13.2040  -37.2360 C   0  0  0  0  0  0  0  0  0  0  0  0
  -10.1710   14.5990  -35.2970 O   0  0  0  0  0  0  0  0  0  0  0  0
  -10.7570   15.7650  -38.8640 C   0  0  0  0  0  0  0  0  0  0  0  0
   -8.7000   15.7280  -36.9110 O   0  0  0  0  0  0  0  0  0  0  0  0
  -12.0220   16.4240  -39.4010 C   0  0  0  0  0  0  0  0  0  0  0  0
  -14.3580   16.0450  -39.9370 O   0  0  0  0  0  0  0  0  0  0  0  0
  -13.1620   15.4330  -39.4530 C   0  0  0  0  0  0  0  0  0  0  0  0
  -13.3930   14.8470  -38.0810 C   0  0  0  0  0  0  0  0  0  0  0  0
  -12.1210   14.1950  -37.5610 C   0  0  0  0  0  0  0  0  0  0  0  0
   -9.7170   14.7620  -36.6420 S   0  0  0  0  0  0  0  0  0  0  0  0
  1  4  1  0
  1 10  1  0
  1 11  1  0
 11  2  1  0
  3 11  2  0
  4  6  1  0
  5 11  2  0
  6  8  1  0
  8  7  1  0
  8  9  1  0
  9 10  1  0
A    1
 N  
A    2
 C  
A    3
 O  
A    4
 C1 
A    5
 O1 
A    6
 C2 
A    7
 O2 
A    8
 C3 
A    9
 C4 
A   10
 C5 
A   11
 S  
M  END
>  <XChem_code>  (18) 
D68EV3CPROA-x1083

>  <Occupancy>  (18) 
[0.88, 0.88, 0.88, 0.88, 0.88, 0.88, 0.88, 0.88, 0.88, 0.88, 0.88]

>  <TempFactor>  (18) 
[71.89, 65.62, 69.14, 69.53, 73.16, 68.13, 65.29, 67.13, 67.96, 69.22, 68.91]

>  <RealCrystalName>  (18) 
D68EV3CPROA-x1083

>  <smiles>  (18) 
CS(=O)(=O)N1CCC(O)CC1

>  <new_smiles>  (18) 
CS(=O)(=O)N1CCC(O)CC1

>  <alternate_name>  (18) 
Z425757818

>  <site_name>  (18) 
1

>  <pdb_entry>  (18) 
nan

>  <mol>  (18) 
<rdkit.Chem.rdchem.Mol object at 0x13a26c190>

>  <single_smiles>  (18) 
CS(=O)(=O)N1CCC(O)CC1

>  <base_name>  (18) 
D68EV3CPROA-x1083_0A

>  <lig_resn>  (18) 
LIG

>  <lig_resi>  (18) 
201

>  <lig_chain>  (18) 
A

>  <lig_segi>  (18) 


>  <lig_alt>  (18) 


>  <polymer_chain>  (18) 
A

$$$$
x1247_0A§1
     RDKit          3D

 15 16  0  0  0  0  0  0  0  0999 V2000
  -10.5260   15.7430  -40.5350 N   0  0  0  0  0  0  0  0  0  0  0  0
   -6.9170   14.4620  -43.1680 C   0  0  0  0  0  0  0  0  0  0  0  0
  -12.5510   16.8430  -40.6540 O   0  0  0  0  0  0  0  0  0  0  0  0
   -8.2730   15.0850  -43.1210 C   0  0  0  0  0  0  0  0  0  0  0  0
  -11.8400   14.3240  -38.2560 N   0  0  0  0  0  0  0  0  0  0  0  0
   -8.9610   15.4340  -44.2800 C   0  0  0  0  0  0  0  0  0  0  0  0
   -8.7860   15.3070  -41.9030 N   0  0  0  0  0  0  0  0  0  0  0  0
  -10.1980   16.0390  -44.1710 C   0  0  0  0  0  0  0  0  0  0  0  0
  -10.7300   16.2860  -42.9200 C   0  0  0  0  0  0  0  0  0  0  0  0
   -9.9960   15.8680  -41.8180 C   0  0  0  0  0  0  0  0  0  0  0  0
  -11.7080   16.1850  -40.0490 C   0  0  0  0  0  0  0  0  0  0  0  0
  -11.9620   15.7230  -38.6590 C   0  0  1  0  0  0  0  0  0  0  0  0
  -13.0570   16.4330  -37.8990 C   0  0  0  0  0  0  0  0  0  0  0  0
  -13.9300   15.2810  -37.4610 C   0  0  0  0  0  0  0  0  0  0  0  0
  -12.9410   14.1170  -37.2950 C   0  0  0  0  0  0  0  0  0  0  0  0
  1 10  1  0
  1 11  1  0
  2  4  1  0
  3 11  2  0
  4  6  2  0
  4  7  1  0
  5 12  1  0
  5 15  1  0
  6  8  1  0
  7 10  2  0
  8  9  2  0
  9 10  1  0
 12 11  1  6
 12 13  1  0
 13 14  1  0
 14 15  1  0
A    1
 N  
A    2
 C  
A    3
 O  
A    4
 C1 
A    5
 N1 
A    6
 C2 
A    7
 N2 
A    8
 C3 
A    9
 C4 
A   10
 C5 
A   11
 C6 
A   12
 C7 
A   13
 C8 
A   14
 C9 
A   15
 C10
M  END
>  <XChem_code>  (19) 
D68EV3CPROA-x1247

>  <Occupancy>  (19) 
[0.86, 0.86, 0.86, 0.86, 0.86, 0.86, 0.86, 0.86, 0.86, 0.86, 0.86, 0.86, 0.86, 0.86, 0.86]

>  <TempFactor>  (19) 
[17.15, 19.7, 14.92, 19.7, 19.21, 19.17, 18.3, 19.2, 18.34, 17.39, 17.02, 17.11, 16.88, 17.4, 17.37]

>  <RealCrystalName>  (19) 
D68EV3CPROA-x1247

>  <smiles>  (19) 
Cc1cccc(NC(=O)[C@@H]2CCCN2)n1

>  <new_smiles>  (19) 
Cc1cccc(NC(=O)[C@@H]2CCCN2)n1

>  <alternate_name>  (19) 
Z760048004

>  <site_name>  (19) 
1

>  <pdb_entry>  (19) 
nan

>  <mol>  (19) 
<rdkit.Chem.rdchem.Mol object at 0x13a26c740>

>  <single_smiles>  (19) 
Cc1cccc(NC(=O)[C@@H]2CCCN2)n1

>  <base_name>  (19) 
D68EV3CPROA-x1247_0A

>  <lig_resn>  (19) 
LIG

>  <lig_resi>  (19) 
201

>  <lig_chain>  (19) 
A

>  <lig_segi>  (19) 


>  <lig_alt>  (19) 


>  <polymer_chain>  (19) 
A

$$$$
