ver_1.2
     RDKit          3D

 14 15  0  0  0  0  0  0  0  0999 V2000
   -3.0471    1.3950   -0.0484 C   0  0  0  0  0  0  0  0  0  0  0  0
   -2.2058    0.2134   -0.0041 N   0  0  0  0  0  0  0  0  0  0  0  0
   -2.5715   -1.0806    0.0470 C   0  0  0  0  0  0  0  0  0  0  0  0
   -1.4700   -1.8542    0.0750 N   0  0  0  0  0  0  0  0  0  0  0  0
   -0.3773   -1.0581    0.0419 C   0  0  0  0  0  0  0  0  0  0  0  0
   -0.8472    0.2292   -0.0073 C   0  0  0  0  0  0  0  0  0  0  0  0
    0.0370    1.2894   -0.0503 C   0  0  0  0  0  0  0  0  0  0  0  0
   -0.3827    2.4750   -0.0956 O   0  0  0  0  0  0  0  0  0  0  0  0
    1.3481    0.9862   -0.0410 N   0  0  0  0  0  0  0  0  0  0  0  0
    1.7883   -0.2840    0.0076 C   0  0  0  0  0  0  0  0  0  0  0  0
    3.0445   -0.4367    0.0112 O   0  0  0  0  0  0  0  0  0  0  0  0
    0.9436   -1.3110    0.0492 N   0  0  0  0  0  0  0  0  0  0  0  0
    1.4414   -2.6686    0.1011 C   0  0  0  0  0  0  0  0  0  0  0  0
    2.2987    2.1050   -0.0863 C   0  0  0  0  0  0  0  0  0  0  0  0
  1  2  1  0
  2  3  1  0
  3  4  2  0
  4  5  1  0
  5  6  2  0
  6  7  1  0
  7  8  2  0
  7  9  1  0
  9 10  1  0
 10 11  2  0
 10 12  1  0
 12 13  1  0
  9 14  1  0
  6  2  1  0
 12  5  1  0
M  END
>  <ref_url>  (1) 
https://github.com/matteoferla/EV-D68-3C-protease

>  <submitter_name>  (1) 
Matteo Ferla

>  <submitter_email>  (1) 
matteo.ferla@stats.ox.ac.uk

>  <submitter_institution>  (1) 
University of Oxford

>  <generation_date>  (1) 
2023-01-01

>  <method>  (1) 
Fragmenstein - no curation

>  <∆∆G>  (1) 
Protein-centric difference in Gibbs free energy between single snapshot of bond and unbound—PyRosetta ref2015 scorefunction

>  <comRMSD>  (1) 
Deviation from hits

>  <N_constrained_atoms>  (1) 
Atoms that were free

$$$$
Z3255218154
     RDKit          3D

 24 26  0  0  0  0  0  0  0  0999 V2000
   -8.7612   -3.2360   -7.9652 N   0  0  0  0  0  0  0  0  0  0  0  0
   -7.7785   -4.1806   -8.1206 C   0  0  0  0  0  0  0  0  0  0  0  0
   -6.9382   -4.1004   -9.0097 O   0  0  0  0  0  0  0  0  0  0  0  0
   -7.8153   -5.2828   -7.1412 C   0  0  0  0  0  0  0  0  0  0  0  0
   -7.5553   -6.5723   -7.4358 C   0  0  0  0  0  0  0  0  0  0  0  0
   -7.5649   -7.7579   -6.5767 C   0  0  0  0  0  0  0  0  0  0  0  0
   -7.9092   -7.4124   -5.1394 C   0  0  0  0  0  0  0  0  0  0  0  0
   -8.1585   -6.0980   -4.8324 C   0  0  0  0  0  0  0  0  0  0  0  0
   -8.4332   -5.8477   -3.3661 C   0  0  0  0  0  0  0  0  0  0  0  0
   -6.8629   -5.1271   -3.0757 S   0  0  0  0  0  6  0  0  0  0  0  0
   -6.6968   -4.7081   -1.7214 O   0  0  0  0  0  0  0  0  0  0  0  0
   -6.8684   -4.1628   -4.1171 O   0  0  0  0  0  0  0  0  0  0  0  0
   -5.6914   -6.4057   -3.5419 C   0  0  0  0  0  0  0  0  0  0  0  0
   -6.0369   -7.8116   -3.0787 C   0  0  0  0  0  0  0  0  0  0  0  0
   -5.4179   -8.1114   -1.7528 C   0  0  0  0  0  0  0  0  0  0  0  0
   -6.1886   -9.0931   -0.8607 C   0  0  0  0  0  0  0  0  0  0  0  0
   -5.6075   -9.4266    0.5109 C   0  0  0  0  0  0  0  0  0  0  0  0
   -4.3322   -8.7596    0.8631 C   0  0  0  0  0  0  0  0  0  0  0  0
   -3.6183   -8.8828    2.0134 O   0  0  0  0  0  0  0  0  0  0  0  0
   -2.3947   -8.1270    1.7388 C   0  0  0  0  0  0  0  0  0  0  0  0
   -2.4749   -7.3593    0.5449 C   0  0  0  0  0  0  0  0  0  0  0  0
   -3.7290   -7.9131    0.0118 C   0  0  0  0  0  0  0  0  0  0  0  0
   -4.2226   -7.5262   -1.3617 C   0  0  0  0  0  0  0  0  0  0  0  0
   -8.1267   -5.0417   -5.7978 C   0  0  0  0  0  0  0  0  0  0  0  0
  1  2  1  0
  2  3  2  0
  2  4  1  0
  4  5  2  0
  5  6  1  0
  6  7  2  0
  7  8  1  0
  8  9  1  0
  9 10  1  0
 10 11  2  0
 10 12  2  0
 10 13  1  0
 13 14  1  0
 14 15  1  0
 15 16  2  0
 16 17  1  0
 17 18  2  0
 18 19  1  0
 19 20  1  0
 20 21  1  0
 21 22  1  0
 22 23  2  0
  8 24  2  0
 24  4  1  0
 23 15  1  0
 22 18  1  0
A    1
 N1 
A    2
 C1 
A    3
 O1 
A    4
 C2 
A    5
 C3 
A    6
 C4 
A    7
 C5 
A    8
 C6 
A    9
 C7 
A   10
 S1 
A   11
 O2 
A   12
 O3 
A   13
 C8 
A   14
 C9 
A   15
 C10
A   16
 C11
A   17
 C12
A   18
 C13
A   19
 O4 
A   20
 C14
A   21
 C15
A   22
 C16
A   23
 C17
A   24
 C18
M  END
>  <ref_pdb>  (1) 
X0147_0A

>  <ref_mols>  (1) 
x0147_0A

>  <original SMILES>  (1) 
NC(=O)c1cccc(CS(=O)(=O)CCc2ccc3c(c2)CCO3)c1

>  <∆∆G>  (1) 
-8.540101

>  <comRMSD>  (1) 
1.181475

$$$$
Z1888664647
     RDKit          3D

 24 26  0  0  0  0  0  0  0  0999 V2000
   -8.7418   -3.1301   -8.0058 N   0  0  0  0  0  0  0  0  0  0  0  0
   -7.7813   -4.1023   -8.1115 C   0  0  0  0  0  0  0  0  0  0  0  0
   -6.8328   -4.0864   -9.1549 O   0  0  0  0  0  0  0  0  0  0  0  0
   -7.7925   -5.1725   -7.0600 C   0  0  0  0  0  0  0  0  0  0  0  0
   -7.4879   -6.5080   -7.6489 C   0  0  0  0  0  0  0  0  0  0  0  0
   -7.4949   -7.6671   -6.6908 C   0  0  0  0  0  0  0  0  0  0  0  0
   -7.7744   -7.3884   -5.2630 C   0  0  0  0  0  0  0  0  0  0  0  0
   -8.0442   -5.9707   -4.8002 C   0  0  0  0  0  0  0  0  0  0  0  0
   -8.2379   -5.7576   -3.6410 O   0  0  0  0  0  0  0  0  0  0  0  0
   -6.9501   -5.1806   -2.9010 S   0  0  0  0  0  6  0  0  0  0  0  0
   -6.3907   -3.9057   -3.3105 O   0  0  0  0  0  0  0  0  0  0  0  0
   -7.2487   -5.4608   -1.5347 O   0  0  0  0  0  0  0  0  0  0  0  0
   -5.7592   -6.4554   -3.4887 C   0  0  0  0  0  0  0  0  0  0  0  0
   -6.1820   -7.8414   -3.1098 C   0  0  0  0  0  0  0  0  0  0  0  0
   -5.4791   -8.0947   -1.7963 C   0  0  0  0  0  0  0  0  0  0  0  0
   -6.2111   -9.0688   -0.9293 C   0  0  0  0  0  0  0  0  0  0  0  0
   -5.6595   -9.4434    0.4392 C   0  0  0  0  0  0  0  0  0  0  0  0
   -4.3560   -8.7061    0.7137 C   0  0  0  0  0  0  0  0  0  0  0  0
   -3.6540   -8.8762    1.9015 O   0  0  0  0  0  0  0  0  0  0  0  0
   -2.4079   -8.1426    1.7546 C   0  0  0  0  0  0  0  0  0  0  0  0
   -2.5316   -7.3455    0.4936 C   0  0  0  0  0  0  0  0  0  0  0  0
   -3.7686   -7.8185   -0.1773 C   0  0  0  0  0  0  0  0  0  0  0  0
   -4.2865   -7.4966   -1.4149 C   0  0  0  0  0  0  0  0  0  0  0  0
   -8.0477   -4.9363   -5.7295 C   0  0  0  0  0  0  0  0  0  0  0  0
  1  2  1  0
  2  3  2  0
  2  4  1  0
  4  5  2  0
  5  6  1  0
  6  7  2  0
  7  8  1  0
  8  9  1  0
  9 10  1  0
 10 11  2  0
 10 12  2  0
 10 13  1  0
 13 14  1  0
 14 15  1  0
 15 16  2  0
 16 17  1  0
 17 18  2  0
 18 19  1  0
 19 20  1  0
 20 21  1  0
 21 22  1  0
 22 23  2  0
  8 24  2  0
 24  4  1  0
 23 15  1  0
 22 18  1  0
A    1
 N1 
A    2
 C1 
A    3
 O1 
A    4
 C2 
A    5
 C3 
A    6
 C4 
A    7
 C5 
A    8
 C6 
A    9
 O2 
A   10
 S1 
A   11
 O3 
A   12
 O4 
A   13
 C7 
A   14
 C8 
A   15
 C9 
A   16
 C10
A   17
 C11
A   18
 C12
A   19
 O5 
A   20
 C13
A   21
 C14
A   22
 C15
A   23
 C16
A   24
 C17
M  END
>  <ref_pdb>  (2) 
X0147_0A

>  <ref_mols>  (2) 
x0147_0A

>  <original SMILES>  (2) 
NC(=O)c1cccc(OS(=O)(=O)CCc2ccc3c(c2)CCO3)c1

>  <∆∆G>  (2) 
-8.208276

>  <comRMSD>  (2) 
0.909434

$$$$
PV-002509590804
     RDKit          3D

 23 25  0  0  0  0  0  0  0  0999 V2000
   -8.7778   -3.1332   -7.9739 N   0  0  0  0  0  0  0  0  0  0  0  0
   -7.8162   -4.1012   -8.0984 C   0  0  0  0  0  0  0  0  0  0  0  0
   -6.8905   -4.1175   -9.1636 O   0  0  0  0  0  0  0  0  0  0  0  0
   -7.7658   -5.1294   -7.0757 C   0  0  0  0  0  0  0  0  0  0  0  0
   -7.5356   -6.5074   -7.6225 C   0  0  0  0  0  0  0  0  0  0  0  0
   -7.5052   -7.5318   -6.5731 C   0  0  0  0  0  0  0  0  0  0  0  0
   -7.6530   -7.2361   -5.1519 C   0  0  0  0  0  0  0  0  0  0  0  0
   -7.8315   -5.9351   -4.7675 C   0  0  0  0  0  0  0  0  0  0  0  0
   -7.9130   -5.6721   -3.2726 C   0  0  0  0  0  0  0  0  0  0  0  0
   -6.6219   -5.1978   -3.3074 C   0  0  0  0  0  0  0  0  0  0  0  0
   -6.3864   -3.9871   -3.2955 O   0  0  0  0  0  0  0  0  0  0  0  0
   -5.5789   -6.2576   -3.4463 N   0  0  0  0  0  0  0  0  0  0  0  0
   -5.9871   -7.6375   -3.1317 C   0  0  0  0  0  0  0  0  0  0  0  0
   -5.4156   -8.0236   -1.8050 C   0  0  0  0  0  0  0  0  0  0  0  0
   -6.1958   -9.0482   -0.9881 C   0  0  0  0  0  0  0  0  0  0  0  0
   -5.6005   -9.4141    0.3714 C   0  0  0  0  0  0  0  0  0  0  0  0
   -4.2947   -8.7218    0.7767 C   0  0  0  0  0  0  0  0  0  0  0  0
   -3.6449   -8.9411    1.9650 O   0  0  0  0  0  0  0  0  0  0  0  0
   -2.3695   -8.2590    1.8320 C   0  0  0  0  0  0  0  0  0  0  0  0
   -2.4268   -7.3233    0.6362 C   0  0  0  0  0  0  0  0  0  0  0  0
   -3.6732   -7.8149   -0.0394 C   0  0  0  0  0  0  0  0  0  0  0  0
   -4.2313   -7.4353   -1.3897 C   0  0  0  0  0  0  0  0  0  0  0  0
   -7.9032   -4.8827   -5.7059 C   0  0  0  0  0  0  0  0  0  0  0  0
  1  2  1  0
  2  3  2  0
  2  4  1  0
  4  5  2  0
  5  6  1  0
  6  7  2  0
  7  8  1  0
  8  9  1  0
  9 10  1  0
 10 11  2  0
 10 12  1  0
 12 13  1  0
 13 14  1  0
 14 15  2  0
 15 16  1  0
 16 17  2  0
 17 18  1  0
 18 19  1  0
 19 20  1  0
 20 21  1  0
 21 22  2  0
  8 23  2  0
 23  4  1  0
 22 14  1  0
 21 17  1  0
A    1
 N1 
A    2
 C1 
A    3
 O1 
A    4
 C2 
A    5
 C3 
A    6
 C4 
A    7
 C5 
A    8
 C6 
A    9
 C7 
A   10
 C8 
A   11
 O2 
A   12
 N2 
A   13
 C9 
A   14
 C10
A   15
 C11
A   16
 C12
A   17
 C13
A   18
 O3 
A   19
 C14
A   20
 C15
A   21
 C16
A   22
 C17
A   23
 C18
M  END
>  <ref_pdb>  (3) 
X0147_0A

>  <ref_mols>  (3) 
x0147_0A

>  <original SMILES>  (3) 
NC(=O)c1cccc(CC(=O)NCc2ccc3c(c2)CCO3)c1

>  <∆∆G>  (3) 
-8.169259

>  <comRMSD>  (3) 
0.921214

$$$$
PV-003776809602
     RDKit          3D

 16 17  0  0  0  0  0  0  0  0999 V2000
   -5.7573   -6.5107   -3.7820 N   0  0  0  0  0  0  0  0  0  0  0  0
   -6.6759   -5.3421   -3.0102 S   0  0  0  0  0  6  0  0  0  0  0  0
   -6.5320   -5.5457   -1.5873 O   0  0  0  0  0  0  0  0  0  0  0  0
   -6.4379   -4.0554   -3.6333 O   0  0  0  0  0  0  0  0  0  0  0  0
   -8.3343   -5.8453   -3.4189 C   0  0  0  0  0  0  0  0  0  0  0  0
   -8.4135   -6.7169   -4.6451 C   0  0  0  0  0  0  0  0  0  0  0  0
   -9.9656   -6.5516   -5.3372 S   0  0  0  0  0  0  0  0  0  0  0  0
   -9.7844   -5.0509   -6.2413 C   0  0  0  0  0  0  0  0  0  0  0  0
  -10.6807   -4.0369   -6.0171 N   0  0  0  0  0  0  0  0  0  0  0  0
  -10.4749   -2.9217   -6.7376 C   0  0  0  0  0  0  0  0  0  0  0  0
   -9.3647   -2.7356   -7.7354 C   0  0  0  0  0  0  0  0  0  0  0  0
   -8.4868   -3.7402   -7.9587 C   0  0  0  0  0  0  0  0  0  0  0  0
   -8.7085   -4.9927   -7.1525 C   0  0  0  0  0  0  0  0  0  0  0  0
   -7.7086   -5.8311   -7.5536 C   0  0  0  0  0  0  0  0  0  0  0  0
   -6.9653   -5.1737   -8.4999 C   0  0  0  0  0  0  0  0  0  0  0  0
   -7.3942   -3.8946   -8.7808 O   0  0  0  0  0  0  0  0  0  0  0  0
  1  2  1  0
  2  3  2  0
  2  4  2  0
  2  5  1  0
  5  6  1  0
  6  7  1  0
  7  8  1  0
  8  9  2  0
  9 10  1  0
 10 11  2  0
 11 12  1  0
 12 13  2  0
 13 14  1  0
 14 15  2  0
 15 16  1  0
 13  8  1  0
 16 12  1  0
A    1
 N1 
A    2
 S1 
A    3
 O1 
A    4
 O2 
A    5
 C1 
A    6
 C2 
A    7
 S2 
A    8
 C3 
A    9
 N2 
A   10
 C4 
A   11
 C5 
A   12
 C6 
A   13
 C7 
A   14
 C8 
A   15
 C9 
A   16
 O3 
M  END
>  <ref_pdb>  (4) 
X0147_0A

>  <ref_mols>  (4) 
x0147_0A

>  <original SMILES>  (4) 
NS(=O)(=O)CCSc1nccc2occc12

>  <∆∆G>  (4) 
-7.927808

>  <comRMSD>  (4) 
0.443512

$$$$
Z1011305146
     RDKit          3D

 23 25  0  0  0  0  0  0  0  0999 V2000
   -8.7435   -3.1298   -7.9713 N   0  0  0  0  0  0  0  0  0  0  0  0
   -7.7982   -4.1092   -8.0865 C   0  0  0  0  0  0  0  0  0  0  0  0
   -6.8660   -4.1476   -9.1520 O   0  0  0  0  0  0  0  0  0  0  0  0
   -7.7407   -5.1549   -7.0771 C   0  0  0  0  0  0  0  0  0  0  0  0
   -7.5106   -6.4944   -7.7067 C   0  0  0  0  0  0  0  0  0  0  0  0
   -7.4662   -7.5899   -6.6734 C   0  0  0  0  0  0  0  0  0  0  0  0
   -7.5974   -7.3897   -5.2523 C   0  0  0  0  0  0  0  0  0  0  0  0
   -7.7954   -5.9638   -4.8056 C   0  0  0  0  0  0  0  0  0  0  0  0
   -7.8701   -5.7125   -3.3784 N   0  0  0  0  0  0  0  0  0  0  0  0
   -6.6524   -5.3058   -2.9569 C   0  0  0  0  0  0  0  0  0  0  0  0
   -6.3724   -4.0434   -2.3529 O   0  0  0  0  0  0  0  0  0  0  0  0
   -5.7277   -6.2715   -3.2627 N   0  0  0  0  0  0  0  0  0  0  0  0
   -5.9553   -7.6894   -3.0625 C   0  0  0  0  0  0  0  0  0  0  0  0
   -5.3080   -8.0190   -1.7515 C   0  0  0  0  0  0  0  0  0  0  0  0
   -6.1378   -9.0067   -0.9422 C   0  0  0  0  0  0  0  0  0  0  0  0
   -5.6512   -9.4668    0.4530 C   0  0  0  0  0  0  0  0  0  0  0  0
   -4.3095   -8.7630    0.7614 C   0  0  0  0  0  0  0  0  0  0  0  0
   -3.5623   -8.9108    1.9102 O   0  0  0  0  0  0  0  0  0  0  0  0
   -2.3028   -8.1942    1.6574 C   0  0  0  0  0  0  0  0  0  0  0  0
   -2.4286   -7.3466    0.4069 C   0  0  0  0  0  0  0  0  0  0  0  0
   -3.7130   -7.9044   -0.0954 C   0  0  0  0  0  0  0  0  0  0  0  0
   -4.1126   -7.4842   -1.3314 C   0  0  0  0  0  0  0  0  0  0  0  0
   -7.8732   -4.9205   -5.7111 C   0  0  0  0  0  0  0  0  0  0  0  0
  1  2  1  0
  2  3  2  0
  2  4  1  0
  4  5  2  0
  5  6  1  0
  6  7  2  0
  7  8  1  0
  8  9  1  0
  9 10  1  0
 10 11  2  0
 10 12  1  0
 12 13  1  0
 13 14  1  0
 14 15  2  0
 15 16  1  0
 16 17  2  0
 17 18  1  0
 18 19  1  0
 19 20  1  0
 20 21  1  0
 21 22  2  0
  8 23  2  0
 23  4  1  0
 22 14  1  0
 21 17  1  0
A    1
 N1 
A    2
 C1 
A    3
 O1 
A    4
 C2 
A    5
 C3 
A    6
 C4 
A    7
 C5 
A    8
 C6 
A    9
 N2 
A   10
 C7 
A   11
 O2 
A   12
 N3 
A   13
 C8 
A   14
 C9 
A   15
 C10
A   16
 C11
A   17
 C12
A   18
 O3 
A   19
 C13
A   20
 C14
A   21
 C15
A   22
 C16
A   23
 C17
M  END
>  <ref_pdb>  (5) 
X0147_0A

>  <ref_mols>  (5) 
x0147_0A

>  <original SMILES>  (5) 
NC(=O)c1cccc(NC(=O)NCc2ccc3c(c2)CCO3)c1

>  <∆∆G>  (5) 
-7.410234

>  <comRMSD>  (5) 
0.991195

$$$$
PV-003343602814
     RDKit          3D

 15 16  0  0  0  0  0  0  0  0999 V2000
   -5.6858   -6.5375   -3.5264 N   0  0  0  0  0  0  0  0  0  0  0  0
   -6.9982   -5.5239   -3.3643 S   0  0  0  0  0  6  0  0  0  0  0  0
   -7.5280   -5.7217   -2.0365 O   0  0  0  0  0  0  0  0  0  0  0  0
   -6.7012   -4.2206   -3.9105 O   0  0  0  0  0  0  0  0  0  0  0  0
   -7.9367   -6.3445   -4.4635 N   0  0  0  0  0  0  0  0  0  0  0  0
   -9.3477   -5.9034   -4.6608 C   0  0  0  0  0  0  0  0  0  0  0  0
   -9.4130   -4.8044   -5.6915 C   0  0  0  0  0  0  0  0  0  0  0  0
  -10.2434   -3.7247   -5.6314 C   0  0  0  0  0  0  0  0  0  0  0  0
  -10.2232   -2.7415   -6.6221 C   0  0  0  0  0  0  0  0  0  0  0  0
   -9.4182   -2.7441   -7.7011 C   0  0  0  0  0  0  0  0  0  0  0  0
   -8.5254   -3.8461   -7.8520 C   0  0  0  0  0  0  0  0  0  0  0  0
   -8.5730   -4.8303   -6.8277 C   0  0  0  0  0  0  0  0  0  0  0  0
   -7.5288   -5.7807   -7.3500 C   0  0  0  0  0  0  0  0  0  0  0  0
   -7.0319   -5.1907   -8.6157 C   0  0  0  0  0  0  0  0  0  0  0  0
   -7.6329   -4.0143   -8.9097 O   0  0  0  0  0  0  0  0  0  0  0  0
  1  2  1  0
  2  3  2  0
  2  4  2  0
  2  5  1  0
  5  6  1  0
  6  7  1  0
  7  8  2  0
  8  9  1  0
  9 10  2  0
 10 11  1  0
 11 12  2  0
 12 13  1  0
 13 14  2  0
 14 15  1  0
 12  7  1  0
 15 11  1  0
A    1
 N1 
A    2
 S1 
A    3
 O1 
A    4
 O2 
A    5
 N2 
A    6
 C1 
A    7
 C2 
A    8
 C3 
A    9
 C4 
A   10
 C5 
A   11
 C6 
A   12
 C7 
A   13
 C8 
A   14
 C9 
A   15
 O3 
M  END
>  <ref_pdb>  (6) 
X0147_0A

>  <ref_mols>  (6) 
x0147_0A

>  <original SMILES>  (6) 
NS(=O)(=O)NCc1cccc2occc12

>  <∆∆G>  (6) 
-7.373112

>  <comRMSD>  (6) 
1.933895

$$$$
PV-005819335594
     RDKit          3D

 18 20  0  0  0  0  0  0  0  0999 V2000
  -12.9929   -5.4383   -7.2523 C   0  0  0  0  0  0  0  0  0  0  0  0
  -12.9965   -5.2544   -5.7816 C   0  0  0  0  0  0  0  0  0  0  0  0
  -14.0123   -5.5583   -4.8780 C   0  0  0  0  0  0  0  0  0  0  0  0
  -13.9657   -5.3682   -3.5244 N   0  0  0  0  0  0  0  0  0  0  0  0
  -12.8587   -4.8444   -2.9902 C   0  0  0  0  0  0  0  0  0  0  0  0
  -12.7868   -4.6495   -1.6647 F   0  0  0  0  0  0  0  0  0  0  0  0
  -11.6982   -4.4802   -3.8836 C   0  0  0  0  0  0  0  0  0  0  0  0
  -11.8094   -4.6975   -5.2459 C   0  0  0  0  0  0  0  0  0  0  0  0
  -10.6574   -4.3372   -6.1724 C   0  0  0  0  0  0  0  0  0  0  0  0
  -10.6455   -2.8963   -6.6905 C   0  0  0  0  0  0  0  0  0  0  0  0
   -9.5604   -2.5570   -7.5804 N   0  0  0  0  0  0  0  0  0  0  0  0
   -8.6108   -3.5313   -7.9091 C   0  0  0  0  0  0  0  0  0  0  0  0
   -7.5610   -3.3065   -8.7445 O   0  0  0  0  0  0  0  0  0  0  0  0
   -6.7800   -4.4145   -8.9079 N   0  0  0  0  0  0  0  0  0  0  0  0
   -7.3771   -5.3863   -8.1234 C   0  0  0  0  0  0  0  0  0  0  0  0
   -6.7983   -6.6174   -8.0865 C   0  0  0  0  0  0  0  0  0  0  0  0
   -8.5717   -4.8431   -7.4662 C   0  0  0  0  0  0  0  0  0  0  0  0
   -9.5387   -5.3013   -6.6157 C   0  0  0  0  0  0  0  0  0  0  0  0
  1  2  1  0
  2  3  2  0
  3  4  1  0
  4  5  2  0
  5  6  1  0
  5  7  1  0
  7  8  2  0
  8  9  1  0
  9 10  2  0
 10 11  1  0
 11 12  2  0
 12 13  1  0
 13 14  1  0
 14 15  2  0
 15 16  1  0
 15 17  1  0
 17 18  2  0
  8  2  1  0
 18  9  1  0
 17 12  1  0
A    1
 C1 
A    2
 C2 
A    3
 C3 
A    4
 N1 
A    5
 C4 
A    6
 F1 
A    7
 C5 
A    8
 C6 
A    9
 C7 
A   10
 C8 
A   11
 N2 
A   12
 C9 
A   13
 O1 
A   14
 N3 
A   15
 C10
A   16
 C11
A   17
 C12
A   18
 C13
M  END
>  <ref_pdb>  (7) 
X0147_0A

>  <ref_mols>  (7) 
x0147_0A

>  <original SMILES>  (7) 
Cc1cnc(F)cc1-c1cnc2onc(C)c2c1

>  <∆∆G>  (7) 
-7.066483

>  <comRMSD>  (7) 
0.784551

$$$$
Z4911660589
     RDKit          3D

 14 15  0  0  0  0  0  0  0  0999 V2000
   -6.2925   -9.7948   -5.6198 C   0  0  0  0  0  0  0  0  0  0  0  0
   -7.1619   -9.4018   -6.8159 C   0  0  0  0  0  0  0  0  0  0  0  0
   -7.1471  -10.3408   -7.9059 O   0  0  0  0  0  0  0  0  0  0  0  0
   -7.7546   -8.3211   -6.7146 O   0  0  0  0  0  0  0  0  0  0  0  0
   -6.8902   -7.1778   -6.6200 C   0  0  0  0  0  0  0  0  0  0  0  0
   -7.3240   -5.9016   -7.3681 C   0  0  0  0  0  0  0  0  0  0  0  0
   -6.6615   -5.3637   -8.4165 N   0  0  0  0  0  0  0  0  0  0  0  0
   -7.3887   -3.9972   -8.8909 S   0  0  0  0  0  0  0  0  0  0  0  0
   -8.6464   -3.9851   -7.7830 C   0  0  0  0  0  0  0  0  0  0  0  0
   -9.6635   -3.0531   -7.6366 C   0  0  0  0  0  0  0  0  0  0  0  0
  -10.6853   -3.3041   -6.5352 C   0  0  0  0  0  0  0  0  0  0  0  0
  -10.6058   -4.4143   -5.7136 C   0  0  0  0  0  0  0  0  0  0  0  0
   -9.5745   -5.3151   -5.8848 C   0  0  0  0  0  0  0  0  0  0  0  0
   -8.5101   -5.1202   -6.9770 C   0  0  0  0  0  0  0  0  0  0  0  0
  1  2  1  0
  2  3  2  0
  2  4  1  0
  4  5  1  0
  5  6  1  0
  6  7  2  0
  7  8  1  0
  8  9  1  0
  9 10  2  0
 10 11  1  0
 11 12  2  0
 12 13  1  0
 13 14  2  0
 14  6  1  0
 14  9  1  0
A    1
 C1 
A    2
 C2 
A    3
 O1 
A    4
 O2 
A    5
 C3 
A    6
 C4 
A    7
 N1 
A    8
 S1 
A    9
 C5 
A   10
 C6 
A   11
 C7 
A   12
 C8 
A   13
 C9 
A   14
 C10
M  END
>  <ref_pdb>  (8) 
X0147_0A

>  <ref_mols>  (8) 
x0147_0A

>  <original SMILES>  (8) 
CC(=O)OCc1nsc2ccccc12

>  <∆∆G>  (8) 
-6.935683

>  <comRMSD>  (8) 
0.621904

$$$$
PV-002842548369
     RDKit          3D

 10 10  0  0  0  0  0  0  0  0999 V2000
   -8.3934   -8.9191   -5.3033 C   0  0  0  0  0  0  0  0  0  0  0  0
   -7.5945   -7.7529   -5.7114 C   0  0  0  0  0  0  0  0  0  0  0  0
   -7.8613   -6.5810   -6.3816 C   0  0  0  0  0  0  0  0  0  0  0  0
   -8.8204   -5.8213   -5.7010 C   0  0  0  0  0  0  0  0  0  0  0  0
   -9.2551   -4.5400   -6.1947 C   0  0  0  0  0  0  0  0  0  0  0  0
   -8.6485   -4.0721   -7.4415 C   0  0  0  0  0  0  0  0  0  0  0  0
   -9.1731   -2.7021   -7.8701 C   0  0  0  0  0  0  0  0  0  0  0  0
   -7.6784   -4.8836   -8.1059 C   0  0  0  0  0  0  0  0  0  0  0  0
   -7.0954   -4.4782   -9.2813 O   0  0  0  0  0  0  0  0  0  0  0  0
   -7.2892   -6.1294   -7.5783 C   0  0  0  0  0  0  0  0  0  0  0  0
  1  2  2  3
  2  3  1  0
  3  4  2  0
  4  5  1  0
  5  6  2  0
  6  7  1  0
  6  8  1  0
  8  9  1  0
  8 10  2  0
 10  3  1  0
A    1
 C1 
A    2
 C2 
A    3
 C3 
A    4
 C4 
A    5
 C5 
A    6
 C6 
A    7
 C7 
A    8
 C8 
A    9
 O1 
A   10
 C9 
M  END
>  <ref_pdb>  (9) 
X0147_0A

>  <ref_mols>  (9) 
x0147_0A

>  <original SMILES>  (9) 
C=Cc1ccc(C)c(O)c1

>  <∆∆G>  (9) 
-6.885875

>  <comRMSD>  (9) 
0.810137

$$$$
Z2581060895
     RDKit          3D

 16 17  0  0  0  0  0  0  0  0999 V2000
   -8.5774   -5.3725   -3.9232 C   0  0  0  0  0  0  0  0  0  0  0  0
   -6.8940   -5.3645   -3.3763 S   0  0  0  0  0  6  0  0  0  0  0  0
   -6.8976   -5.9099   -2.0341 O   0  0  0  0  0  0  0  0  0  0  0  0
   -6.3287   -4.0679   -3.6685 O   0  0  0  0  0  0  0  0  0  0  0  0
   -6.2361   -6.4942   -4.4187 N   0  0  0  0  0  0  0  0  0  0  0  0
   -7.0195   -7.0210   -5.4548 C   0  0  0  0  0  0  0  0  0  0  0  0
   -6.9594   -6.7551   -6.9923 C   0  0  0  0  0  0  0  0  0  0  0  0
   -7.5405   -5.4898   -7.4840 C   0  0  0  0  0  0  0  0  0  0  0  0
   -6.8402   -4.8357   -8.4762 N   0  0  0  0  0  0  0  0  0  0  0  0
   -7.5692   -3.6926   -8.7197 O   0  0  0  0  0  0  0  0  0  0  0  0
   -8.7053   -3.7036   -7.8622 C   0  0  0  0  0  0  0  0  0  0  0  0
   -9.7374   -2.7541   -7.7368 C   0  0  0  0  0  0  0  0  0  0  0  0
  -10.7430   -2.9319   -6.8819 C   0  0  0  0  0  0  0  0  0  0  0  0
  -10.7381   -4.1434   -6.0756 C   0  0  0  0  0  0  0  0  0  0  0  0
   -9.7393   -5.0469   -6.1962 C   0  0  0  0  0  0  0  0  0  0  0  0
   -8.6882   -4.8483   -7.0941 C   0  0  0  0  0  0  0  0  0  0  0  0
  1  2  1  0
  2  3  2  0
  2  4  2  0
  2  5  1  0
  5  6  1  0
  6  7  1  0
  7  8  1  0
  8  9  2  0
  9 10  1  0
 10 11  1  0
 11 12  2  0
 12 13  1  0
 13 14  2  0
 14 15  1  0
 15 16  2  0
 16  8  1  0
 16 11  1  0
A    1
 C1 
A    2
 S1 
A    3
 O1 
A    4
 O2 
A    5
 N1 
A    6
 C2 
A    7
 C3 
A    8
 C4 
A    9
 N2 
A   10
 O3 
A   11
 C5 
A   12
 C6 
A   13
 C7 
A   14
 C8 
A   15
 C9 
A   16
 C10
M  END
>  <ref_pdb>  (10) 
X0147_0A

>  <ref_mols>  (10) 
x0147_0A

>  <original SMILES>  (10) 
CS(=O)(=O)NCCc1noc2ccccc12

>  <∆∆G>  (10) 
-6.706881

>  <comRMSD>  (10) 
0.4957

$$$$
Z5463750180
     RDKit          3D

 12 13  0  0  0  0  0  0  0  0999 V2000
  -11.5961   -2.1708   -6.5506 C   0  0  0  0  0  0  0  0  0  0  0  0
  -10.5139   -3.2220   -6.7492 C   0  0  0  0  0  0  0  0  0  0  0  0
  -10.4068   -4.2317   -5.9364 N   0  0  0  0  0  0  0  0  0  0  0  0
   -9.3657   -5.1225   -6.2922 C   0  0  0  0  0  0  0  0  0  0  0  0
   -9.1223   -6.3923   -5.5946 C   0  0  0  0  0  0  0  0  0  0  0  0
   -7.7914   -7.1342   -6.3631 S   0  0  0  0  0  0  0  0  0  0  0  0
   -7.5943   -5.8943   -7.5023 C   0  0  0  0  0  0  0  0  0  0  0  0
   -6.4960   -6.0635   -8.5353 C   0  0  0  0  0  0  0  0  0  0  0  0
   -8.4992   -4.8706   -7.3269 C   0  0  0  0  0  0  0  0  0  0  0  0
   -8.5869   -3.7179   -8.0528 C   0  0  0  0  0  0  0  0  0  0  0  0
   -7.6964   -3.3898   -8.8015 O   0  0  0  0  0  0  0  0  0  0  0  0
   -9.6896   -3.0204   -7.8495 N   0  0  0  0  0  0  0  0  0  0  0  0
  1  2  1  0
  2  3  2  0
  3  4  1  0
  4  5  2  0
  5  6  1  0
  6  7  1  0
  7  8  1  0
  7  9  2  0
  9 10  1  0
 10 11  2  0
 10 12  1  0
 12  2  1  0
  9  4  1  0
A    1
 C1 
A    2
 C2 
A    3
 N1 
A    4
 C3 
A    5
 C4 
A    6
 S1 
A    7
 C5 
A    8
 C6 
A    9
 C7 
A   10
 C8 
A   11
 O1 
A   12
 N2 
M  END
>  <ref_pdb>  (11) 
X0147_0A

>  <ref_mols>  (11) 
x0147_0A

>  <original SMILES>  (11) 
Cc1nc2csc(C)c2c(=O)[nH]1

>  <∆∆G>  (11) 
-6.659761

>  <comRMSD>  (11) 
1.478141

$$$$
Z1090125256
     RDKit          3D

 13 13  0  0  0  0  0  0  0  0999 V2000
   -5.6973   -6.5820   -3.6655 N   0  0  0  0  0  0  0  0  0  0  0  0
   -6.9661   -5.4997   -3.2443 S   0  0  0  0  0  6  0  0  0  0  0  0
   -6.8378   -4.2469   -3.9522 O   0  0  0  0  0  0  0  0  0  0  0  0
   -7.1357   -5.5712   -1.8136 O   0  0  0  0  0  0  0  0  0  0  0  0
   -8.2151   -6.4306   -3.8862 N   0  0  0  0  0  0  0  0  0  0  0  0
   -9.2964   -5.8070   -4.6734 C   0  0  0  0  0  0  0  0  0  0  0  0
   -8.7617   -5.3569   -5.9708 C   0  0  0  0  0  0  0  0  0  0  0  0
   -9.1039   -4.1703   -6.6089 C   0  0  0  0  0  0  0  0  0  0  0  0
   -8.4282   -3.9488   -7.8407 C   0  0  0  0  0  0  0  0  0  0  0  0
   -7.4560   -4.8323   -8.4506 C   0  0  0  0  0  0  0  0  0  0  0  0
   -6.8874   -4.4879   -9.6152 O   0  0  0  0  0  0  0  0  0  0  0  0
   -7.1677   -5.9934   -7.7888 C   0  0  0  0  0  0  0  0  0  0  0  0
   -7.8111   -6.2480   -6.5657 C   0  0  0  0  0  0  0  0  0  0  0  0
  1  2  1  0
  2  3  2  0
  2  4  2  0
  2  5  1  0
  5  6  1  0
  6  7  1  0
  7  8  2  0
  8  9  1  0
  9 10  2  0
 10 11  1  0
 10 12  1  0
 12 13  2  0
 13  7  1  0
A    1
 N1 
A    2
 S1 
A    3
 O1 
A    4
 O2 
A    5
 N2 
A    6
 C1 
A    7
 C2 
A    8
 C3 
A    9
 C4 
A   10
 C5 
A   11
 O3 
A   12
 C6 
A   13
 C7 
M  END
>  <ref_pdb>  (12) 
X0147_0A

>  <ref_mols>  (12) 
x0147_0A

>  <original SMILES>  (12) 
NS(=O)(=O)NCc1ccc(O)cc1

>  <∆∆G>  (12) 
-6.621286

>  <comRMSD>  (12) 
0.392268

$$$$
PV-005396216301
     RDKit          3D

 15 16  0  0  0  0  0  0  0  0999 V2000
   -7.0533  -10.9166   -7.0509 C   0  0  0  0  0  0  0  0  0  0  0  0
   -7.2225   -9.8879   -7.7075 O   0  0  0  0  0  0  0  0  0  0  0  0
   -7.4669   -8.7962   -6.7885 N   0  0  0  0  0  0  0  0  0  0  0  0
   -6.7599   -7.5264   -7.1360 C   0  0  0  0  0  0  0  0  0  0  0  0
   -5.4060   -7.5136   -7.2836 O   0  0  0  0  0  0  0  0  0  0  0  0
   -7.5102   -6.1622   -7.3589 C   0  0  0  0  0  0  0  0  0  0  0  0
   -6.8225   -5.3592   -8.4022 C   0  0  0  0  0  0  0  0  0  0  0  0
   -7.4706   -3.8786   -8.7411 S   0  0  0  0  0  0  0  0  0  0  0  0
   -8.6934   -4.0989   -7.6110 C   0  0  0  0  0  0  0  0  0  0  0  0
   -8.6525   -5.3358   -6.9333 C   0  0  0  0  0  0  0  0  0  0  0  0
   -9.7512   -5.5707   -5.9273 C   0  0  0  0  0  0  0  0  0  0  0  0
   -9.5720   -6.6572   -5.1499 O   0  0  0  0  0  0  0  0  0  0  0  0
  -10.7905   -4.7428   -5.8798 N   0  0  0  0  0  0  0  0  0  0  0  0
  -10.6190   -3.4572   -6.5842 C   0  0  0  0  0  0  0  0  0  0  0  0
   -9.5815   -3.1262   -7.4428 N   0  0  0  0  0  0  0  0  0  0  0  0
  1  2  1  0
  2  3  1  0
  3  4  1  0
  4  5  2  0
  4  6  1  0
  6  7  2  0
  7  8  1  0
  8  9  1  0
  9 10  2  0
 10 11  1  0
 11 12  2  0
 11 13  1  0
 13 14  1  0
 14 15  2  0
 10  6  1  0
 15  9  1  0
A    1
 C1 
A    2
 O1 
A    3
 N1 
A    4
 C2 
A    5
 O2 
A    6
 C3 
A    7
 C4 
A    8
 S1 
A    9
 C5 
A   10
 C6 
A   11
 C7 
A   12
 O3 
A   13
 N2 
A   14
 C8 
A   15
 N3 
M  END
>  <ref_pdb>  (13) 
X0147_0A

>  <ref_mols>  (13) 
x0147_0A

>  <original SMILES>  (13) 
CONC(=O)c1csc2nc[nH]c(=O)c12

>  <∆∆G>  (13) 
-6.490958

>  <comRMSD>  (13) 
0.742691

$$$$
PV-007110964219
     RDKit          3D

 10 10  0  0  0  0  0  0  0  0999 V2000
  -10.6872   -2.9003   -5.3133 C   0  0  0  0  0  0  0  0  0  0  0  0
  -10.5850   -4.1693   -5.7406 C   0  0  0  0  0  0  0  0  0  0  0  0
   -9.3980   -4.7699   -6.4514 C   0  0  0  0  0  0  0  0  0  0  0  0
   -9.0485   -6.1681   -5.9751 C   0  0  0  0  0  0  0  0  0  0  0  0
   -7.9273   -6.6766   -6.6798 C   0  0  0  0  0  0  0  0  0  0  0  0
   -7.1322   -6.0025   -7.7634 C   0  0  0  0  0  0  0  0  0  0  0  0
   -7.5597   -4.7217   -8.0992 C   0  0  0  0  0  0  0  0  0  0  0  0
   -6.8365   -4.0912   -9.0811 O   0  0  0  0  0  0  0  0  0  0  0  0
   -8.6672   -4.1165   -7.4599 C   0  0  0  0  0  0  0  0  0  0  0  0
   -9.0575   -2.7367   -7.8805 C   0  0  0  0  0  0  0  0  0  0  0  0
  1  2  2  3
  2  3  1  0
  3  4  2  0
  4  5  1  0
  5  6  2  0
  6  7  1  0
  7  8  1  0
  7  9  2  0
  9 10  1  0
  9  3  1  0
A    1
 C1 
A    2
 C2 
A    3
 C3 
A    4
 C4 
A    5
 C5 
A    6
 C6 
A    7
 C7 
A    8
 O1 
A    9
 C8 
A   10
 C9 
M  END
>  <ref_pdb>  (14) 
X0147_0A

>  <ref_mols>  (14) 
x0147_0A

>  <original SMILES>  (14) 
C=Cc1cccc(O)c1C

>  <∆∆G>  (14) 
-6.460731

>  <comRMSD>  (14) 
0.703943

$$$$
PV-006718461768
     RDKit          3D

 23 25  0  0  0  0  0  0  0  0999 V2000
   -8.8098   -3.0387   -7.9863 N   0  0  0  0  0  0  0  0  0  0  0  0
   -7.8679   -4.0279   -8.0911 C   0  0  0  0  0  0  0  0  0  0  0  0
   -6.9060   -4.0959   -9.1245 O   0  0  0  0  0  0  0  0  0  0  0  0
   -7.8278   -5.1105   -7.0529 C   0  0  0  0  0  0  0  0  0  0  0  0
   -7.5508   -6.4490   -7.6183 C   0  0  0  0  0  0  0  0  0  0  0  0
   -7.5152   -7.5904   -6.6252 C   0  0  0  0  0  0  0  0  0  0  0  0
   -7.7393   -7.2858   -5.1282 C   0  0  0  0  0  0  0  0  0  0  0  0
   -7.9652   -5.9372   -4.8107 C   0  0  0  0  0  0  0  0  0  0  0  0
   -8.1168   -5.7170   -3.3424 C   0  0  0  0  0  0  0  0  0  0  0  0
   -6.6872   -5.4238   -2.9869 C   0  0  0  0  0  0  0  0  0  0  0  0
   -6.3962   -4.3603   -2.4535 O   0  0  0  0  0  0  0  0  0  0  0  0
   -5.7623   -6.3092   -3.3329 N   0  0  0  0  0  0  0  0  0  0  0  0
   -6.1021   -7.6323   -3.0735 C   0  0  0  0  0  0  0  0  0  0  0  0
   -5.4831   -8.0247   -1.7493 C   0  0  0  0  0  0  0  0  0  0  0  0
   -4.1322   -7.4551   -1.4866 C   0  0  0  0  0  0  0  0  0  0  0  0
   -3.3919   -7.7252   -0.2150 C   0  0  0  0  0  0  0  0  0  0  0  0
   -4.0950   -8.6095    0.7782 C   0  0  0  0  0  0  0  0  0  0  0  0
   -5.4829   -9.1235    0.3474 C   0  0  0  0  0  0  0  0  0  0  0  0
   -6.1270   -8.8324   -0.8646 N   0  0  0  0  0  0  0  0  0  0  0  0
   -3.4727   -8.8086    1.8067 O   0  0  0  0  0  0  0  0  0  0  0  0
   -2.3732   -7.8429    1.6138 C   0  0  0  0  0  0  0  0  0  0  0  0
   -2.2139   -7.3465    0.2552 O   0  0  0  0  0  0  0  0  0  0  0  0
   -8.0205   -4.8852   -5.7152 C   0  0  0  0  0  0  0  0  0  0  0  0
  1  2  1  0
  2  3  2  0
  2  4  1  0
  4  5  2  0
  5  6  1  0
  6  7  2  0
  7  8  1  0
  8  9  1  0
  9 10  1  0
 10 11  2  0
 10 12  1  0
 12 13  1  0
 13 14  1  0
 14 15  2  0
 15 16  1  0
 16 17  2  0
 17 18  1  0
 18 19  2  0
 17 20  1  0
 20 21  1  0
 21 22  1  0
  8 23  2  0
 23  4  1  0
 19 14  1  0
 22 16  1  0
A    1
 N1 
A    2
 C1 
A    3
 O1 
A    4
 C2 
A    5
 C3 
A    6
 C4 
A    7
 C5 
A    8
 C6 
A    9
 C7 
A   10
 C8 
A   11
 O2 
A   12
 N2 
A   13
 C9 
A   14
 C10
A   15
 C11
A   16
 C12
A   17
 C13
A   18
 C14
A   19
 N3 
A   20
 O3 
A   21
 C15
A   22
 O4 
A   23
 C16
M  END
>  <ref_pdb>  (15) 
X0147_0A

>  <ref_mols>  (15) 
x0147_0A

>  <original SMILES>  (15) 
NC(=O)c1cccc(CC(=O)NCc2cc3c(cn2)OCO3)c1

>  <∆∆G>  (15) 
-6.41578

>  <comRMSD>  (15) 
0.960499

$$$$
Z192888154
     RDKit          3D

 23 25  0  0  0  0  0  0  0  0999 V2000
   -8.7313   -2.8078   -8.1227 N   0  0  0  0  0  0  0  0  0  0  0  0
   -8.2305   -3.8008   -7.8200 C   0  0  0  0  0  0  0  0  0  0  0  0
   -7.2363   -4.0031   -8.8230 O   0  0  0  0  0  0  0  0  0  0  0  0
   -8.0034   -5.0030   -6.9623 C   0  0  0  0  0  0  0  0  0  0  0  0
   -7.6351   -6.2863   -7.6907 C   0  0  0  0  0  0  0  0  0  0  0  0
   -7.4671   -7.3970   -6.6906 C   0  0  0  0  0  0  0  0  0  0  0  0
   -7.6154   -7.2286   -5.2530 C   0  0  0  0  0  0  0  0  0  0  0  0
   -7.9323   -5.9896   -4.7495 C   0  0  0  0  0  0  0  0  0  0  0  0
   -8.0004   -5.9280   -3.4098 N   0  0  0  0  0  0  0  0  0  0  0  0
   -6.7597   -5.5415   -2.8718 C   0  0  0  0  0  0  0  0  0  0  0  0
   -6.4076   -4.6683   -2.0795 O   0  0  0  0  0  0  0  0  0  0  0  0
   -5.6310   -6.3898   -3.5144 C   0  0  0  0  0  0  0  0  0  0  0  0
   -6.1212   -7.7357   -2.9551 C   0  0  0  0  0  0  0  0  0  0  0  0
   -5.3314   -8.0019   -1.6833 C   0  0  0  0  0  0  0  0  0  0  0  0
   -6.1084   -8.8496   -0.7367 C   0  0  0  0  0  0  0  0  0  0  0  0
   -5.5042   -9.2124    0.5989 C   0  0  0  0  0  0  0  0  0  0  0  0
   -4.1068   -8.6108    0.7760 C   0  0  0  0  0  0  0  0  0  0  0  0
   -3.4171   -8.7570    1.7794 O   0  0  0  0  0  0  0  0  0  0  0  0
   -2.3757   -7.7795    1.5701 C   0  0  0  0  0  0  0  0  0  0  0  0
   -2.2652   -7.4272    0.1941 O   0  0  0  0  0  0  0  0  0  0  0  0
   -3.4830   -7.8345   -0.1942 C   0  0  0  0  0  0  0  0  0  0  0  0
   -4.0677   -7.5248   -1.4124 C   0  0  0  0  0  0  0  0  0  0  0  0
   -8.1367   -4.8871   -5.5758 C   0  0  0  0  0  0  0  0  0  0  0  0
  1  2  1  0
  2  3  2  0
  2  4  1  0
  4  5  2  0
  5  6  1  0
  6  7  2  0
  7  8  1  0
  8  9  1  0
  9 10  1  0
 10 11  2  0
 10 12  1  0
 12 13  1  0
 13 14  1  0
 14 15  2  0
 15 16  1  0
 16 17  2  0
 17 18  1  0
 18 19  1  0
 19 20  1  0
 20 21  1  0
 21 22  2  0
  8 23  2  0
 23  4  1  0
 22 14  1  0
 21 17  1  0
A    1
 N1 
A    2
 C1 
A    3
 O1 
A    4
 C2 
A    5
 C3 
A    6
 C4 
A    7
 C5 
A    8
 C6 
A    9
 N2 
A   10
 C7 
A   11
 O2 
A   12
 C8 
A   13
 C9 
A   14
 C10
A   15
 C11
A   16
 C12
A   17
 C13
A   18
 O3 
A   19
 C14
A   20
 O4 
A   21
 C15
A   22
 C16
A   23
 C17
M  END
>  <ref_pdb>  (16) 
X0147_0A

>  <ref_mols>  (16) 
x0147_0A

>  <original SMILES>  (16) 
NC(=O)c1cccc(NC(=O)CCc2ccc3c(c2)OCO3)c1

>  <∆∆G>  (16) 
-6.37498

>  <comRMSD>  (16) 
0.787497

$$$$
Z3242864846
     RDKit          3D

 19 20  0  0  0  0  0  0  0  0999 V2000
   -6.6799   -7.1976   -7.8117 C   0  0  0  0  0  0  0  0  0  0  0  0
   -6.8416   -7.9293   -6.5029 C   0  0  0  0  0  0  0  0  0  0  0  0
   -5.7641   -7.8881   -5.6156 C   0  0  0  0  0  0  0  0  0  0  0  0
   -7.1512   -9.4001   -6.8220 C   0  0  0  0  0  0  0  0  0  0  0  0
   -7.9483   -7.3926   -5.7502 O   0  0  0  0  0  0  0  0  0  0  0  0
   -8.0014   -6.1185   -5.2417 C   0  0  0  0  0  0  0  0  0  0  0  0
   -7.7504   -5.9242   -4.0589 O   0  0  0  0  0  0  0  0  0  0  0  0
   -8.3306   -5.0545   -6.0431 N   0  0  0  0  0  0  0  0  0  0  0  0
   -7.9697   -5.0894   -7.3642 C   0  0  0  0  0  0  0  0  0  0  0  0
   -8.1585   -3.9086   -8.1394 C   0  0  0  0  0  0  0  0  0  0  0  0
   -8.9458   -2.9881   -7.4990 C   0  0  1  0  0  0  0  0  0  0  0  0
   -9.2184   -1.8625   -8.3378 O   0  0  0  0  0  0  0  0  0  0  0  0
  -10.0190   -3.5251   -6.7446 C   0  0  0  0  0  0  0  0  0  0  0  0
  -10.8771   -4.3749   -7.3465 C   0  0  0  0  0  0  0  0  0  0  0  0
  -12.0152   -5.0336   -6.6971 C   0  0  0  0  0  0  0  0  0  0  0  0
  -12.8127   -4.0295   -6.0866 O   0  0  0  0  0  0  0  0  0  0  0  0
  -12.0169   -3.0348   -5.4300 C   0  0  0  0  0  0  0  0  0  0  0  0
  -10.9716   -2.5689   -6.2485 C   0  0  0  0  0  0  0  0  0  0  0  0
   -9.3326   -4.1184   -5.6470 C   0  0  0  0  0  0  0  0  0  0  0  0
  1  2  1  0
  2  3  1  0
  2  4  1  0
  2  5  1  0
  5  6  1  0
  6  7  2  0
  6  8  1  0
  8  9  1  0
  9 10  1  0
 10 11  1  0
 11 12  1  6
 11 13  1  0
 13 14  1  0
 14 15  1  0
 15 16  1  0
 16 17  1  0
 17 18  1  0
 13 19  1  0
 19  8  1  0
 18 13  1  0
A    1
 C1 
A    2
 C2 
A    3
 C3 
A    4
 C4 
A    5
 O1 
A    6
 C5 
A    7
 O2 
A    8
 N1 
A    9
 C6 
A   10
 C7 
A   11
 C8 
A   12
 O3 
A   13
 C9 
A   14
 C10
A   15
 C11
A   16
 O4 
A   17
 C12
A   18
 C13
A   19
 C14
M  END
>  <ref_pdb>  (17) 
X0147_0A

>  <ref_mols>  (17) 
x0147_0A

>  <original SMILES>  (17) 
CC(C)(C)OC(=O)N1CC[C@@H](O)C2(CCOCC2)C1

>  <∆∆G>  (17) 
-6.335899

>  <comRMSD>  (17) 
1.076592

$$$$
PV-006220791768
     RDKit          3D

 15 16  0  0  0  0  0  0  0  0999 V2000
   -6.0540   -6.6208   -4.1199 N   0  0  0  0  0  0  0  0  0  0  0  0
   -7.0012   -5.4962   -3.3085 S   0  0  0  0  0  6  0  0  0  0  0  0
   -6.8617   -5.7115   -1.8818 O   0  0  0  0  0  0  0  0  0  0  0  0
   -6.7676   -4.1741   -3.8627 O   0  0  0  0  0  0  0  0  0  0  0  0
   -8.5508   -6.0014   -3.7331 N   0  0  0  0  0  0  0  0  0  0  0  0
   -8.9109   -6.3849   -5.1250 C   0  0  0  0  0  0  0  0  0  0  0  0
   -9.1589   -5.1561   -5.9742 C   0  0  0  0  0  0  0  0  0  0  0  0
  -10.2727   -4.2105   -5.5998 C   0  0  0  0  0  0  0  0  0  0  0  0
  -10.4443   -2.9781   -6.4881 C   0  0  0  0  0  0  0  0  0  0  0  0
   -9.5314   -2.7845   -7.6355 C   0  0  0  0  0  0  0  0  0  0  0  0
   -8.5624   -3.7539   -7.8521 C   0  0  0  0  0  0  0  0  0  0  0  0
   -8.3773   -4.8625   -7.0967 C   0  0  0  0  0  0  0  0  0  0  0  0
   -7.3517   -5.5867   -7.5997 C   0  0  0  0  0  0  0  0  0  0  0  0
   -6.8117   -5.0239   -8.6689 N   0  0  0  0  0  0  0  0  0  0  0  0
   -7.5757   -3.8880   -8.8017 N   0  0  0  0  0  0  0  0  0  0  0  0
  1  2  1  0
  2  3  2  0
  2  4  2  0
  2  5  1  0
  5  6  1  0
  6  7  1  0
  7  8  2  0
  8  9  1  0
  9 10  2  0
 10 11  1  0
 11 12  2  0
 12 13  1  0
 13 14  2  0
 14 15  1  0
 12  7  1  0
 15 11  1  0
A    1
 N1 
A    2
 S1 
A    3
 O1 
A    4
 O2 
A    5
 N2 
A    6
 C1 
A    7
 C2 
A    8
 C3 
A    9
 C4 
A   10
 C5 
A   11
 C6 
A   12
 C7 
A   13
 C8 
A   14
 N3 
A   15
 N4 
M  END
>  <ref_pdb>  (18) 
X0147_0A

>  <ref_mols>  (18) 
x0147_0A

>  <original SMILES>  (18) 
NS(=O)(=O)NCc1cccc2[nH]ncc12

>  <∆∆G>  (18) 
-6.330211

>  <comRMSD>  (18) 
0.389157

$$$$
PV-002855935632
     RDKit          3D

 15 16  0  0  0  0  0  0  0  0999 V2000
   -5.6555   -6.4878   -3.4709 N   0  0  0  0  0  0  0  0  0  0  0  0
   -7.0250   -5.5403   -3.3843 S   0  0  0  0  0  6  0  0  0  0  0  0
   -7.5709   -5.7142   -2.0609 O   0  0  0  0  0  0  0  0  0  0  0  0
   -6.7592   -4.2408   -3.9569 O   0  0  0  0  0  0  0  0  0  0  0  0
   -7.9432   -6.4338   -4.4785 N   0  0  0  0  0  0  0  0  0  0  0  0
   -9.3484   -6.0755   -4.8069 C   0  0  0  0  0  0  0  0  0  0  0  0
   -9.3627   -4.9577   -5.8078 C   0  0  0  0  0  0  0  0  0  0  0  0
  -10.3041   -3.8448   -5.6529 C   0  0  0  0  0  0  0  0  0  0  0  0
  -10.3696   -2.7633   -6.5117 C   0  0  0  0  0  0  0  0  0  0  0  0
   -9.4354   -2.7176   -7.6585 C   0  0  0  0  0  0  0  0  0  0  0  0
   -8.5336   -3.7869   -7.8231 C   0  0  0  0  0  0  0  0  0  0  0  0
   -8.5228   -4.8754   -6.9063 C   0  0  0  0  0  0  0  0  0  0  0  0
   -7.5040   -5.7731   -7.3776 C   0  0  0  0  0  0  0  0  0  0  0  0
   -6.8998   -5.2262   -8.5729 C   0  0  0  0  0  0  0  0  0  0  0  0
   -7.5583   -4.0194   -8.7835 N   0  0  0  0  0  0  0  0  0  0  0  0
  1  2  1  0
  2  3  2  0
  2  4  2  0
  2  5  1  0
  5  6  1  0
  6  7  1  0
  7  8  2  0
  8  9  1  0
  9 10  2  0
 10 11  1  0
 11 12  2  0
 12 13  1  0
 13 14  2  0
 14 15  1  0
 12  7  1  0
 15 11  1  0
A    1
 N1 
A    2
 S1 
A    3
 O1 
A    4
 O2 
A    5
 N2 
A    6
 C1 
A    7
 C2 
A    8
 C3 
A    9
 C4 
A   10
 C5 
A   11
 C6 
A   12
 C7 
A   13
 C8 
A   14
 C9 
A   15
 N3 
M  END
>  <ref_pdb>  (19) 
X0147_0A

>  <ref_mols>  (19) 
x0147_0A

>  <original SMILES>  (19) 
NS(=O)(=O)NCc1cccc2[nH]ccc12

>  <∆∆G>  (19) 
-6.303933

>  <comRMSD>  (19) 
0.562981

$$$$
Z1731018967
     RDKit          3D

 14 15  0  0  0  0  0  0  0  0999 V2000
   -7.1876  -10.8451   -5.2555 C   0  0  0  0  0  0  0  0  0  0  0  0
   -7.7772   -9.5782   -5.8081 C   0  0  0  0  0  0  0  0  0  0  0  0
   -7.5307   -8.3638   -5.1510 C   0  0  0  0  0  0  0  0  0  0  0  0
   -8.0408   -7.2337   -5.7889 C   0  0  0  0  0  0  0  0  0  0  0  0
   -7.2956   -6.9753   -7.0281 N   0  0  0  0  0  0  0  0  0  0  0  0
   -7.4978   -5.6673   -7.6169 C   0  0  0  0  0  0  0  0  0  0  0  0
   -6.7493   -4.9957   -8.5797 N   0  0  0  0  0  0  0  0  0  0  0  0
   -7.4042   -3.7930   -8.7333 O   0  0  0  0  0  0  0  0  0  0  0  0
   -8.5003   -3.7435   -7.9047 C   0  0  0  0  0  0  0  0  0  0  0  0
   -9.4873   -2.5972   -7.7624 C   0  0  0  0  0  0  0  0  0  0  0  0
  -10.6988   -2.6690   -6.7877 C   0  0  0  0  0  0  0  0  0  0  0  0
  -10.6800   -3.9110   -6.1221 C   0  0  0  0  0  0  0  0  0  0  0  0
   -9.6477   -5.0375   -6.3017 C   0  0  0  0  0  0  0  0  0  0  0  0
   -8.5936   -4.8972   -7.1968 C   0  0  0  0  0  0  0  0  0  0  0  0
  1  2  3  0
  2  3  1  0
  3  4  1  0
  4  5  1  0
  5  6  1  0
  6  7  2  0
  7  8  1  0
  8  9  1  0
  9 10  2  0
 10 11  1  0
 11 12  2  0
 12 13  1  0
 13 14  2  0
 14  6  1  0
 14  9  1  0
A    1
 C1 
A    2
 C2 
A    3
 C3 
A    4
 C4 
A    5
 N1 
A    6
 C5 
A    7
 N2 
A    8
 O1 
A    9
 C6 
A   10
 C7 
A   11
 C8 
A   12
 C9 
A   13
 C10
A   14
 C11
M  END
>  <ref_pdb>  (20) 
X0147_0A

>  <ref_mols>  (20) 
x0147_0A

>  <original SMILES>  (20) 
C#CCCNc1noc2ccccc12

>  <∆∆G>  (20) 
-6.173018

>  <comRMSD>  (20) 
0.282144

$$$$
PV-002105354090
     RDKit          3D

 11 11  0  0  0  0  0  0  0  0999 V2000
   -6.4400   -6.5966   -8.5430 C   0  0  0  0  0  0  0  0  0  0  0  0
   -7.4771   -5.6887   -7.9868 C   0  0  0  0  0  0  0  0  0  0  0  0
   -7.4855   -4.3440   -8.5795 C   0  0  0  0  0  0  0  0  0  0  0  0
   -8.5248   -3.4560   -8.0675 C   0  0  0  0  0  0  0  0  0  0  0  0
   -9.4433   -3.8840   -7.0712 C   0  0  0  0  0  0  0  0  0  0  0  0
  -10.3988   -2.9610   -6.6898 C   0  0  0  0  0  0  0  0  0  0  0  0
  -10.8807   -2.2907   -7.8763 N   0  0  0  0  0  0  0  0  0  0  0  0
  -10.8349   -2.6808   -5.5817 O   0  0  0  0  0  0  0  0  0  0  0  0
   -9.3832   -5.1354   -6.5354 C   0  0  0  0  0  0  0  0  0  0  0  0
  -10.4227   -5.7814   -5.3148 Cl  0  0  0  0  0  0  0  0  0  0  0  0
   -8.4345   -6.0401   -6.9581 C   0  0  0  0  0  0  0  0  0  0  0  0
  1  2  1  0
  2  3  2  0
  3  4  1  0
  4  5  2  0
  5  6  1  0
  6  7  1  0
  6  8  2  0
  5  9  1  0
  9 10  1  0
  9 11  2  0
 11  2  1  0
A    1
 C1 
A    2
 C2 
A    3
 C3 
A    4
 C4 
A    5
 C5 
A    6
 C6 
A    7
 N1 
A    8
 O1 
A    9
 C7 
A   10
CL1 
A   11
 C8 
M  END
>  <ref_pdb>  (21) 
X0147_0A

>  <ref_mols>  (21) 
x0147_0A

>  <original SMILES>  (21) 
Cc1ccc(C(N)=O)c(Cl)c1

>  <∆∆G>  (21) 
-6.157483

>  <comRMSD>  (21) 
1.529228

$$$$
PV-002921740210
     RDKit          3D

 10 10  0  0  0  0  0  0  0  0999 V2000
  -10.7873   -7.0048   -4.3972 C   0  0  0  0  0  0  0  0  0  0  0  0
   -9.4011   -6.8123   -4.8636 C   0  0  0  0  0  0  0  0  0  0  0  0
   -8.8980   -6.0751   -5.9015 C   0  0  0  0  0  0  0  0  0  0  0  0
   -7.8741   -6.7533   -6.5697 C   0  0  0  0  0  0  0  0  0  0  0  0
   -7.1815   -6.1891   -7.7094 C   0  0  0  0  0  0  0  0  0  0  0  0
   -7.5924   -4.8067   -8.1771 C   0  0  0  0  0  0  0  0  0  0  0  0
   -7.0331   -4.2990   -9.1354 O   0  0  0  0  0  0  0  0  0  0  0  0
   -8.6436   -4.1964   -7.4276 C   0  0  0  0  0  0  0  0  0  0  0  0
   -9.0753   -2.8003   -7.8755 C   0  0  0  0  0  0  0  0  0  0  0  0
   -9.2714   -4.8087   -6.3327 C   0  0  0  0  0  0  0  0  0  0  0  0
  1  2  2  3
  2  3  1  0
  3  4  2  0
  4  5  1  0
  5  6  2  0
  6  7  1  0
  6  8  1  0
  8  9  1  0
  8 10  2  0
 10  3  1  0
A    1
 C1 
A    2
 C2 
A    3
 C3 
A    4
 C4 
A    5
 C5 
A    6
 C6 
A    7
 O1 
A    8
 C7 
A    9
 C8 
A   10
 C9 
M  END
>  <ref_pdb>  (22) 
X0147_0A

>  <ref_mols>  (22) 
x0147_0A

>  <original SMILES>  (22) 
C=Cc1ccc(O)c(C)c1

>  <∆∆G>  (22) 
-6.135605

>  <comRMSD>  (22) 
0.757987

$$$$
PV-002958889800
     RDKit          3D

 16 18  0  0  0  0  0  0  0  0999 V2000
  -12.6677   -6.4271   -6.1405 C   0  0  0  0  0  0  0  0  0  0  0  0
  -12.5944   -5.6762   -5.0502 C   0  0  0  0  0  0  0  0  0  0  0  0
  -11.6404   -4.6833   -4.8341 C   0  0  0  0  0  0  0  0  0  0  0  0
  -10.5500   -4.3824   -5.8712 C   0  0  0  0  0  0  0  0  0  0  0  0
  -10.5432   -3.0713   -6.4344 C   0  0  0  0  0  0  0  0  0  0  0  0
   -9.7139   -2.5792   -7.3375 N   0  0  0  0  0  0  0  0  0  0  0  0
   -8.7027   -3.5456   -7.7714 C   0  0  0  0  0  0  0  0  0  0  0  0
   -7.7208   -3.3111   -8.6934 O   0  0  0  0  0  0  0  0  0  0  0  0
   -6.9430   -4.4274   -8.8674 N   0  0  0  0  0  0  0  0  0  0  0  0
   -7.4706   -5.3331   -8.0395 C   0  0  0  0  0  0  0  0  0  0  0  0
   -6.8518   -6.6834   -7.9782 C   0  0  0  0  0  0  0  0  0  0  0  0
   -8.5776   -4.8380   -7.3256 C   0  0  0  0  0  0  0  0  0  0  0  0
   -9.5838   -5.3129   -6.2815 C   0  0  0  0  0  0  0  0  0  0  0  0
  -11.8136   -4.0671   -3.6362 O   0  0  0  0  0  0  0  0  0  0  0  0
  -12.8997   -4.6808   -3.0690 C   0  0  0  0  0  0  0  0  0  0  0  0
  -13.4103   -5.6708   -3.8863 C   0  0  0  0  0  0  0  0  0  0  0  0
  1  2  1  0
  2  3  2  0
  3  4  1  0
  4  5  2  0
  5  6  1  0
  6  7  2  0
  7  8  1  0
  8  9  1  0
  9 10  2  0
 10 11  1  0
 10 12  1  0
 12 13  2  0
  3 14  1  0
 14 15  1  0
 15 16  2  0
 16  2  1  0
 13  4  1  0
 12  7  1  0
A    1
 C1 
A    2
 C2 
A    3
 C3 
A    4
 C4 
A    5
 C5 
A    6
 N1 
A    7
 C6 
A    8
 O1 
A    9
 N2 
A   10
 C7 
A   11
 C8 
A   12
 C9 
A   13
 C10
A   14
 O2 
A   15
 C11
A   16
 C12
M  END
>  <ref_pdb>  (23) 
X0147_0A

>  <ref_mols>  (23) 
x0147_0A

>  <original SMILES>  (23) 
Cc1ccoc1-c1cnc2onc(C)c2c1

>  <∆∆G>  (23) 
-5.969308

>  <comRMSD>  (23) 
0.506035

$$$$
PV-002826935007
     RDKit          3D

 19 21  0  0  0  0  0  0  0  0999 V2000
   -6.2133   -7.0343   -2.4229 C   0  0  0  0  0  0  0  0  0  0  0  0
   -6.2964   -7.3078   -3.9010 C   0  0  0  0  0  0  0  0  0  0  0  0
   -5.7375   -8.5251   -4.4689 C   0  0  0  0  0  0  0  0  0  0  0  0
   -5.8097   -8.7548   -5.8377 C   0  0  0  0  0  0  0  0  0  0  0  0
   -6.4174   -7.8174   -6.7274 C   0  0  0  0  0  0  0  0  0  0  0  0
   -6.4860   -7.9710   -8.1099 C   0  0  0  0  0  0  0  0  0  0  0  0
   -6.9699   -6.6831   -6.1754 C   0  0  0  0  0  0  0  0  0  0  0  0
   -7.6645   -5.6168   -6.8497 C   0  0  0  0  0  0  0  0  0  0  0  0
   -7.1970   -4.7985   -7.9023 C   0  0  0  0  0  0  0  0  0  0  0  0
   -7.8960   -3.7766   -8.4486 N   0  0  0  0  0  0  0  0  0  0  0  0
   -9.1131   -3.6395   -7.8653 C   0  0  0  0  0  0  0  0  0  0  0  0
  -10.0271   -2.6918   -8.1910 N   0  0  0  0  0  0  0  0  0  0  0  0
  -11.1719   -2.8001   -7.4523 C   0  0  0  0  0  0  0  0  0  0  0  0
  -10.9544   -3.8495   -6.6471 C   0  0  0  0  0  0  0  0  0  0  0  0
  -12.1525   -4.1312   -5.7538 C   0  0  0  0  0  0  0  0  0  0  0  0
  -13.0679   -4.3508   -5.0775 N   0  0  0  0  0  0  0  0  0  0  0  0
   -9.6870   -4.3849   -6.8600 C   0  0  0  0  0  0  0  0  0  0  0  0
   -8.9132   -5.4227   -6.3351 C   0  0  0  0  0  0  0  0  0  0  0  0
   -6.8982   -6.4430   -4.7910 C   0  0  0  0  0  0  0  0  0  0  0  0
  1  2  1  0
  2  3  2  0
  3  4  1  0
  4  5  2  0
  5  6  1  0
  5  7  1  0
  7  8  1  0
  8  9  2  0
  9 10  1  0
 10 11  2  0
 11 12  1  0
 12 13  1  0
 13 14  2  0
 14 15  1  0
 15 16  3  0
 14 17  1  0
 17 18  2  0
  7 19  2  0
 19  2  1  0
 18  8  1  0
 17 11  1  0
A    1
 C1 
A    2
 C2 
A    3
 C3 
A    4
 C4 
A    5
 C5 
A    6
 C6 
A    7
 C7 
A    8
 C8 
A    9
 C9 
A   10
 N1 
A   11
 C10
A   12
 N2 
A   13
 C11
A   14
 C12
A   15
 C13
A   16
 N3 
A   17
 C14
A   18
 C15
A   19
 C16
M  END
>  <ref_pdb>  (24) 
X0147_0A

>  <ref_mols>  (24) 
x0147_0A

>  <original SMILES>  (24) 
Cc1ccc(C)c(-c2cnc3[nH]cc(C#N)c3c2)c1

>  <∆∆G>  (24) 
-5.932121

>  <comRMSD>  (24) 
1.531098

$$$$
Z4745340466
     RDKit          3D

 13 14  0  0  0  0  0  0  0  0999 V2000
   -6.4497   -6.6700   -8.9504 C   0  0  0  0  0  0  0  0  0  0  0  0
   -7.2268   -6.0368   -7.9383 N   0  0  0  0  0  0  0  0  0  0  0  0
   -7.7609   -6.7066   -6.8853 C   0  0  0  0  0  0  0  0  0  0  0  0
   -8.8217   -6.1743   -6.1861 C   0  0  0  0  0  0  0  0  0  0  0  0
   -9.3181   -4.8903   -6.5842 C   0  0  0  0  0  0  0  0  0  0  0  0
  -10.5177   -4.1890   -6.1137 C   0  0  0  0  0  0  0  0  0  0  0  0
  -11.7008   -4.9281   -4.8279 Br  0  0  0  0  0  0  0  0  0  0  0  0
  -10.8494   -2.9586   -6.5760 C   0  0  0  0  0  0  0  0  0  0  0  0
  -10.1237   -2.2769   -7.4972 N   0  0  0  0  0  0  0  0  0  0  0  0
   -8.9952   -2.9325   -7.9538 C   0  0  0  0  0  0  0  0  0  0  0  0
   -8.5881   -4.1873   -7.5384 C   0  0  0  0  0  0  0  0  0  0  0  0
   -7.4442   -4.7242   -8.0923 C   0  0  0  0  0  0  0  0  0  0  0  0
   -6.6842   -4.0482   -8.6986 O   0  0  0  0  0  0  0  0  0  0  0  0
  1  2  1  0
  2  3  1  0
  3  4  2  0
  4  5  1  0
  5  6  2  0
  6  7  1  0
  6  8  1  0
  8  9  2  0
  9 10  1  0
 10 11  2  0
 11 12  1  0
 12 13  2  0
 12  2  1  0
 11  5  1  0
A    1
 C1 
A    2
 N1 
A    3
 C2 
A    4
 C3 
A    5
 C4 
A    6
 C5 
A    7
BR1 
A    8
 C6 
A    9
 N2 
A   10
 C7 
A   11
 C8 
A   12
 C9 
A   13
 O1 
M  END
>  <ref_pdb>  (25) 
X0147_0A

>  <ref_mols>  (25) 
x0147_0A

>  <original SMILES>  (25) 
Cn1ccc2c(Br)cncc2c1=O

>  <∆∆G>  (25) 
-5.908304

>  <comRMSD>  (25) 
1.808229

$$$$
PV-002852734201
     RDKit          3D

 16 18  0  0  0  0  0  0  0  0999 V2000
  -12.5432   -6.1389   -6.4236 C   0  0  0  0  0  0  0  0  0  0  0  0
  -12.5365   -5.5370   -5.0452 C   0  0  0  0  0  0  0  0  0  0  0  0
  -11.5323   -4.5070   -4.6659 C   0  0  0  0  0  0  0  0  0  0  0  0
  -10.5271   -4.1368   -5.7693 C   0  0  0  0  0  0  0  0  0  0  0  0
  -10.5255   -2.8327   -6.4494 C   0  0  0  0  0  0  0  0  0  0  0  0
   -9.5980   -2.5666   -7.4338 N   0  0  0  0  0  0  0  0  0  0  0  0
   -8.6874   -3.5391   -7.7577 C   0  0  0  0  0  0  0  0  0  0  0  0
   -7.6944   -3.4525   -8.7080 O   0  0  0  0  0  0  0  0  0  0  0  0
   -6.9358   -4.6037   -8.7999 N   0  0  0  0  0  0  0  0  0  0  0  0
   -7.4765   -5.4204   -7.8768 C   0  0  0  0  0  0  0  0  0  0  0  0
   -7.0997   -6.7976   -7.4943 C   0  0  0  0  0  0  0  0  0  0  0  0
   -8.6362   -4.7834   -7.1556 C   0  0  0  0  0  0  0  0  0  0  0  0
   -9.5667   -5.0981   -6.1432 C   0  0  0  0  0  0  0  0  0  0  0  0
  -11.8030   -4.1608   -3.3800 N   0  0  0  0  0  0  0  0  0  0  0  0
  -12.8703   -4.8617   -2.8870 N   0  0  0  0  0  0  0  0  0  0  0  0
  -13.3049   -5.6843   -3.8743 C   0  0  0  0  0  0  0  0  0  0  0  0
  1  2  1  0
  2  3  2  0
  3  4  1  0
  4  5  2  0
  5  6  1  0
  6  7  2  0
  7  8  1  0
  8  9  1  0
  9 10  2  0
 10 11  1  0
 10 12  1  0
 12 13  2  0
  3 14  1  0
 14 15  1  0
 15 16  2  0
 16  2  1  0
 13  4  1  0
 12  7  1  0
A    1
 C1 
A    2
 C2 
A    3
 C3 
A    4
 C4 
A    5
 C5 
A    6
 N1 
A    7
 C6 
A    8
 O1 
A    9
 N2 
A   10
 C7 
A   11
 C8 
A   12
 C9 
A   13
 C10
A   14
 N3 
A   15
 N4 
A   16
 C11
M  END
>  <ref_pdb>  (26) 
X0147_0A

>  <ref_mols>  (26) 
x0147_0A

>  <original SMILES>  (26) 
Cc1cn[nH]c1-c1cnc2onc(C)c2c1

>  <∆∆G>  (26) 
-5.831169

>  <comRMSD>  (26) 
0.466464

$$$$
PV-002761870155
     RDKit          3D

  8  8  0  0  0  0  0  0  0  0999 V2000
   -9.1545   -2.8187   -7.7884 C   0  0  0  0  0  0  0  0  0  0  0  0
   -8.8615   -4.2458   -7.7263 N   0  0  0  0  0  0  0  0  0  0  0  0
   -9.5763   -4.8437   -6.5945 C   0  0  0  0  0  0  0  0  0  0  0  0
   -9.1368   -6.0010   -6.0266 C   0  0  0  0  0  0  0  0  0  0  0  0
   -7.9752   -6.5190   -6.6398 C   0  0  0  0  0  0  0  0  0  0  0  0
   -7.2661   -5.9969   -7.6368 C   0  0  0  0  0  0  0  0  0  0  0  0
   -7.6448   -4.7818   -8.1990 C   0  0  0  0  0  0  0  0  0  0  0  0
   -6.8979   -4.2836   -9.0415 O   0  0  0  0  0  0  0  0  0  0  0  0
  1  2  1  0
  2  3  1  0
  3  4  2  0
  4  5  1  0
  5  6  2  0
  6  7  1  0
  7  8  2  0
  7  2  1  0
A    1
 C1 
A    2
 N1 
A    3
 C2 
A    4
 C3 
A    5
 C4 
A    6
 C5 
A    7
 C6 
A    8
 O1 
M  END
>  <ref_pdb>  (27) 
X0147_0A

>  <ref_mols>  (27) 
x0147_0A

>  <original SMILES>  (27) 
Cn1ccccc1=O

>  <∆∆G>  (27) 
-5.828651

>  <comRMSD>  (27) 
0.723779

$$$$
PV-003179973012
     RDKit          3D

 11 11  0  0  0  0  0  0  0  0999 V2000
  -11.7606   -2.0720   -6.1792 C   0  0  0  0  0  0  0  0  0  0  0  0
  -10.6593   -2.9943   -6.5676 C   0  0  0  0  0  0  0  0  0  0  0  0
  -10.4926   -4.2463   -5.9916 C   0  0  0  0  0  0  0  0  0  0  0  0
   -9.2953   -5.0471   -6.5318 C   0  0  0  0  0  0  0  0  0  0  0  0
   -9.1977   -6.3384   -5.8674 C   0  0  0  0  0  0  0  0  0  0  0  0
   -8.4885   -4.5143   -7.5133 C   0  0  0  0  0  0  0  0  0  0  0  0
   -7.2932   -5.2251   -8.1226 C   0  0  0  0  0  0  0  0  0  0  0  0
   -6.9493   -6.4626   -7.7317 N   0  0  0  0  0  0  0  0  0  0  0  0
   -6.6536   -4.6467   -9.0013 O   0  0  0  0  0  0  0  0  0  0  0  0
   -8.8098   -3.2569   -7.9548 C   0  0  0  0  0  0  0  0  0  0  0  0
   -9.8316   -2.5148   -7.5256 N   0  0  0  0  0  0  0  0  0  0  0  0
  1  2  1  0
  2  3  2  0
  3  4  1  0
  4  5  1  0
  4  6  2  0
  6  7  1  0
  7  8  1  0
  7  9  2  0
  6 10  1  0
 10 11  2  0
 11  2  1  0
A    1
 C1 
A    2
 C2 
A    3
 C3 
A    4
 C4 
A    5
 C5 
A    6
 C6 
A    7
 C7 
A    8
 N1 
A    9
 O1 
A   10
 C8 
A   11
 N2 
M  END
>  <ref_pdb>  (28) 
X0147_0A

>  <ref_mols>  (28) 
x0147_0A

>  <original SMILES>  (28) 
Cc1cc(C)c(C(N)=O)cn1

>  <∆∆G>  (28) 
-5.810263

>  <comRMSD>  (28) 
0.830196

$$$$
PV-003414451731
     RDKit          3D

 13 14  0  0  0  0  0  0  0  0999 V2000
   -6.7890   -7.3529   -5.9158 C   0  0  0  0  0  0  0  0  0  0  0  0
   -6.8813   -6.9930   -7.2631 C   0  0  0  0  0  0  0  0  0  0  0  0
   -6.5000   -7.7757   -8.3564 C   0  0  0  0  0  0  0  0  0  0  0  0
   -6.8676   -9.1689   -8.1542 O   0  0  0  0  0  0  0  0  0  0  0  0
   -7.3845   -5.7004   -7.6683 C   0  0  0  0  0  0  0  0  0  0  0  0
   -6.7359   -4.9929   -8.5931 N   0  0  0  0  0  0  0  0  0  0  0  0
   -7.4364   -3.8694   -8.7173 N   0  0  0  0  0  0  0  0  0  0  0  0
   -8.5167   -3.8215   -7.9121 C   0  0  0  0  0  0  0  0  0  0  0  0
   -9.5797   -2.8349   -7.6693 C   0  0  0  0  0  0  0  0  0  0  0  0
  -10.6974   -3.0759   -6.6748 C   0  0  0  0  0  0  0  0  0  0  0  0
  -10.6197   -4.3153   -6.0124 C   0  0  0  0  0  0  0  0  0  0  0  0
   -9.5897   -5.1838   -6.2902 C   0  0  0  0  0  0  0  0  0  0  0  0
   -8.5417   -4.9966   -7.2017 C   0  0  0  0  0  0  0  0  0  0  0  0
  1  2  2  3
  2  3  1  0
  3  4  1  0
  2  5  1  0
  5  6  2  0
  6  7  1  0
  7  8  1  0
  8  9  2  0
  9 10  1  0
 10 11  2  0
 11 12  1  0
 12 13  2  0
 13  5  1  0
 13  8  1  0
A    1
 C1 
A    2
 C2 
A    3
 C3 
A    4
 O1 
A    5
 C4 
A    6
 N1 
A    7
 N2 
A    8
 C5 
A    9
 C6 
A   10
 C7 
A   11
 C8 
A   12
 C9 
A   13
 C10
M  END
>  <ref_pdb>  (29) 
X0147_0A

>  <ref_mols>  (29) 
x0147_0A

>  <original SMILES>  (29) 
C=C(CO)c1n[nH]c2ccccc12

>  <∆∆G>  (29) 
-5.790241

>  <comRMSD>  (29) 
0.563956

$$$$
PV-002845338675
     RDKit          3D

 13 14  0  0  0  0  0  0  0  0999 V2000
   -5.4255   -8.1058   -5.4771 C   0  0  0  0  0  0  0  0  0  0  0  0
   -6.6200   -7.3989   -5.7795 O   0  0  0  0  0  0  0  0  0  0  0  0
   -6.8773   -7.2912   -7.1837 C   0  0  0  0  0  0  0  0  0  0  0  0
   -6.7196   -8.1782   -8.0619 O   0  0  0  0  0  0  0  0  0  0  0  0
   -7.4005   -5.8920   -7.6189 C   0  0  0  0  0  0  0  0  0  0  0  0
   -6.6431   -5.2282   -8.6274 N   0  0  0  0  0  0  0  0  0  0  0  0
   -7.3419   -4.0765   -8.7309 N   0  0  0  0  0  0  0  0  0  0  0  0
   -8.4906   -4.0042   -7.8410 C   0  0  0  0  0  0  0  0  0  0  0  0
   -9.4172   -2.8483   -7.7526 C   0  0  0  0  0  0  0  0  0  0  0  0
  -10.5587   -3.0336   -6.7314 C   0  0  0  0  0  0  0  0  0  0  0  0
  -10.6165   -4.3531   -5.9302 C   0  0  0  0  0  0  0  0  0  0  0  0
   -9.5748   -5.4557   -6.1314 C   0  0  0  0  0  0  0  0  0  0  0  0
   -8.5091   -5.1721   -7.1519 C   0  0  0  0  0  0  0  0  0  0  0  0
  1  2  1  0
  2  3  1  0
  3  4  2  0
  3  5  1  0
  5  6  2  0
  6  7  1  0
  7  8  1  0
  8  9  2  0
  9 10  1  0
 10 11  2  0
 11 12  1  0
 12 13  2  0
 13  5  1  0
 13  8  1  0
A    1
 C1 
A    2
 O1 
A    3
 C2 
A    4
 O2 
A    5
 C3 
A    6
 N1 
A    7
 N2 
A    8
 C4 
A    9
 C5 
A   10
 C6 
A   11
 C7 
A   12
 C8 
A   13
 C9 
M  END
>  <ref_pdb>  (30) 
X0147_0A

>  <ref_mols>  (30) 
x0147_0A

>  <original SMILES>  (30) 
COC(=O)c1n[nH]c2ccccc12

>  <∆∆G>  (30) 
-5.759463

>  <comRMSD>  (30) 
0.836882

$$$$
PV-002727128113
     RDKit          3D

 16 18  0  0  0  0  0  0  0  0999 V2000
  -11.7164   -2.1350   -5.9821 C   0  0  0  0  0  0  0  0  0  0  0  0
  -10.7666   -3.0304   -6.2973 C   0  0  0  0  0  0  0  0  0  0  0  0
   -9.7680   -2.7566   -7.3833 C   0  0  0  0  0  0  0  0  0  0  0  0
   -8.8006   -3.7055   -7.6825 C   0  0  0  0  0  0  0  0  0  0  0  0
   -8.7334   -4.8889   -7.0086 C   0  0  0  0  0  0  0  0  0  0  0  0
   -7.7001   -5.6274   -7.5004 C   0  0  0  0  0  0  0  0  0  0  0  0
   -7.0441   -4.9428   -8.5331 N   0  0  0  0  0  0  0  0  0  0  0  0
   -7.7699   -3.7681   -8.5940 N   0  0  0  0  0  0  0  0  0  0  0  0
   -9.6546   -5.1787   -5.9820 C   0  0  0  0  0  0  0  0  0  0  0  0
  -10.6687   -4.2648   -5.6232 C   0  0  0  0  0  0  0  0  0  0  0  0
  -11.6377   -4.6143   -4.5345 C   0  0  0  0  0  0  0  0  0  0  0  0
  -12.5411   -5.7265   -4.9365 C   0  0  0  0  0  0  0  0  0  0  0  0
  -12.2074   -6.1020   -6.2301 C   0  0  0  0  0  0  0  0  0  0  0  0
  -13.3871   -5.9622   -3.8410 C   0  0  0  0  0  0  0  0  0  0  0  0
  -12.9287   -4.9123   -2.7970 C   0  0  0  0  0  0  0  0  0  0  0  0
  -11.8704   -4.1112   -3.2376 O   0  0  0  0  0  0  0  0  0  0  0  0
  1  2  1  0
  2  3  2  0
  3  4  1  0
  4  5  2  0
  5  6  1  0
  6  7  2  0
  7  8  1  0
  5  9  1  0
  9 10  2  0
 10 11  1  0
 11 12  2  0
 12 13  1  0
 12 14  1  0
 14 15  2  0
 15 16  1  0
 10  2  1  0
  8  4  1  0
 16 11  1  0
A    1
 C1 
A    2
 C2 
A    3
 C3 
A    4
 C4 
A    5
 C5 
A    6
 C6 
A    7
 N1 
A    8
 N2 
A    9
 C7 
A   10
 C8 
A   11
 C9 
A   12
 C10
A   13
 C11
A   14
 C12
A   15
 C13
A   16
 O1 
M  END
>  <ref_pdb>  (31) 
X0147_0A

>  <ref_mols>  (31) 
x0147_0A

>  <original SMILES>  (31) 
Cc1cc2[nH]ncc2cc1-c1occc1C

>  <∆∆G>  (31) 
-5.707793

>  <comRMSD>  (31) 
0.551079

$$$$
PV-003776036086
     RDKit          3D

 10 10  0  0  0  0  0  0  0  0999 V2000
  -12.0469   -2.3045   -7.4813 C   0  0  0  0  0  0  0  0  0  0  0  0
  -10.8733   -3.1895   -7.3887 C   0  0  0  0  0  0  0  0  0  0  0  0
   -9.5192   -3.1228   -7.6734 C   0  0  0  0  0  0  0  0  0  0  0  0
   -8.7950   -4.3236   -7.3851 C   0  0  0  0  0  0  0  0  0  0  0  0
   -9.2463   -5.0837   -6.2034 C   0  0  0  0  0  0  0  0  0  0  0  0
   -8.6570   -6.2393   -5.8445 C   0  0  0  0  0  0  0  0  0  0  0  0
   -7.5141   -6.7712   -6.6592 C   0  0  0  0  0  0  0  0  0  0  0  0
   -7.1085   -6.0335   -7.7641 C   0  0  0  0  0  0  0  0  0  0  0  0
   -7.7049   -4.8385   -8.1472 C   0  0  0  0  0  0  0  0  0  0  0  0
   -7.1614   -4.2726   -9.2601 O   0  0  0  0  0  0  0  0  0  0  0  0
  1  2  1  0
  2  3  2  0
  3  4  1  0
  4  5  2  0
  5  6  1  0
  6  7  2  0
  7  8  1  0
  8  9  2  0
  9 10  1  0
  9  4  1  0
A    1
 C1 
A    2
 C2 
A    3
 C3 
A    4
 C4 
A    5
 C5 
A    6
 C6 
A    7
 C7 
A    8
 C8 
A    9
 C9 
A   10
 O1 
M  END
>  <ref_pdb>  (32) 
X0147_0A

>  <ref_mols>  (32) 
x0147_0A

>  <original SMILES>  (32) 
C/C=C/c1ccccc1O

>  <∆∆G>  (32) 
-5.696349

>  <comRMSD>  (32) 
0.836085

$$$$
PV-002406764552
     RDKit          3D

 13 14  0  0  0  0  0  0  0  0999 V2000
   -6.3080  -10.6334   -5.6800 C   0  0  0  0  0  0  0  0  0  0  0  0
   -7.3124   -9.5979   -6.1760 C   0  0  2  0  0  0  0  0  0  0  0  0
   -6.6905   -8.6305   -7.1626 C   0  0  0  0  0  0  0  0  0  0  0  0
   -7.3131   -7.4138   -6.8604 C   0  0  0  0  0  0  0  0  0  0  0  0
   -7.2168   -6.2734   -7.7773 C   0  0  0  0  0  0  0  0  0  0  0  0
   -7.9135   -5.2135   -7.2260 C   0  0  0  0  0  0  0  0  0  0  0  0
   -7.8605   -4.0044   -8.1332 C   0  0  0  0  0  0  0  0  0  0  0  0
   -8.7319   -2.9740   -8.0510 N   0  0  0  0  0  0  0  0  0  0  0  0
   -6.9291   -4.0653   -8.9444 O   0  0  0  0  0  0  0  0  0  0  0  0
   -8.5835   -5.2850   -5.9675 C   0  0  0  0  0  0  0  0  0  0  0  0
   -8.6188   -6.4199   -5.1720 C   0  0  0  0  0  0  0  0  0  0  0  0
   -7.9024   -7.5989   -5.6975 C   0  0  0  0  0  0  0  0  0  0  0  0
   -7.7219   -8.8935   -5.2062 O   0  0  0  0  0  0  0  0  0  0  0  0
  2  1  1  1
  2  3  1  0
  3  4  1  0
  4  5  2  0
  5  6  1  0
  6  7  1  0
  7  8  1  0
  7  9  2  0
  6 10  2  0
 10 11  1  0
 11 12  2  0
 12 13  1  0
 13  2  1  0
 12  4  1  0
A    1
 C1 
A    2
 C2 
A    3
 C3 
A    4
 C4 
A    5
 C5 
A    6
 C6 
A    7
 C7 
A    8
 N1 
A    9
 O1 
A   10
 C8 
A   11
 C9 
A   12
 C10
A   13
 O2 
M  END
>  <ref_pdb>  (33) 
X0147_0A

>  <ref_mols>  (33) 
x0147_0A

>  <original SMILES>  (33) 
C[C@@H]1Cc2cc(C(N)=O)ccc2O1

>  <∆∆G>  (33) 
-5.630178

>  <comRMSD>  (33) 
0.630185

$$$$
PV-002729623576
     RDKit          3D

 18 20  0  0  0  0  0  0  0  0999 V2000
   -7.2822   -6.7198   -7.1656 C   0  0  0  0  0  0  0  0  0  0  0  0
   -7.6295   -5.5105   -7.5879 C   0  0  0  0  0  0  0  0  0  0  0  0
   -6.9288   -4.9124   -8.5686 N   0  0  0  0  0  0  0  0  0  0  0  0
   -7.5555   -3.6987   -8.7409 O   0  0  0  0  0  0  0  0  0  0  0  0
   -8.6036   -3.5762   -7.8862 C   0  0  0  0  0  0  0  0  0  0  0  0
   -9.3970   -2.4970   -7.8276 N   0  0  0  0  0  0  0  0  0  0  0  0
  -10.3715   -2.6193   -6.8994 C   0  0  0  0  0  0  0  0  0  0  0  0
  -10.6075   -3.7017   -6.0495 C   0  0  0  0  0  0  0  0  0  0  0  0
  -11.7480   -3.6043   -5.1055 C   0  0  0  0  0  0  0  0  0  0  0  0
  -12.2291   -2.3168   -4.8064 C   0  0  0  0  0  0  0  0  0  0  0  0
  -13.3084   -2.1281   -3.9346 C   0  0  0  0  0  0  0  0  0  0  0  0
  -13.8678   -0.5342   -3.6023 Cl  0  0  0  0  0  0  0  0  0  0  0  0
  -13.9321   -3.2165   -3.3380 C   0  0  0  0  0  0  0  0  0  0  0  0
  -13.4736   -4.5046   -3.6135 C   0  0  0  0  0  0  0  0  0  0  0  0
  -12.3872   -4.7156   -4.4915 C   0  0  0  0  0  0  0  0  0  0  0  0
  -11.9893   -5.9782   -4.7218 F   0  0  0  0  0  0  0  0  0  0  0  0
   -9.7339   -4.8112   -6.1582 C   0  0  0  0  0  0  0  0  0  0  0  0
   -8.7069   -4.7166   -7.1154 C   0  0  0  0  0  0  0  0  0  0  0  0
  1  2  1  0
  2  3  2  0
  3  4  1  0
  4  5  1  0
  5  6  2  0
  6  7  1  0
  7  8  2  0
  8  9  1  0
  9 10  2  0
 10 11  1  0
 11 12  1  0
 11 13  2  0
 13 14  1  0
 14 15  2  0
 15 16  1  0
  8 17  1  0
 17 18  2  0
 18  2  1  0
 18  5  1  0
 15  9  1  0
A    1
 C1 
A    2
 C2 
A    3
 N1 
A    4
 O1 
A    5
 C3 
A    6
 N2 
A    7
 C4 
A    8
 C5 
A    9
 C6 
A   10
 C7 
A   11
 C8 
A   12
CL1 
A   13
 C9 
A   14
 C10
A   15
 C11
A   16
 F1 
A   17
 C12
A   18
 C13
M  END
>  <ref_pdb>  (34) 
X0147_0A

>  <ref_mols>  (34) 
x0147_0A

>  <original SMILES>  (34) 
Cc1noc2ncc(-c3cc(Cl)ccc3F)cc12

>  <∆∆G>  (34) 
-5.598633

>  <comRMSD>  (34) 
0.703261

$$$$
PV-003199743457
     RDKit          3D

 11 11  0  0  0  0  0  0  0  0999 V2000
   -6.6730   -6.6265   -8.1862 C   0  0  0  0  0  0  0  0  0  0  0  0
   -7.6290   -5.4984   -8.0847 C   0  0  0  0  0  0  0  0  0  0  0  0
   -6.9946   -4.4190   -8.8061 O   0  0  0  0  0  0  0  0  0  0  0  0
   -8.7713   -5.6116   -7.4614 N   0  0  0  0  0  0  0  0  0  0  0  0
   -9.3893   -4.5737   -6.8705 C   0  0  0  0  0  0  0  0  0  0  0  0
   -8.8633   -3.7985   -5.9781 N   0  0  0  0  0  0  0  0  0  0  0  0
   -9.7313   -2.8019   -5.6513 N   0  0  0  0  0  0  0  0  0  0  0  0
  -10.7349   -2.9221   -6.5681 C   0  0  0  0  0  0  0  0  0  0  0  0
  -11.5594   -2.0657   -6.8187 O   0  0  0  0  0  0  0  0  0  0  0  0
  -10.6524   -4.1859   -7.1358 N   0  0  0  0  0  0  0  0  0  0  0  0
  -11.8379   -4.9824   -7.3315 C   0  0  0  0  0  0  0  0  0  0  0  0
  1  2  1  0
  2  3  2  0
  2  4  1  0
  4  5  1  0
  5  6  2  0
  6  7  1  0
  7  8  1  0
  8  9  2  0
  8 10  1  0
 10 11  1  0
 10  5  1  0
A    1
 C1 
A    2
 C2 
A    3
 O1 
A    4
 N1 
A    5
 C3 
A    6
 N2 
A    7
 N3 
A    8
 C4 
A    9
 O2 
A   10
 N4 
A   11
 C5 
M  END
>  <ref_pdb>  (35) 
X0147_0A

>  <ref_mols>  (35) 
x0147_0A

>  <original SMILES>  (35) 
CC(=O)Nc1n[nH]c(=O)n1C

>  <∆∆G>  (35) 
-5.568436

>  <comRMSD>  (35) 
1.874973

$$$$
Z1473691176
     RDKit          3D

 23 25  0  0  0  0  0  0  0  0999 V2000
   -8.8189   -3.2034   -7.7939 N   0  0  0  0  0  0  0  0  0  0  0  0
   -7.8335   -4.1324   -7.9891 C   0  0  0  0  0  0  0  0  0  0  0  0
   -6.8756   -4.0761   -9.0400 O   0  0  0  0  0  0  0  0  0  0  0  0
   -7.7868   -5.2470   -7.0543 C   0  0  0  0  0  0  0  0  0  0  0  0
   -7.5648   -6.5668   -7.4909 C   0  0  0  0  0  0  0  0  0  0  0  0
   -7.5277   -7.7360   -6.5680 C   0  0  0  0  0  0  0  0  0  0  0  0
   -7.7112   -7.4057   -5.1340 C   0  0  0  0  0  0  0  0  0  0  0  0
   -7.9100   -5.9653   -4.8259 C   0  0  0  0  0  0  0  0  0  0  0  0
   -8.0210   -5.6653   -3.3918 N   0  0  0  0  0  0  0  0  0  0  0  0
   -6.5791   -5.5068   -3.1096 C   0  0  0  0  0  0  0  0  0  0  0  0
   -6.1052   -4.5756   -2.4913 O   0  0  0  0  0  0  0  0  0  0  0  0
   -5.8160   -6.5280   -3.6946 N   0  0  0  0  0  0  0  0  0  0  0  0
   -6.0875   -7.6676   -3.0809 C   0  0  0  0  0  0  0  0  0  0  0  0
   -5.4034   -7.9800   -1.7771 C   0  0  0  0  0  0  0  0  0  0  0  0
   -6.0566   -8.7628   -0.7942 C   0  0  0  0  0  0  0  0  0  0  0  0
   -5.4357   -9.0501    0.4245 C   0  0  0  0  0  0  0  0  0  0  0  0
   -4.1764   -8.5412    0.6169 C   0  0  0  0  0  0  0  0  0  0  0  0
   -3.4309   -8.7163    1.7482 O   0  0  0  0  0  0  0  0  0  0  0  0
   -2.3643   -7.7795    1.4696 C   0  0  0  0  0  0  0  0  0  0  0  0
   -2.3100   -7.4093    0.0827 O   0  0  0  0  0  0  0  0  0  0  0  0
   -3.5363   -7.7925   -0.3275 C   0  0  0  0  0  0  0  0  0  0  0  0
   -4.1164   -7.4928   -1.5335 C   0  0  0  0  0  0  0  0  0  0  0  0
   -7.9572   -4.9765   -5.7490 N   0  0  0  0  0  0  0  0  0  0  0  0
  1  2  1  0
  2  3  2  0
  2  4  1  0
  4  5  2  0
  5  6  1  0
  6  7  2  0
  7  8  1  0
  8  9  1  0
  9 10  1  0
 10 11  2  0
 10 12  1  0
 12 13  1  0
 13 14  1  0
 14 15  2  0
 15 16  1  0
 16 17  2  0
 17 18  1  0
 18 19  1  0
 19 20  1  0
 20 21  1  0
 21 22  2  0
  8 23  2  0
 23  4  1  0
 22 14  1  0
 21 17  1  0
A    1
 N1 
A    2
 C1 
A    3
 O1 
A    4
 C2 
A    5
 C3 
A    6
 C4 
A    7
 C5 
A    8
 C6 
A    9
 N2 
A   10
 C7 
A   11
 O2 
A   12
 N3 
A   13
 C8 
A   14
 C9 
A   15
 C10
A   16
 C11
A   17
 C12
A   18
 O3 
A   19
 C13
A   20
 O4 
A   21
 C14
A   22
 C15
A   23
 N4 
M  END
>  <ref_pdb>  (36) 
X0147_0A

>  <ref_mols>  (36) 
x0147_0A

>  <original SMILES>  (36) 
NC(=O)c1cccc(NC(=O)NCc2ccc3c(c2)OCO3)n1

>  <∆∆G>  (36) 
-5.563715

>  <comRMSD>  (36) 
0.863359

$$$$
Z1233540696
     RDKit          3D

 16 17  0  0  0  0  0  0  0  0999 V2000
   -8.9089   -3.2834   -7.9236 N   0  0  0  0  0  0  0  0  0  0  0  0
   -7.8460   -4.1120   -8.1461 C   0  0  0  0  0  0  0  0  0  0  0  0
   -6.9417   -3.9664   -9.2199 O   0  0  0  0  0  0  0  0  0  0  0  0
   -7.6047   -5.2205   -7.1764 C   0  0  0  0  0  0  0  0  0  0  0  0
   -7.4953   -6.5816   -7.7467 C   0  0  0  0  0  0  0  0  0  0  0  0
   -7.2580   -7.7259   -6.7606 C   0  0  0  0  0  0  0  0  0  0  0  0
   -7.0868   -7.4308   -5.3611 C   0  0  0  0  0  0  0  0  0  0  0  0
   -6.8288   -8.7355   -4.7278 C   0  0  0  0  0  0  0  0  0  0  0  0
   -6.7267   -9.7575   -5.8764 C   0  0  0  0  0  0  0  0  0  0  0  0
   -7.1743   -9.1123   -7.0310 C   0  0  0  0  0  0  0  0  0  0  0  0
   -7.1649   -6.1141   -4.8778 C   0  0  0  0  0  0  0  0  0  0  0  0
   -6.9017   -5.5700   -3.2340 S   0  0  0  0  0  6  0  0  0  0  0  0
   -5.4298   -6.3351   -2.9041 N   0  0  0  0  0  0  0  0  0  0  0  0
   -6.5524   -4.1582   -3.3281 O   0  0  0  0  0  0  0  0  0  0  0  0
   -7.8689   -6.0883   -2.2989 O   0  0  0  0  0  0  0  0  0  0  0  0
   -7.4699   -4.9745   -5.8336 C   0  0  0  0  0  0  0  0  0  0  0  0
  1  2  1  0
  2  3  2  0
  2  4  1  0
  4  5  2  0
  5  6  1  0
  6  7  2  0
  7  8  1  0
  8  9  1  0
  9 10  1  0
  7 11  1  0
 11 12  1  0
 12 13  1  0
 12 14  2  0
 12 15  2  0
 11 16  2  0
 16  4  1  0
 10  6  1  0
A    1
 N1 
A    2
 C1 
A    3
 O1 
A    4
 C2 
A    5
 C3 
A    6
 C4 
A    7
 C5 
A    8
 C6 
A    9
 C7 
A   10
 C8 
A   11
 C9 
A   12
 S1 
A   13
 N2 
A   14
 O2 
A   15
 O3 
A   16
 C10
M  END
>  <ref_pdb>  (37) 
X0147_0A

>  <ref_mols>  (37) 
x0147_0A

>  <original SMILES>  (37) 
NC(=O)c1cc2c(c(S(N)(=O)=O)c1)CCC2

>  <∆∆G>  (37) 
-5.540072

>  <comRMSD>  (37) 
0.808013

$$$$
Z2217587074
     RDKit          3D

 14 15  0  0  0  0  0  0  0  0999 V2000
   -7.1118  -10.4898   -7.0152 C   0  0  0  0  0  0  0  0  0  0  0  0
   -6.6669   -9.1432   -6.4764 C   0  0  0  0  0  0  0  0  0  0  0  0
   -6.4985   -8.1622   -7.5179 O   0  0  0  0  0  0  0  0  0  0  0  0
   -7.4363   -7.2009   -7.1307 N   0  0  0  0  0  0  0  0  0  0  0  0
   -7.5788   -5.9876   -7.6038 C   0  0  0  0  0  0  0  0  0  0  0  0
   -6.7840   -5.3759   -8.5773 C   0  0  0  0  0  0  0  0  0  0  0  0
   -7.2375   -3.9887   -8.7097 O   0  0  0  0  0  0  0  0  0  0  0  0
   -8.3411   -3.9126   -7.9080 C   0  0  0  0  0  0  0  0  0  0  0  0
   -9.1771   -2.8108   -7.7503 C   0  0  0  0  0  0  0  0  0  0  0  0
  -10.3981   -2.8852   -6.8139 C   0  0  0  0  0  0  0  0  0  0  0  0
  -10.5735   -4.1145   -6.1640 C   0  0  0  0  0  0  0  0  0  0  0  0
  -12.0320   -4.3700   -4.9858 Br  0  0  0  0  0  0  0  0  0  0  0  0
   -9.6965   -5.1697   -6.3661 C   0  0  0  0  0  0  0  0  0  0  0  0
   -8.6050   -5.0588   -7.2229 C   0  0  0  0  0  0  0  0  0  0  0  0
  1  2  1  0
  2  3  1  0
  3  4  1  0
  4  5  2  3
  5  6  1  0
  6  7  1  0
  7  8  1  0
  8  9  2  0
  9 10  1  0
 10 11  2  0
 11 12  1  0
 11 13  1  0
 13 14  2  0
 14  5  1  0
 14  8  1  0
A    1
 C1 
A    2
 C2 
A    3
 O1 
A    4
 N1 
A    5
 C3 
A    6
 C4 
A    7
 O2 
A    8
 C5 
A    9
 C6 
A   10
 C7 
A   11
 C8 
A   12
BR1 
A   13
 C9 
A   14
 C10
M  END
>  <ref_pdb>  (38) 
X0147_0A

>  <ref_mols>  (38) 
x0147_0A

>  <original SMILES>  (38) 
CCON=C1COc2ccc(Br)cc21

>  <∆∆G>  (38) 
-5.521292

>  <comRMSD>  (38) 
0.872372

$$$$
PV-002931973978
     RDKit          3D

 14 15  0  0  0  0  0  0  0  0999 V2000
   -6.2127   -9.5765   -5.4436 C   0  0  0  0  0  0  0  0  0  0  0  0
   -5.7145   -8.1424   -5.4725 C   0  0  0  0  0  0  0  0  0  0  0  0
   -6.6348   -7.3926   -5.7903 O   0  0  0  0  0  0  0  0  0  0  0  0
   -6.9148   -7.2662   -7.1222 C   0  0  0  0  0  0  0  0  0  0  0  0
   -6.7726   -8.2733   -7.8657 O   0  0  0  0  0  0  0  0  0  0  0  0
   -7.3259   -6.0093   -7.5959 C   0  0  0  0  0  0  0  0  0  0  0  0
   -6.5960   -5.4111   -8.5485 N   0  0  0  0  0  0  0  0  0  0  0  0
   -7.2645   -3.9836   -8.8829 S   0  0  0  0  0  0  0  0  0  0  0  0
   -8.5541   -4.0392   -7.8214 C   0  0  0  0  0  0  0  0  0  0  0  0
   -9.6546   -3.0002   -7.5733 C   0  0  0  0  0  0  0  0  0  0  0  0
  -10.6438   -3.4717   -6.5040 C   0  0  0  0  0  0  0  0  0  0  0  0
  -10.4913   -4.7220   -5.8700 C   0  0  0  0  0  0  0  0  0  0  0  0
   -9.4125   -5.5780   -6.2068 C   0  0  0  0  0  0  0  0  0  0  0  0
   -8.4574   -5.2431   -7.1684 C   0  0  0  0  0  0  0  0  0  0  0  0
  1  2  1  0
  2  3  1  0
  3  4  1  0
  4  5  2  0
  4  6  1  0
  6  7  2  0
  7  8  1  0
  8  9  1  0
  9 10  2  0
 10 11  1  0
 11 12  2  0
 12 13  1  0
 13 14  2  0
 14  6  1  0
 14  9  1  0
A    1
 C1 
A    2
 C2 
A    3
 O1 
A    4
 C3 
A    5
 O2 
A    6
 C4 
A    7
 N1 
A    8
 S1 
A    9
 C5 
A   10
 C6 
A   11
 C7 
A   12
 C8 
A   13
 C9 
A   14
 C10
M  END
>  <ref_pdb>  (39) 
X0147_0A

>  <ref_mols>  (39) 
x0147_0A

>  <original SMILES>  (39) 
CCOC(=O)c1nsc2ccccc12

>  <∆∆G>  (39) 
-5.51765

>  <comRMSD>  (39) 
0.884673

$$$$
PV-002774536365
     RDKit          3D

 11 11  0  0  0  0  0  0  0  0999 V2000
   -6.8856   -6.2033   -8.3840 C   0  0  0  0  0  0  0  0  0  0  0  0
   -7.7282   -5.9541   -7.1513 C   0  0  0  0  0  0  0  0  0  0  0  0
   -8.7136   -5.1098   -7.2415 N   0  0  0  0  0  0  0  0  0  0  0  0
   -8.5449   -3.9167   -7.8845 C   0  0  0  0  0  0  0  0  0  0  0  0
   -7.3725   -3.6500   -8.6534 O   0  0  0  0  0  0  0  0  0  0  0  0
   -9.4795   -2.9949   -7.8210 N   0  0  0  0  0  0  0  0  0  0  0  0
  -10.5158   -3.5079   -7.1627 C   0  0  0  0  0  0  0  0  0  0  0  0
  -10.3961   -4.1966   -5.9700 C   0  0  1  0  0  0  0  0  0  0  0  0
  -11.6887   -4.4670   -5.1942 C   0  0  0  0  0  0  0  0  0  0  0  0
   -9.6449   -5.2709   -6.2476 C   0  0  0  0  0  0  0  0  0  0  0  0
   -9.7664   -6.3293   -5.6320 O   0  0  0  0  0  0  0  0  0  0  0  0
  1  2  1  0
  2  3  1  0
  3  4  1  0
  4  5  2  0
  4  6  1  0
  6  7  1  0
  7  8  1  0
  8  9  1  6
  8 10  1  0
 10 11  2  0
 10  3  1  0
A    1
 C1 
A    2
 C2 
A    3
 N1 
A    4
 C3 
A    5
 O1 
A    6
 N2 
A    7
 C4 
A    8
 C5 
A    9
 C6 
A   10
 C7 
A   11
 O2 
M  END
>  <ref_pdb>  (40) 
X0147_0A

>  <ref_mols>  (40) 
x0147_0A

>  <original SMILES>  (40) 
CCN1C(=O)NC[C@@H](C)C1=O

>  <∆∆G>  (40) 
-5.369682

>  <comRMSD>  (40) 
0.90132

$$$$
Z1776120238
     RDKit          3D

 13 13  0  0  0  0  0  0  0  0999 V2000
   -6.3879   -6.4169   -8.6001 C   0  0  0  0  0  0  0  0  0  0  0  0
   -7.3981   -5.4544   -8.0586 C   0  0  0  0  0  0  0  0  0  0  0  0
   -7.5676   -4.1628   -8.6673 N   0  0  0  0  0  0  0  0  0  0  0  0
   -8.5534   -3.4308   -8.0847 C   0  0  0  0  0  0  0  0  0  0  0  0
   -9.3839   -3.8155   -6.9902 C   0  0  0  0  0  0  0  0  0  0  0  0
  -10.3301   -2.6755   -6.7319 C   0  0  0  0  0  0  0  0  0  0  0  0
  -10.2381   -1.6459   -7.5591 O   0  0  0  0  0  0  0  0  0  0  0  0
  -11.1935   -2.7280   -5.7337 N   0  0  0  0  0  0  0  0  0  0  0  0
  -12.5538   -2.5556   -6.0815 O   0  0  0  0  0  0  0  0  0  0  0  0
   -9.2492   -5.0330   -6.3672 C   0  0  0  0  0  0  0  0  0  0  0  0
  -10.1988   -5.6034   -5.0341 Cl  0  0  0  0  0  0  0  0  0  0  0  0
   -8.2004   -5.9533   -6.8767 C   0  0  0  0  0  0  0  0  0  0  0  0
   -7.9408   -7.4547   -6.1742 Cl  0  0  0  0  0  0  0  0  0  0  0  0
  1  2  1  0
  2  3  2  0
  3  4  1  0
  4  5  2  0
  5  6  1  0
  6  7  2  0
  6  8  1  0
  8  9  1  0
  5 10  1  0
 10 11  1  0
 10 12  2  0
 12 13  1  0
 12  2  1  0
A    1
 C1 
A    2
 C2 
A    3
 N1 
A    4
 C3 
A    5
 C4 
A    6
 C5 
A    7
 O1 
A    8
 N2 
A    9
 O2 
A   10
 C6 
A   11
CL1 
A   12
 C7 
A   13
CL2 
M  END
>  <ref_pdb>  (41) 
X0147_0A

>  <ref_mols>  (41) 
x0147_0A

>  <original SMILES>  (41) 
Cc1ncc(C(=O)NO)c(Cl)c1Cl

>  <∆∆G>  (41) 
-5.367723

>  <comRMSD>  (41) 
1.681881

$$$$
PV-002387966073
     RDKit          3D

 15 16  0  0  0  0  0  0  0  0999 V2000
   -7.1430   -6.8210   -7.2245 C   0  0  0  0  0  0  0  0  0  0  0  0
   -7.5641   -5.4635   -7.6866 C   0  0  0  0  0  0  0  0  0  0  0  0
   -6.9959   -4.8671   -8.6991 N   0  0  0  0  0  0  0  0  0  0  0  0
   -7.6230   -3.6489   -8.8846 O   0  0  0  0  0  0  0  0  0  0  0  0
   -8.6027   -3.5055   -7.9513 C   0  0  0  0  0  0  0  0  0  0  0  0
   -9.4732   -2.3374   -7.8647 N   0  0  0  0  0  0  0  0  0  0  0  0
  -10.3981   -2.5148   -6.7654 C   0  0  0  0  0  0  0  0  0  0  0  0
  -10.4753   -3.5401   -5.9332 N   0  0  0  0  0  0  0  0  0  0  0  0
   -9.6035   -4.5945   -6.0873 C   0  0  0  0  0  0  0  0  0  0  0  0
   -9.7517   -5.9160   -4.9156 S   0  0  0  0  0  0  0  0  0  0  0  0
   -8.0419   -6.5473   -4.6354 C   0  0  0  0  0  0  0  0  0  0  0  0
   -7.0263   -5.6529   -3.8896 C   0  0  0  0  0  0  0  0  0  0  0  0
   -6.0630   -6.2421   -3.1141 N   0  0  0  0  0  0  0  0  0  0  0  0
   -7.1370   -4.2376   -4.0844 O   0  0  0  0  0  0  0  0  0  0  0  0
   -8.6379   -4.6114   -7.1250 C   0  0  0  0  0  0  0  0  0  0  0  0
  1  2  1  0
  2  3  2  0
  3  4  1  0
  4  5  1  0
  5  6  2  0
  6  7  1  0
  7  8  2  0
  8  9  1  0
  9 10  1  0
 10 11  1  0
 11 12  1  0
 12 13  1  0
 12 14  2  0
  9 15  2  0
 15  2  1  0
 15  5  1  0
A    1
 C1 
A    2
 C2 
A    3
 N1 
A    4
 O1 
A    5
 C3 
A    6
 N2 
A    7
 C4 
A    8
 N3 
A    9
 C5 
A   10
 S1 
A   11
 C6 
A   12
 C7 
A   13
 N4 
A   14
 O2 
A   15
 C8 
M  END
>  <ref_pdb>  (42) 
X0147_0A

>  <ref_mols>  (42) 
x0147_0A

>  <original SMILES>  (42) 
Cc1noc2ncnc(SCC(N)=O)c12

>  <∆∆G>  (42) 
-5.367633

>  <comRMSD>  (42) 
0.972265

$$$$
PV-003030717942
     RDKit          3D

 11 11  0  0  0  0  0  0  0  0999 V2000
   -6.5293   -6.5561   -8.9641 C   0  0  0  0  0  0  0  0  0  0  0  0
   -7.1980   -5.9686   -7.8479 C   0  0  0  0  0  0  0  0  0  0  0  0
   -7.5697   -6.8920   -6.7967 O   0  0  0  0  0  0  0  0  0  0  0  0
   -7.3527   -4.6406   -7.9947 N   0  0  0  0  0  0  0  0  0  0  0  0
   -8.5113   -4.0281   -7.6181 C   0  0  0  0  0  0  0  0  0  0  0  0
   -9.4033   -4.7625   -6.8060 C   0  0  0  0  0  0  0  0  0  0  0  0
  -10.6388   -4.2176   -6.3511 C   0  0  0  0  0  0  0  0  0  0  0  0
  -10.9019   -2.8739   -6.7820 C   0  0  0  0  0  0  0  0  0  0  0  0
  -12.1662   -2.0584   -6.4271 C   0  0  0  0  0  0  0  0  0  0  0  0
  -10.0046   -2.2297   -7.5615 N   0  0  0  0  0  0  0  0  0  0  0  0
   -8.8352   -2.7939   -7.9719 N   0  0  0  0  0  0  0  0  0  0  0  0
  1  2  1  0
  2  3  2  0
  2  4  1  0
  4  5  1  0
  5  6  2  0
  6  7  1  0
  7  8  2  0
  8  9  1  0
  8 10  1  0
 10 11  2  0
 11  5  1  0
A    1
 C1 
A    2
 C2 
A    3
 O1 
A    4
 N1 
A    5
 C3 
A    6
 C4 
A    7
 C5 
A    8
 C6 
A    9
 C7 
A   10
 N2 
A   11
 N3 
M  END
>  <ref_pdb>  (43) 
X0147_0A

>  <ref_mols>  (43) 
x0147_0A

>  <original SMILES>  (43) 
CC(=O)Nc1ccc(C)nn1

>  <∆∆G>  (43) 
-5.341726

>  <comRMSD>  (43) 
1.577649

$$$$
Z45689335
     RDKit          3D

 16 17  0  0  0  0  0  0  0  0999 V2000
   -8.6065   -5.1121   -3.7342 C   0  0  0  0  0  0  0  0  0  0  0  0
   -6.9064   -5.2318   -3.2374 S   0  0  0  0  0  6  0  0  0  0  0  0
   -6.8957   -5.7481   -1.8782 O   0  0  0  0  0  0  0  0  0  0  0  0
   -6.2701   -3.9897   -3.5981 O   0  0  0  0  0  0  0  0  0  0  0  0
   -6.3591   -6.4034   -4.3154 N   0  0  0  0  0  0  0  0  0  0  0  0
   -7.3596   -6.9944   -5.2456 C   0  0  0  0  0  0  0  0  0  0  0  0
   -7.0965   -6.9291   -6.7277 C   0  0  0  0  0  0  0  0  0  0  0  0
   -7.5683   -5.6353   -7.3353 C   0  0  0  0  0  0  0  0  0  0  0  0
   -6.9272   -4.8969   -8.3581 C   0  0  0  0  0  0  0  0  0  0  0  0
   -7.6701   -3.7595   -8.6014 N   0  0  0  0  0  0  0  0  0  0  0  0
   -8.7187   -3.7365   -7.8272 C   0  0  0  0  0  0  0  0  0  0  0  0
   -9.8137   -2.7494   -7.6907 C   0  0  0  0  0  0  0  0  0  0  0  0
  -10.8591   -2.9186   -6.8044 C   0  0  0  0  0  0  0  0  0  0  0  0
  -10.9265   -4.1732   -5.8993 C   0  0  0  0  0  0  0  0  0  0  0  0
   -9.7554   -5.1212   -6.1026 C   0  0  0  0  0  0  0  0  0  0  0  0
   -8.7240   -4.9016   -7.0093 C   0  0  0  0  0  0  0  0  0  0  0  0
  1  2  1  0
  2  3  2  0
  2  4  2  0
  2  5  1  0
  5  6  1  0
  6  7  1  0
  7  8  1  0
  8  9  2  0
  9 10  1  0
 10 11  1  0
 11 12  2  0
 12 13  1  0
 13 14  2  0
 14 15  1  0
 15 16  2  0
 16  8  1  0
 16 11  1  0
A    1
 C1 
A    2
 S1 
A    3
 O1 
A    4
 O2 
A    5
 N1 
A    6
 C2 
A    7
 C3 
A    8
 C4 
A    9
 C5 
A   10
 N2 
A   11
 C6 
A   12
 C7 
A   13
 C8 
A   14
 C9 
A   15
 C10
A   16
 C11
M  END
>  <ref_pdb>  (44) 
X0147_0A

>  <ref_mols>  (44) 
x0147_0A

>  <original SMILES>  (44) 
CS(=O)(=O)NCCc1c[nH]c2ccccc12

>  <∆∆G>  (44) 
-5.324403

>  <comRMSD>  (44) 
1.083158

$$$$
PV-002947797214
     RDKit          3D

 14 15  0  0  0  0  0  0  0  0999 V2000
   -7.1463   -9.7574   -6.2638 C   0  0  0  0  0  0  0  0  0  0  0  0
   -6.3853   -8.6040   -5.6226 C   0  0  0  0  0  0  0  0  0  0  0  0
   -6.6306   -7.4036   -6.0623 N   0  0  0  0  0  0  0  0  0  0  0  0
   -6.8654   -7.1852   -7.4173 C   0  0  0  0  0  0  0  0  0  0  0  0
   -6.6276   -8.2341   -8.3966 O   0  0  0  0  0  0  0  0  0  0  0  0
   -7.3531   -5.8877   -7.7118 C   0  0  0  0  0  0  0  0  0  0  0  0
   -6.7069   -5.1032   -8.6240 N   0  0  0  0  0  0  0  0  0  0  0  0
   -7.3922   -3.9270   -8.6851 N   0  0  0  0  0  0  0  0  0  0  0  0
   -8.4206   -3.9748   -7.8506 C   0  0  0  0  0  0  0  0  0  0  0  0
   -9.3096   -2.9637   -7.6609 N   0  0  0  0  0  0  0  0  0  0  0  0
  -10.2803   -3.2648   -6.7592 C   0  0  0  0  0  0  0  0  0  0  0  0
  -10.3764   -4.4846   -6.0745 C   0  0  0  0  0  0  0  0  0  0  0  0
   -9.4355   -5.4897   -6.2986 C   0  0  0  0  0  0  0  0  0  0  0  0
   -8.4591   -5.1707   -7.2167 C   0  0  0  0  0  0  0  0  0  0  0  0
  1  2  1  0
  2  3  1  0
  3  4  1  0
  4  5  2  0
  4  6  1  0
  6  7  2  0
  7  8  1  0
  8  9  1  0
  9 10  2  0
 10 11  1  0
 11 12  2  0
 12 13  1  0
 13 14  2  0
 14  6  1  0
 14  9  1  0
A    1
 C1 
A    2
 C2 
A    3
 N1 
A    4
 C3 
A    5
 O1 
A    6
 C4 
A    7
 N2 
A    8
 N3 
A    9
 C5 
A   10
 N4 
A   11
 C6 
A   12
 C7 
A   13
 C8 
A   14
 C9 
M  END
>  <ref_pdb>  (45) 
X0147_0A

>  <ref_mols>  (45) 
x0147_0A

>  <original SMILES>  (45) 
CCNC(=O)c1n[nH]c2ncccc12

>  <∆∆G>  (45) 
-5.307581

>  <comRMSD>  (45) 
0.796313

$$$$
PV-002756239297
     RDKit          3D

 13 14  0  0  0  0  0  0  0  0999 V2000
   -6.5839   -7.3833   -6.0125 C   0  0  0  0  0  0  0  0  0  0  0  0
   -6.7637   -6.9368   -7.4437 C   0  0  0  0  0  0  0  0  0  0  0  0
   -6.3524   -7.6505   -8.5804 C   0  0  0  0  0  0  0  0  0  0  0  0
   -7.4378   -5.5561   -7.7006 C   0  0  0  0  0  0  0  0  0  0  0  0
   -6.7493   -4.7500   -8.6638 N   0  0  0  0  0  0  0  0  0  0  0  0
   -7.5209   -3.6201   -8.6870 N   0  0  0  0  0  0  0  0  0  0  0  0
   -8.6632   -3.6690   -7.7910 C   0  0  0  0  0  0  0  0  0  0  0  0
   -8.5880   -4.9177   -7.1823 C   0  0  0  0  0  0  0  0  0  0  0  0
   -9.6736   -5.2705   -6.1814 C   0  0  0  0  0  0  0  0  0  0  0  0
   -9.6721   -6.4745   -5.5439 N   0  0  0  0  0  0  0  0  0  0  0  0
  -10.5858   -4.2887   -6.0219 N   0  0  0  0  0  0  0  0  0  0  0  0
  -10.5177   -3.0798   -6.7093 C   0  0  0  0  0  0  0  0  0  0  0  0
   -9.5857   -2.7061   -7.6009 N   0  0  0  0  0  0  0  0  0  0  0  0
  1  2  2  3
  2  3  1  0
  2  4  1  0
  4  5  2  0
  5  6  1  0
  6  7  1  0
  7  8  2  0
  8  9  1  0
  9 10  1  0
  9 11  2  0
 11 12  1  0
 12 13  2  0
  8  4  1  0
 13  7  1  0
A    1
 C1 
A    2
 C2 
A    3
 C3 
A    4
 C4 
A    5
 N1 
A    6
 N2 
A    7
 C5 
A    8
 C6 
A    9
 C7 
A   10
 N3 
A   11
 N4 
A   12
 C8 
A   13
 N5 
M  END
>  <ref_pdb>  (46) 
X0147_0A

>  <ref_mols>  (46) 
x0147_0A

>  <original SMILES>  (46) 
C=C(C)c1n[nH]c2ncnc(N)c12

>  <∆∆G>  (46) 
-5.299525

>  <comRMSD>  (46) 
0.267311

$$$$
PV-003040702107
     RDKit          3D

 18 20  0  0  0  0  0  0  0  0999 V2000
   -7.2826   -6.8692   -7.1732 C   0  0  0  0  0  0  0  0  0  0  0  0
   -7.6625   -5.5111   -7.6132 C   0  0  0  0  0  0  0  0  0  0  0  0
   -6.9314   -4.9242   -8.5881 N   0  0  0  0  0  0  0  0  0  0  0  0
   -7.5133   -3.6901   -8.7718 O   0  0  0  0  0  0  0  0  0  0  0  0
   -8.5621   -3.5545   -7.9262 C   0  0  0  0  0  0  0  0  0  0  0  0
   -9.4030   -2.5044   -7.7757 N   0  0  0  0  0  0  0  0  0  0  0  0
  -10.3803   -2.6172   -6.8587 C   0  0  0  0  0  0  0  0  0  0  0  0
  -10.6496   -3.6874   -6.0240 C   0  0  0  0  0  0  0  0  0  0  0  0
  -11.7451   -3.6007   -5.1145 C   0  0  0  0  0  0  0  0  0  0  0  0
  -12.2524   -2.2377   -4.7913 C   0  0  0  0  0  0  0  0  0  0  0  0
  -13.3863   -2.1002   -3.8682 C   0  0  0  0  0  0  0  0  0  0  0  0
  -13.8696   -0.8876   -3.5570 F   0  0  0  0  0  0  0  0  0  0  0  0
  -13.9644   -3.2618   -3.3078 C   0  0  0  0  0  0  0  0  0  0  0  0
  -13.4675   -4.5239   -3.6260 C   0  0  0  0  0  0  0  0  0  0  0  0
  -12.3852   -4.7145   -4.5042 C   0  0  0  0  0  0  0  0  0  0  0  0
  -11.9832   -5.9740   -4.7476 F   0  0  0  0  0  0  0  0  0  0  0  0
   -9.7807   -4.7838   -6.1709 C   0  0  0  0  0  0  0  0  0  0  0  0
   -8.7383   -4.6911   -7.1340 C   0  0  0  0  0  0  0  0  0  0  0  0
  1  2  1  0
  2  3  2  0
  3  4  1  0
  4  5  1  0
  5  6  2  0
  6  7  1  0
  7  8  2  0
  8  9  1  0
  9 10  2  0
 10 11  1  0
 11 12  1  0
 11 13  2  0
 13 14  1  0
 14 15  2  0
 15 16  1  0
  8 17  1  0
 17 18  2  0
 18  2  1  0
 18  5  1  0
 15  9  1  0
A    1
 C1 
A    2
 C2 
A    3
 N1 
A    4
 O1 
A    5
 C3 
A    6
 N2 
A    7
 C4 
A    8
 C5 
A    9
 C6 
A   10
 C7 
A   11
 C8 
A   12
 F1 
A   13
 C9 
A   14
 C10
A   15
 C11
A   16
 F2 
A   17
 C12
A   18
 C13
M  END
>  <ref_pdb>  (47) 
X0147_0A

>  <ref_mols>  (47) 
x0147_0A

>  <original SMILES>  (47) 
Cc1noc2ncc(-c3cc(F)ccc3F)cc12

>  <∆∆G>  (47) 
-5.277439

>  <comRMSD>  (47) 
0.704147

$$$$
PV-006599514306
     RDKit          3D

 11 11  0  0  0  0  0  0  0  0999 V2000
   -6.5755   -6.0272   -8.6528 C   0  0  0  0  0  0  0  0  0  0  0  0
   -7.6308   -5.9022   -7.5946 C   0  0  0  0  0  0  0  0  0  0  0  0
   -7.9080   -6.9200   -6.6835 N   0  0  0  0  0  0  0  0  0  0  0  0
   -8.9785   -6.4969   -5.8385 N   0  0  0  0  0  0  0  0  0  0  0  0
   -9.3111   -5.2383   -6.2496 C   0  0  0  0  0  0  0  0  0  0  0  0
  -10.5707   -4.6419   -5.3204 Cl  0  0  0  0  0  0  0  0  0  0  0  0
   -8.5659   -4.7499   -7.2977 C   0  0  0  0  0  0  0  0  0  0  0  0
   -8.5438   -3.5842   -7.9953 C   0  0  0  0  0  0  0  0  0  0  0  0
   -7.5668   -3.4455   -8.7170 O   0  0  0  0  0  0  0  0  0  0  0  0
   -9.5121   -2.6455   -7.9328 N   0  0  0  0  0  0  0  0  0  0  0  0
  -10.3699   -2.5966   -6.8059 N   0  0  0  0  0  0  0  0  0  0  0  0
  1  2  1  0
  2  3  2  0
  3  4  1  0
  4  5  1  0
  5  6  1  0
  5  7  2  0
  7  8  1  0
  8  9  2  0
  8 10  1  0
 10 11  1  0
  7  2  1  0
A    1
 C1 
A    2
 C2 
A    3
 N1 
A    4
 N2 
A    5
 C3 
A    6
CL1 
A    7
 C4 
A    8
 C5 
A    9
 O1 
A   10
 N3 
A   11
 N4 
M  END
>  <ref_pdb>  (48) 
X0147_0A

>  <ref_mols>  (48) 
x0147_0A

>  <original SMILES>  (48) 
Cc1n[nH]c(Cl)c1C(=O)NN

>  <∆∆G>  (48) 
-5.268778

>  <comRMSD>  (48) 
1.489734

$$$$
Z1137726116
     RDKit          3D

 12 13  0  0  0  0  0  0  0  0999 V2000
   -7.0407   -9.2596   -6.9323 C   0  0  0  0  0  0  0  0  0  0  0  0
   -6.6504   -7.9901   -7.5567 N   0  0  0  0  0  0  0  0  0  0  0  0
   -7.3086   -6.9089   -6.8156 C   0  0  0  0  0  0  0  0  0  0  0  0
   -7.5376   -5.6749   -7.4549 C   0  0  0  0  0  0  0  0  0  0  0  0
   -6.8041   -5.1060   -8.4242 N   0  0  0  0  0  0  0  0  0  0  0  0
   -7.4586   -3.9402   -8.6385 N   0  0  0  0  0  0  0  0  0  0  0  0
   -8.5503   -3.7819   -7.8502 C   0  0  0  0  0  0  0  0  0  0  0  0
   -9.4613   -2.7584   -7.7562 C   0  0  0  0  0  0  0  0  0  0  0  0
  -10.6446   -2.7710   -6.8000 C   0  0  0  0  0  0  0  0  0  0  0  0
  -10.6625   -3.9574   -6.0415 C   0  0  0  0  0  0  0  0  0  0  0  0
   -9.7083   -4.9835   -6.1597 C   0  0  0  0  0  0  0  0  0  0  0  0
   -8.6412   -4.8958   -7.0701 C   0  0  0  0  0  0  0  0  0  0  0  0
  1  2  1  0
  2  3  1  0
  3  4  1  0
  4  5  2  0
  5  6  1  0
  6  7  1  0
  7  8  2  0
  8  9  1  0
  9 10  2  0
 10 11  1  0
 11 12  2  0
 12  4  1  0
 12  7  1  0
A    1
 C1 
A    2
 N1 
A    3
 C2 
A    4
 C3 
A    5
 N2 
A    6
 N3 
A    7
 C4 
A    8
 C5 
A    9
 C6 
A   10
 C7 
A   11
 C8 
A   12
 C9 
M  END
>  <ref_pdb>  (49) 
X0147_0A

>  <ref_mols>  (49) 
x0147_0A

>  <original SMILES>  (49) 
CNCc1n[nH]c2ccccc12

>  <∆∆G>  (49) 
-5.226834

>  <comRMSD>  (49) 
0.53945

$$$$
Z4768231340
     RDKit          3D

 12 12  0  0  0  0  0  0  0  0999 V2000
  -12.3158   -0.7844   -4.7352 C   0  0  0  0  0  0  0  0  0  0  0  0
  -11.3399   -1.7261   -5.2125 N   0  0  0  0  0  0  0  0  0  0  0  0
  -11.4351   -2.3071   -6.4633 C   0  0  0  0  0  0  0  0  0  0  0  0
  -12.4782   -2.2137   -7.4416 O   0  0  0  0  0  0  0  0  0  0  0  0
  -10.3963   -3.1047   -6.8652 C   0  0  0  0  0  0  0  0  0  0  0  0
   -9.5168   -2.5631   -7.6727 N   0  0  0  0  0  0  0  0  0  0  0  0
   -8.4912   -3.3560   -8.0788 N   0  0  0  0  0  0  0  0  0  0  0  0
   -8.3387   -4.6773   -7.7257 C   0  0  0  0  0  0  0  0  0  0  0  0
   -7.1942   -5.3848   -8.2901 C   0  0  0  0  0  0  0  0  0  0  0  0
   -9.1948   -5.2944   -6.8954 C   0  0  0  0  0  0  0  0  0  0  0  0
  -10.2751   -4.5393   -6.4054 C   0  0  0  0  0  0  0  0  0  0  0  0
  -11.0815   -5.0349   -5.6328 O   0  0  0  0  0  0  0  0  0  0  0  0
  1  2  1  0
  2  3  1  0
  3  4  2  0
  3  5  1  0
  5  6  2  0
  6  7  1  0
  7  8  1  0
  8  9  1  0
  8 10  2  0
 10 11  1  0
 11 12  2  0
 11  5  1  0
A    1
 C1 
A    2
 N1 
A    3
 C2 
A    4
 O1 
A    5
 C3 
A    6
 N2 
A    7
 N3 
A    8
 C4 
A    9
 C5 
A   10
 C6 
A   11
 C7 
A   12
 O2 
M  END
>  <ref_pdb>  (50) 
X0147_0A

>  <ref_mols>  (50) 
x0147_0A

>  <original SMILES>  (50) 
CNC(=O)c1n[nH]c(C)cc1=O

>  <∆∆G>  (50) 
-5.209944

>  <comRMSD>  (50) 
1.102963

$$$$
PV-002821921219
     RDKit          3D

  9  9  0  0  0  0  0  0  0  0999 V2000
  -10.7377   -2.7168   -7.2747 C   0  0  0  0  0  0  0  0  0  0  0  0
   -9.3670   -3.0601   -7.6972 C   0  0  0  0  0  0  0  0  0  0  0  0
   -8.7001   -4.2397   -7.4906 C   0  0  0  0  0  0  0  0  0  0  0  0
   -9.1963   -4.8757   -6.3334 C   0  0  0  0  0  0  0  0  0  0  0  0
   -8.7042   -6.1354   -5.8524 C   0  0  0  0  0  0  0  0  0  0  0  0
   -7.6992   -6.7346   -6.5669 C   0  0  0  0  0  0  0  0  0  0  0  0
   -7.2178   -6.0971   -7.7078 C   0  0  0  0  0  0  0  0  0  0  0  0
   -7.6670   -4.8844   -8.2020 C   0  0  0  0  0  0  0  0  0  0  0  0
   -7.0633   -4.4406   -9.3429 O   0  0  0  0  0  0  0  0  0  0  0  0
  1  2  2  3
  2  3  1  0
  3  4  2  0
  4  5  1  0
  5  6  2  0
  6  7  1  0
  7  8  2  0
  8  9  1  0
  8  3  1  0
A    1
 C1 
A    2
 C2 
A    3
 C3 
A    4
 C4 
A    5
 C5 
A    6
 C6 
A    7
 C7 
A    8
 C8 
A    9
 O1 
M  END
>  <ref_pdb>  (51) 
X0147_0A

>  <ref_mols>  (51) 
x0147_0A

>  <original SMILES>  (51) 
C=Cc1ccccc1O

>  <∆∆G>  (51) 
-5.20535

>  <comRMSD>  (51) 
0.793163

$$$$
PV-005368300418
     RDKit          3D

 11 11  0  0  0  0  0  0  0  0999 V2000
   -6.1727   -7.1822   -8.1023 C   0  0  0  0  0  0  0  0  0  0  0  0
   -7.0852   -6.2512   -7.8228 C   0  0  0  0  0  0  0  0  0  0  0  0
   -7.1661   -4.9599   -8.5355 C   0  0  0  0  0  0  0  0  0  0  0  0
   -8.1301   -4.0491   -8.2031 C   0  0  0  0  0  0  0  0  0  0  0  0
   -9.0349   -4.3666   -7.1833 C   0  0  0  0  0  0  0  0  0  0  0  0
  -10.0127   -3.3857   -6.8831 C   0  0  0  0  0  0  0  0  0  0  0  0
   -9.9536   -2.1860   -7.2677 N   0  0  0  0  0  0  0  0  0  0  0  0
  -11.0560   -1.5882   -6.7815 O   0  0  0  0  0  0  0  0  0  0  0  0
   -8.9829   -5.5661   -6.4978 C   0  0  0  0  0  0  0  0  0  0  0  0
  -10.0614   -6.0219   -5.2421 Cl  0  0  0  0  0  0  0  0  0  0  0  0
   -8.0122   -6.4905   -6.8199 C   0  0  0  0  0  0  0  0  0  0  0  0
  1  2  1  0
  2  3  2  0
  3  4  1  0
  4  5  2  0
  5  6  1  0
  6  7  2  3
  7  8  1  0
  5  9  1  0
  9 10  1  0
  9 11  2  0
 11  2  1  0
A    1
 C1 
A    2
 C2 
A    3
 C3 
A    4
 C4 
A    5
 C5 
A    6
 C6 
A    7
 N1 
A    8
 O1 
A    9
 C7 
A   10
CL1 
A   11
 C8 
M  END
>  <ref_pdb>  (52) 
X0147_0A

>  <ref_mols>  (52) 
x0147_0A

>  <original SMILES>  (52) 
Cc1ccc(C=NO)c(Cl)c1

>  <∆∆G>  (52) 
-5.199142

>  <comRMSD>  (52) 
1.523374

$$$$
PV-005909678796
     RDKit          3D

 13 14  0  0  0  0  0  0  0  0999 V2000
   -5.5231   -7.9491   -5.6598 C   0  0  0  0  0  0  0  0  0  0  0  0
   -6.9304   -8.3718   -5.9564 C   0  0  0  0  0  0  0  0  0  0  0  0
   -7.0886   -8.5606   -7.3639 O   0  0  0  0  0  0  0  0  0  0  0  0
   -6.6777   -7.3839   -8.0454 N   0  0  0  0  0  0  0  0  0  0  0  0
   -7.3719   -6.0475   -7.9445 C   0  0  0  0  0  0  0  0  0  0  0  0
   -6.6926   -5.0088   -8.8514 C   0  0  0  0  0  0  0  0  0  0  0  0
   -7.4606   -3.8298   -8.7037 O   0  0  0  0  0  0  0  0  0  0  0  0
   -8.4599   -4.0346   -7.8207 C   0  0  0  0  0  0  0  0  0  0  0  0
   -9.3204   -3.0102   -7.5112 N   0  0  0  0  0  0  0  0  0  0  0  0
  -10.2978   -3.2847   -6.6274 C   0  0  0  0  0  0  0  0  0  0  0  0
  -10.4975   -4.5051   -6.0100 C   0  0  0  0  0  0  0  0  0  0  0  0
   -9.5050   -5.5865   -6.3970 C   0  0  0  0  0  0  0  0  0  0  0  0
   -8.4879   -5.3379   -7.3095 C   0  0  0  0  0  0  0  0  0  0  0  0
  1  2  1  0
  2  3  1  0
  3  4  1  0
  4  5  2  3
  5  6  1  0
  6  7  1  0
  7  8  1  0
  8  9  2  0
  9 10  1  0
 10 11  2  0
 11 12  1  0
 12 13  2  0
 13  5  1  0
 13  8  1  0
A    1
 C1 
A    2
 C2 
A    3
 O1 
A    4
 N1 
A    5
 C3 
A    6
 C4 
A    7
 O2 
A    8
 C5 
A    9
 N2 
A   10
 C6 
A   11
 C7 
A   12
 C8 
A   13
 C9 
M  END
>  <ref_pdb>  (53) 
X0147_0A

>  <ref_mols>  (53) 
x0147_0A

>  <original SMILES>  (53) 
CCON=C1COc2ncccc21

>  <∆∆G>  (53) 
-5.185271

>  <comRMSD>  (53) 
0.867597

$$$$
PV-002978532900
     RDKit          3D

 14 15  0  0  0  0  0  0  0  0999 V2000
   -6.2307   -8.1657   -8.6671 O   0  0  0  0  0  0  0  0  0  0  0  0
   -6.8588   -8.1842   -7.3838 C   0  0  0  0  0  0  0  0  0  0  0  0
   -7.0715   -9.5736   -6.8019 C   0  0  0  0  0  0  0  0  0  0  0  0
   -7.0337  -10.5009   -7.8991 O   0  0  0  0  0  0  0  0  0  0  0  0
   -7.3490   -7.1389   -6.6534 N   0  0  0  0  0  0  0  0  0  0  0  0
   -7.6794   -5.9453   -7.1799 C   0  0  0  0  0  0  0  0  0  0  0  0
   -6.8926   -5.3419   -8.2705 C   0  0  0  0  0  0  0  0  0  0  0  0
   -7.4810   -3.8653   -8.7450 S   0  0  0  0  0  0  0  0  0  0  0  0
   -8.7429   -3.9293   -7.6124 C   0  0  0  0  0  0  0  0  0  0  0  0
   -9.6053   -2.8770   -7.5657 N   0  0  0  0  0  0  0  0  0  0  0  0
  -10.5288   -3.0359   -6.6762 C   0  0  0  0  0  0  0  0  0  0  0  0
  -10.7110   -4.1597   -5.7877 C   0  0  0  0  0  0  0  0  0  0  0  0
   -9.8710   -5.2163   -5.8056 C   0  0  0  0  0  0  0  0  0  0  0  0
   -8.7666   -5.0650   -6.8412 C   0  0  0  0  0  0  0  0  0  0  0  0
  1  2  2  0
  2  3  1  0
  3  4  1  0
  2  5  1  0
  5  6  1  0
  6  7  2  0
  7  8  1  0
  8  9  1  0
  9 10  2  0
 10 11  1  0
 11 12  2  0
 12 13  1  0
 13 14  2  0
 14  6  1  0
 14  9  1  0
A    1
 O1 
A    2
 C1 
A    3
 C2 
A    4
 O2 
A    5
 N1 
A    6
 C3 
A    7
 C4 
A    8
 S1 
A    9
 C5 
A   10
 N2 
A   11
 C6 
A   12
 C7 
A   13
 C8 
A   14
 C9 
M  END
>  <ref_pdb>  (54) 
X0147_0A

>  <ref_mols>  (54) 
x0147_0A

>  <original SMILES>  (54) 
O=C(CO)Nc1csc2ncccc12

>  <∆∆G>  (54) 
-5.183912

>  <comRMSD>  (54) 
0.628475

$$$$
PV-002229043941
     RDKit          3D

 11 11  0  0  0  0  0  0  0  0999 V2000
  -11.7818   -2.0681   -6.1883 C   0  0  0  0  0  0  0  0  0  0  0  0
  -10.6148   -2.9289   -6.6448 C   0  0  0  0  0  0  0  0  0  0  0  0
  -10.4532   -4.2794   -5.9751 C   0  0  0  0  0  0  0  0  0  0  0  0
   -9.3820   -5.0766   -6.3933 C   0  0  0  0  0  0  0  0  0  0  0  0
   -9.1934   -6.6055   -5.6261 Cl  0  0  0  0  0  0  0  0  0  0  0  0
   -8.5211   -4.6009   -7.4010 C   0  0  0  0  0  0  0  0  0  0  0  0
   -7.4327   -5.3046   -7.9002 C   0  0  0  0  0  0  0  0  0  0  0  0
   -7.1539   -6.5291   -7.4307 N   0  0  0  0  0  0  0  0  0  0  0  0
   -6.6962   -4.6844   -8.8754 O   0  0  0  0  0  0  0  0  0  0  0  0
   -8.7528   -3.3485   -7.9479 C   0  0  0  0  0  0  0  0  0  0  0  0
   -9.7775   -2.4994   -7.5945 N   0  0  0  0  0  0  0  0  0  0  0  0
  1  2  1  0
  2  3  2  0
  3  4  1  0
  4  5  1  0
  4  6  2  0
  6  7  1  0
  7  8  1  0
  7  9  2  0
  6 10  1  0
 10 11  2  0
 11  2  1  0
A    1
 C1 
A    2
 C2 
A    3
 C3 
A    4
 C4 
A    5
CL1 
A    6
 C5 
A    7
 C6 
A    8
 N1 
A    9
 O1 
A   10
 C7 
A   11
 N2 
M  END
>  <ref_pdb>  (55) 
X0147_0A

>  <ref_mols>  (55) 
x0147_0A

>  <original SMILES>  (55) 
Cc1cc(Cl)c(C(N)=O)cn1

>  <∆∆G>  (55) 
-5.134319

>  <comRMSD>  (55) 
0.397948

$$$$
PV-002711463104
     RDKit          3D

  8  8  0  0  0  0  0  0  0  0999 V2000
   -6.4571   -6.0916   -9.1649 C   0  0  0  0  0  0  0  0  0  0  0  0
   -6.7358   -4.7660   -8.6783 N   0  0  0  0  0  0  0  0  0  0  0  0
   -7.7784   -4.8140   -7.8174 C   0  0  0  0  0  0  0  0  0  0  0  0
   -7.7799   -5.9464   -7.0694 C   0  0  0  0  0  0  0  0  0  0  0  0
   -8.8537   -6.2527   -6.0326 C   0  0  0  0  0  0  0  0  0  0  0  0
   -9.8741   -5.1974   -5.9341 C   0  0  0  0  0  0  0  0  0  0  0  0
   -9.7883   -4.0635   -6.7422 C   0  0  0  0  0  0  0  0  0  0  0  0
   -8.7712   -3.8844   -7.6505 C   0  0  0  0  0  0  0  0  0  0  0  0
  1  2  1  0
  2  3  1  0
  3  4  2  0
  4  5  1  0
  5  6  2  0
  6  7  1  0
  7  8  2  0
  8  3  1  0
A    1
 C1 
A    2
 N1 
A    3
 C2 
A    4
 C3 
A    5
 C4 
A    6
 C5 
A    7
 C6 
A    8
 C7 
M  END
>  <ref_pdb>  (56) 
X0147_0A

>  <ref_mols>  (56) 
x0147_0A

>  <original SMILES>  (56) 
CNc1ccccc1

>  <∆∆G>  (56) 
-5.120654

>  <comRMSD>  (56) 
1.039468

$$$$
PV-002857111057
     RDKit          3D

 12 13  0  0  0  0  0  0  0  0999 V2000
   -8.7690   -3.2315   -7.8614 N   0  0  0  0  0  0  0  0  0  0  0  0
   -7.7650   -4.1901   -8.0463 C   0  0  0  0  0  0  0  0  0  0  0  0
   -6.8187   -4.1053   -9.0854 O   0  0  0  0  0  0  0  0  0  0  0  0
   -7.6867   -5.3304   -7.1419 C   0  0  0  0  0  0  0  0  0  0  0  0
   -7.9908   -5.3076   -5.7794 C   0  0  0  0  0  0  0  0  0  0  0  0
   -7.8525   -6.5622   -5.1162 C   0  0  0  0  0  0  0  0  0  0  0  0
   -7.4332   -7.7497   -5.8240 C   0  0  0  0  0  0  0  0  0  0  0  0
   -7.2540   -9.0200   -5.4063 C   0  0  0  0  0  0  0  0  0  0  0  0
   -7.0898   -9.8560   -6.6581 C   0  0  0  0  0  0  0  0  0  0  0  0
   -6.7859   -8.9699   -7.6431 O   0  0  0  0  0  0  0  0  0  0  0  0
   -7.1480   -7.7353   -7.1152 C   0  0  0  0  0  0  0  0  0  0  0  0
   -7.2618   -6.5267   -7.7977 C   0  0  0  0  0  0  0  0  0  0  0  0
  1  2  1  0
  2  3  2  0
  2  4  1  0
  4  5  2  0
  5  6  1  0
  6  7  2  0
  7  8  1  0
  8  9  1  0
  9 10  1  0
 10 11  1  0
 11 12  2  0
 12  4  1  0
 11  7  1  0
A    1
 N1 
A    2
 C1 
A    3
 O1 
A    4
 C2 
A    5
 C3 
A    6
 C4 
A    7
 C5 
A    8
 C6 
A    9
 C7 
A   10
 O2 
A   11
 C8 
A   12
 C9 
M  END
>  <ref_pdb>  (57) 
X0147_0A

>  <ref_mols>  (57) 
x0147_0A

>  <original SMILES>  (57) 
NC(=O)c1ccc2c(c1)OCC2

>  <∆∆G>  (57) 
-5.11164

>  <comRMSD>  (57) 
1.122084

$$$$
PV-002728190756
     RDKit          3D

 10 10  0  0  0  0  0  0  0  0999 V2000
   -5.3967   -7.2644   -7.7925 C   0  0  0  0  0  0  0  0  0  0  0  0
   -6.4678   -6.4302   -8.3038 C   0  0  0  0  0  0  0  0  0  0  0  0
   -7.4906   -5.8884   -7.6199 C   0  0  0  0  0  0  0  0  0  0  0  0
   -7.8098   -4.5857   -8.0762 C   0  0  0  0  0  0  0  0  0  0  0  0
   -7.1201   -4.1645   -9.0196 O   0  0  0  0  0  0  0  0  0  0  0  0
   -8.8990   -3.7821   -7.4672 C   0  0  0  0  0  0  0  0  0  0  0  0
   -9.4197   -2.3853   -7.7690 C   0  0  0  0  0  0  0  0  0  0  0  0
   -9.6325   -4.4921   -6.3219 C   0  0  0  0  0  0  0  0  0  0  0  0
   -9.2945   -5.7608   -5.9096 C   0  0  0  0  0  0  0  0  0  0  0  0
   -8.1704   -6.5100   -6.5767 C   0  0  0  0  0  0  0  0  0  0  0  0
  1  2  2  3
  2  3  1  0
  3  4  2  0
  4  5  1  0
  4  6  1  0
  6  7  1  0
  6  8  2  0
  8  9  1  0
  9 10  2  0
 10  3  1  0
A    1
 C1 
A    2
 C2 
A    3
 C3 
A    4
 C4 
A    5
 O1 
A    6
 C5 
A    7
 C6 
A    8
 C7 
A    9
 C8 
A   10
 C9 
M  END
>  <ref_pdb>  (58) 
X0147_0A

>  <ref_mols>  (58) 
x0147_0A

>  <original SMILES>  (58) 
C=Cc1cccc(C)c1O

>  <∆∆G>  (58) 
-5.109965

>  <comRMSD>  (58) 
0.759254

$$$$
PV-002999636006
     RDKit          3D

 10 10  0  0  0  0  0  0  0  0999 V2000
  -11.4170   -3.3834   -7.6509 C   0  0  0  0  0  0  0  0  0  0  0  0
   -9.8983   -3.3393   -7.6907 C   0  0  0  0  0  0  0  0  0  0  0  0
   -9.2467   -2.0396   -7.9790 C   0  0  0  0  0  0  0  0  0  0  0  0
   -8.9629   -4.5141   -7.4432 C   0  0  0  0  0  0  0  0  0  0  0  0
   -9.4418   -5.4034   -6.2849 C   0  0  0  0  0  0  0  0  0  0  0  0
   -8.7657   -6.4980   -5.9056 C   0  0  0  0  0  0  0  0  0  0  0  0
   -7.5142   -6.8059   -6.6787 C   0  0  0  0  0  0  0  0  0  0  0  0
   -7.0831   -5.9995   -7.7250 C   0  0  0  0  0  0  0  0  0  0  0  0
   -7.7619   -4.8759   -8.1186 C   0  0  0  0  0  0  0  0  0  0  0  0
   -7.2326   -4.1600   -9.1604 O   0  0  0  0  0  0  0  0  0  0  0  0
  1  2  2  3
  2  3  1  0
  2  4  1  0
  4  5  2  0
  5  6  1  0
  6  7  2  0
  7  8  1  0
  8  9  2  0
  9 10  1  0
  9  4  1  0
A    1
 C1 
A    2
 C2 
A    3
 C3 
A    4
 C4 
A    5
 C5 
A    6
 C6 
A    7
 C7 
A    8
 C8 
A    9
 C9 
A   10
 O1 
M  END
>  <ref_pdb>  (59) 
X0147_0A

>  <ref_mols>  (59) 
x0147_0A

>  <original SMILES>  (59) 
C=C(C)c1ccccc1O

>  <∆∆G>  (59) 
-5.107793

>  <comRMSD>  (59) 
0.924352

$$$$
Z1498592743
     RDKit          3D

 16 17  0  0  0  0  0  0  0  0999 V2000
   -8.5309   -5.3590   -3.8890 C   0  0  0  0  0  0  0  0  0  0  0  0
   -6.8717   -5.3282   -3.2781 S   0  0  0  0  0  6  0  0  0  0  0  0
   -6.8925   -5.8270   -1.9169 O   0  0  0  0  0  0  0  0  0  0  0  0
   -6.2931   -4.0507   -3.6307 O   0  0  0  0  0  0  0  0  0  0  0  0
   -6.1834   -6.4822   -4.3107 N   0  0  0  0  0  0  0  0  0  0  0  0
   -7.0654   -7.2374   -5.2509 C   0  0  0  0  0  0  0  0  0  0  0  0
   -7.0195   -6.9259   -6.7727 C   0  0  0  0  0  0  0  0  0  0  0  0
   -7.6712   -5.6518   -7.2228 C   0  0  0  0  0  0  0  0  0  0  0  0
   -7.0071   -4.8571   -8.2866 C   0  0  0  0  0  0  0  0  0  0  0  0
   -7.6213   -3.7539   -8.6077 N   0  0  0  0  0  0  0  0  0  0  0  0
   -8.7864   -3.7294   -7.7557 C   0  0  0  0  0  0  0  0  0  0  0  0
   -9.6717   -2.6870   -7.8163 N   0  0  0  0  0  0  0  0  0  0  0  0
  -10.6941   -2.8303   -6.9731 C   0  0  0  0  0  0  0  0  0  0  0  0
  -10.8440   -4.0164   -6.0598 C   0  0  0  0  0  0  0  0  0  0  0  0
   -9.9151   -5.0325   -6.0377 C   0  0  0  0  0  0  0  0  0  0  0  0
   -8.8308   -4.8961   -6.9143 C   0  0  0  0  0  0  0  0  0  0  0  0
  1  2  1  0
  2  3  2  0
  2  4  2  0
  2  5  1  0
  5  6  1  0
  6  7  1  0
  7  8  1  0
  8  9  2  0
  9 10  1  0
 10 11  1  0
 11 12  2  0
 12 13  1  0
 13 14  2  0
 14 15  1  0
 15 16  2  0
 16  8  1  0
 16 11  1  0
A    1
 C1 
A    2
 S1 
A    3
 O1 
A    4
 O2 
A    5
 N1 
A    6
 C2 
A    7
 C3 
A    8
 C4 
A    9
 C5 
A   10
 N2 
A   11
 C6 
A   12
 N3 
A   13
 C7 
A   14
 C8 
A   15
 C9 
A   16
 C10
M  END
>  <ref_pdb>  (60) 
X0147_0A

>  <ref_mols>  (60) 
x0147_0A

>  <original SMILES>  (60) 
CS(=O)(=O)NCCc1c[nH]c2ncccc12

>  <∆∆G>  (60) 
-5.097248

>  <comRMSD>  (60) 
0.575147

$$$$
PV-004947434062
     RDKit          3D

 11 11  0  0  0  0  0  0  0  0999 V2000
   -6.2376   -6.6249   -8.7718 C   0  0  0  0  0  0  0  0  0  0  0  0
   -7.2422   -5.7097   -8.1963 C   0  0  0  0  0  0  0  0  0  0  0  0
   -8.0621   -6.3086   -7.0729 C   0  0  0  0  0  0  0  0  0  0  0  0
   -9.1363   -5.4355   -6.5143 C   0  0  0  0  0  0  0  0  0  0  0  0
  -10.1396   -6.0300   -5.2460 Cl  0  0  0  0  0  0  0  0  0  0  0  0
   -9.1832   -4.0894   -7.2050 C   0  0  0  0  0  0  0  0  0  0  0  0
  -10.2977   -3.2455   -6.6551 C   0  0  0  0  0  0  0  0  0  0  0  0
  -10.4767   -2.0259   -6.9831 N   0  0  0  0  0  0  0  0  0  0  0  0
   -9.4609   -1.6406   -7.8422 O   0  0  0  0  0  0  0  0  0  0  0  0
   -8.2997   -3.7147   -8.2245 C   0  0  0  0  0  0  0  0  0  0  0  0
   -7.3089   -4.4896   -8.7524 N   0  0  0  0  0  0  0  0  0  0  0  0
  1  2  1  0
  2  3  2  0
  3  4  1  0
  4  5  1  0
  4  6  2  0
  6  7  1  0
  7  8  2  3
  8  9  1  0
  6 10  1  0
 10 11  2  0
 11  2  1  0
A    1
 C1 
A    2
 C2 
A    3
 C3 
A    4
 C4 
A    5
CL1 
A    6
 C5 
A    7
 C6 
A    8
 N1 
A    9
 O1 
A   10
 C7 
A   11
 N2 
M  END
>  <ref_pdb>  (61) 
X0147_0A

>  <ref_mols>  (61) 
x0147_0A

>  <original SMILES>  (61) 
Cc1cc(Cl)c(C=NO)cn1

>  <∆∆G>  (61) 
-5.07998

>  <comRMSD>  (61) 
1.319649

$$$$
Z3638459955
     RDKit          3D

 15 16  0  0  0  0  0  0  0  0999 V2000
  -12.1391   -5.7074   -6.5123 C   0  0  0  0  0  0  0  0  0  0  0  0
  -11.8151   -5.8822   -5.0839 C   0  0  2  0  0  0  0  0  0  0  0  0
  -12.6896   -6.2158   -4.0549 C   0  0  0  0  0  0  0  0  0  0  0  0
  -12.9164   -5.0133   -3.3619 C   0  0  0  0  0  0  0  0  0  0  0  0
  -11.8757   -4.0478   -3.5570 C   0  0  0  0  0  0  0  0  0  0  0  0
  -11.1513   -4.6271   -4.6069 N   0  0  0  0  0  0  0  0  0  0  0  0
  -10.4467   -3.6980   -5.5151 C   0  0  0  0  0  0  0  0  0  0  0  0
  -10.6643   -2.4976   -5.5254 O   0  0  0  0  0  0  0  0  0  0  0  0
   -9.3754   -4.2076   -6.5345 C   0  0  0  0  0  0  0  0  0  0  0  0
   -8.8653   -5.6173   -6.2846 C   0  0  0  0  0  0  0  0  0  0  0  0
   -7.8286   -6.1019   -7.3019 C   0  0  0  0  0  0  0  0  0  0  0  0
   -7.4854   -5.1385   -8.3590 C   0  0  0  0  0  0  0  0  0  0  0  0
   -6.6047   -5.5142   -9.3135 O   0  0  0  0  0  0  0  0  0  0  0  0
   -7.9717   -3.8662   -8.5150 N   0  0  0  0  0  0  0  0  0  0  0  0
   -8.9004   -3.4451   -7.6073 C   0  0  0  0  0  0  0  0  0  0  0  0
  2  1  1  6
  2  3  1  0
  3  4  1  0
  4  5  1  0
  5  6  1  0
  6  7  1  0
  7  8  2  0
  7  9  1  0
  9 10  2  0
 10 11  1  0
 11 12  2  0
 12 13  1  0
 12 14  1  0
 14 15  2  0
  6  2  1  0
 15  9  1  0
A    1
 C1 
A    2
 C2 
A    3
 C3 
A    4
 C4 
A    5
 C5 
A    6
 N1 
A    7
 C6 
A    8
 O1 
A    9
 C7 
A   10
 C8 
A   11
 C9 
A   12
 C10
A   13
 O2 
A   14
 N2 
A   15
 C11
M  END
>  <ref_pdb>  (62) 
X0147_0A

>  <ref_mols>  (62) 
x0147_0A

>  <original SMILES>  (62) 
C[C@@H]1CCCN1C(=O)c1ccc(O)nc1

>  <∆∆G>  (62) 
-5.066921

>  <comRMSD>  (62) 
1.192217

$$$$
PV-002869215998
     RDKit          3D

 11 11  0  0  0  0  0  0  0  0999 V2000
  -10.2457   -7.2335   -4.6327 C   0  0  0  0  0  0  0  0  0  0  0  0
   -9.7550   -6.1473   -5.6059 C   0  0  0  0  0  0  0  0  0  0  0  0
  -10.5034   -4.8452   -5.6262 C   0  0  0  0  0  0  0  0  0  0  0  0
   -9.9513   -3.8463   -6.5913 C   0  0  0  0  0  0  0  0  0  0  0  0
   -8.7542   -4.3201   -7.3714 C   0  0  0  0  0  0  0  0  0  0  0  0
   -8.3734   -3.2126   -8.2350 C   0  0  0  0  0  0  0  0  0  0  0  0
   -9.0196   -2.0252   -8.3122 N   0  0  0  0  0  0  0  0  0  0  0  0
   -7.2052   -3.6322   -8.9312 O   0  0  0  0  0  0  0  0  0  0  0  0
   -8.0711   -5.5219   -7.3594 C   0  0  0  0  0  0  0  0  0  0  0  0
   -6.9063   -6.1022   -8.0730 C   0  0  0  0  0  0  0  0  0  0  0  0
   -8.5709   -6.4808   -6.4464 N   0  0  0  0  0  0  0  0  0  0  0  0
  1  2  1  0
  2  3  2  0
  3  4  1  0
  4  5  2  0
  5  6  1  0
  6  7  1  0
  6  8  2  0
  5  9  1  0
  9 10  1  0
  9 11  2  0
 11  2  1  0
A    1
 C1 
A    2
 C2 
A    3
 C3 
A    4
 C4 
A    5
 C5 
A    6
 C6 
A    7
 N1 
A    8
 O1 
A    9
 C7 
A   10
 C8 
A   11
 N2 
M  END
>  <ref_pdb>  (63) 
X0147_0A

>  <ref_mols>  (63) 
x0147_0A

>  <original SMILES>  (63) 
Cc1ccc(C(N)=O)c(C)n1

>  <∆∆G>  (63) 
-5.058027

>  <comRMSD>  (63) 
1.811482

$$$$
Z1250132716
     RDKit          3D

 12 12  0  0  0  0  0  0  0  0999 V2000
   -6.1108   -6.4256   -3.7935 N   0  0  0  0  0  0  0  0  0  0  0  0
   -7.2047   -5.5877   -3.8318 C   0  0  0  0  0  0  0  0  0  0  0  0
   -7.0223   -4.1653   -3.9204 O   0  0  0  0  0  0  0  0  0  0  0  0
   -8.5034   -6.3077   -3.7724 C   0  0  0  0  0  0  0  0  0  0  0  0
   -9.2848   -5.9343   -4.6638 O   0  0  0  0  0  0  0  0  0  0  0  0
   -8.7770   -5.4974   -5.8575 C   0  0  0  0  0  0  0  0  0  0  0  0
   -7.8283   -6.3546   -6.4810 C   0  0  0  0  0  0  0  0  0  0  0  0
   -7.2187   -5.9698   -7.7388 C   0  0  0  0  0  0  0  0  0  0  0  0
   -7.4945   -4.8180   -8.3873 C   0  0  0  0  0  0  0  0  0  0  0  0
   -6.9211   -4.4582   -9.5467 O   0  0  0  0  0  0  0  0  0  0  0  0
   -8.4427   -4.0045   -7.7517 C   0  0  0  0  0  0  0  0  0  0  0  0
   -9.0774   -4.2987   -6.5391 C   0  0  0  0  0  0  0  0  0  0  0  0
  1  2  1  0
  2  3  2  0
  2  4  1  0
  4  5  1  0
  5  6  1  0
  6  7  2  0
  7  8  1  0
  8  9  2  0
  9 10  1  0
  9 11  1  0
 11 12  2  0
 12  6  1  0
A    1
 N1 
A    2
 C1 
A    3
 O1 
A    4
 C2 
A    5
 O2 
A    6
 C3 
A    7
 C4 
A    8
 C5 
A    9
 C6 
A   10
 O3 
A   11
 C7 
A   12
 C8 
M  END
>  <ref_pdb>  (64) 
X0147_0A

>  <ref_mols>  (64) 
x0147_0A

>  <original SMILES>  (64) 
NC(=O)COc1ccc(O)cc1

>  <∆∆G>  (64) 
-5.032291

>  <comRMSD>  (64) 
0.428048

$$$$
Z3228146173
     RDKit          3D

 12 12  0  0  0  0  0  0  0  0999 V2000
   -8.7027   -3.3836   -7.9917 N   0  0  0  0  0  0  0  0  0  0  0  0
   -7.7129   -4.3356   -8.1257 C   0  0  0  0  0  0  0  0  0  0  0  0
   -6.7863   -4.2127   -9.1876 O   0  0  0  0  0  0  0  0  0  0  0  0
   -7.7478   -5.3733   -7.0946 C   0  0  0  0  0  0  0  0  0  0  0  0
   -8.1409   -5.1139   -5.7894 C   0  0  0  0  0  0  0  0  0  0  0  0
   -8.1186   -6.2619   -4.9504 C   0  0  0  0  0  0  0  0  0  0  0  0
   -7.7355   -7.5738   -5.4009 C   0  0  0  0  0  0  0  0  0  0  0  0
   -7.7432   -8.6210   -4.5703 F   0  0  0  0  0  0  0  0  0  0  0  0
   -7.3600   -7.7884   -6.6646 C   0  0  0  0  0  0  0  0  0  0  0  0
   -7.0220   -9.2984   -6.8728 C   0  0  0  0  0  0  0  0  0  0  0  0
   -6.9868   -9.6617   -8.2348 O   0  0  0  0  0  0  0  0  0  0  0  0
   -7.3519   -6.6765   -7.5350 C   0  0  0  0  0  0  0  0  0  0  0  0
  1  2  1  0
  2  3  2  0
  2  4  1  0
  4  5  2  0
  5  6  1  0
  6  7  2  0
  7  8  1  0
  7  9  1  0
  9 10  1  0
 10 11  1  0
  9 12  2  0
 12  4  1  0
A    1
 N1 
A    2
 C1 
A    3
 O1 
A    4
 C2 
A    5
 C3 
A    6
 C4 
A    7
 C5 
A    8
 F1 
A    9
 C6 
A   10
 C7 
A   11
 O2 
A   12
 C8 
M  END
>  <ref_pdb>  (65) 
X0147_0A

>  <ref_mols>  (65) 
x0147_0A

>  <original SMILES>  (65) 
NC(=O)c1ccc(F)c(CO)c1

>  <∆∆G>  (65) 
-5.031562

>  <comRMSD>  (65) 
1.096565

$$$$
PV-002599006944
     RDKit          3D

 13 14  0  0  0  0  0  0  0  0999 V2000
  -10.7421   -3.0992   -4.2425 C   0  0  0  0  0  0  0  0  0  0  0  0
  -11.3758   -4.2356   -5.0307 C   0  0  0  0  0  0  0  0  0  0  0  0
  -10.6555   -4.3460   -6.2918 N   0  0  0  0  0  0  0  0  0  0  0  0
  -10.5013   -3.0296   -6.8910 C   0  0  0  0  0  0  0  0  0  0  0  0
   -9.4794   -2.6475   -7.6827 N   0  0  0  0  0  0  0  0  0  0  0  0
   -8.5884   -3.6427   -7.8736 C   0  0  0  0  0  0  0  0  0  0  0  0
   -8.5836   -4.8781   -7.2830 C   0  0  0  0  0  0  0  0  0  0  0  0
   -7.4703   -5.4897   -7.8076 C   0  0  0  0  0  0  0  0  0  0  0  0
   -7.2114   -6.8030   -7.3420 C   0  0  0  0  0  0  0  0  0  0  0  0
   -6.7818   -4.7665   -8.6858 N   0  0  0  0  0  0  0  0  0  0  0  0
   -7.5063   -3.5835   -8.7165 O   0  0  0  0  0  0  0  0  0  0  0  0
   -9.5996   -5.2565   -6.3543 C   0  0  0  0  0  0  0  0  0  0  0  0
   -9.5339   -6.2893   -5.6946 O   0  0  0  0  0  0  0  0  0  0  0  0
  1  2  1  0
  2  3  1  0
  3  4  1  0
  4  5  2  0
  5  6  1  0
  6  7  2  0
  7  8  1  0
  8  9  1  0
  8 10  2  0
 10 11  1  0
  7 12  1  0
 12 13  2  0
 12  3  1  0
 11  6  1  0
A    1
 C1 
A    2
 C2 
A    3
 N1 
A    4
 C3 
A    5
 N2 
A    6
 C4 
A    7
 C5 
A    8
 C6 
A    9
 C7 
A   10
 N3 
A   11
 O1 
A   12
 C8 
A   13
 O2 
M  END
>  <ref_pdb>  (66) 
X0147_0A

>  <ref_mols>  (66) 
x0147_0A

>  <original SMILES>  (66) 
CCn1cnc2onc(C)c2c1=O

>  <∆∆G>  (66) 
-5.018057

>  <comRMSD>  (66) 
0.15425

$$$$
Z2792856454
     RDKit          3D

 20 21  0  0  0  0  0  0  0  0999 V2000
   -0.9658  -11.0430    2.5676 C   0  0  0  0  0  0  0  0  0  0  0  0
   -0.5345   -9.6664    2.2219 C   0  0  0  0  0  0  0  0  0  0  0  0
    0.2624   -9.4654    1.1071 C   0  0  0  0  0  0  0  0  0  0  0  0
    0.2504   -9.1642    3.3635 C   0  0  0  0  0  0  0  0  0  0  0  0
   -1.7312   -8.8911    2.0452 C   0  0  0  0  0  0  0  0  0  0  0  0
   -2.3257   -8.6616    0.9155 N   0  0  0  0  0  0  0  0  0  0  0  0
   -3.4124   -7.9415    1.2251 C   0  0  0  0  0  0  0  0  0  0  0  0
   -4.2919   -7.5916    0.0974 N   0  0  0  0  0  0  0  0  0  0  0  0
   -4.6231   -8.6024   -0.8841 C   0  0  0  0  0  0  0  0  0  0  0  0
   -6.1159   -8.4748   -1.0492 C   0  0  0  0  0  0  0  0  0  0  0  0
   -6.2102   -6.9765   -0.9931 C   0  0  2  0  0  0  0  0  0  0  0  0
   -5.5055   -6.3377   -2.1990 C   0  0  0  0  0  0  0  0  0  0  0  0
   -6.0645   -6.3883   -3.4014 N   0  0  0  0  0  0  0  0  0  0  0  0
   -7.2548   -5.2347   -3.3174 S   0  0  0  0  0  6  0  0  0  0  0  0
   -8.2790   -6.0221   -4.4398 C   0  0  0  0  0  0  0  0  0  0  0  0
   -7.8719   -5.3133   -2.0211 O   0  0  0  0  0  0  0  0  0  0  0  0
   -6.7208   -4.0274   -3.8919 O   0  0  0  0  0  0  0  0  0  0  0  0
   -5.4132   -6.7208    0.2588 C   0  0  0  0  0  0  0  0  0  0  0  0
   -3.5254   -7.6723    2.5357 N   0  0  0  0  0  0  0  0  0  0  0  0
   -2.4059   -8.3010    3.1021 O   0  0  0  0  0  0  0  0  0  0  0  0
  1  2  1  0
  2  3  1  0
  2  4  1  0
  2  5  1  0
  5  6  2  0
  6  7  1  0
  7  8  1  0
  8  9  1  0
  9 10  1  0
 10 11  1  0
 11 12  1  6
 12 13  1  0
 13 14  1  0
 14 15  1  0
 14 16  2  0
 14 17  2  0
 11 18  1  0
  7 19  2  0
 19 20  1  0
 20  5  1  0
 18  8  1  0
A    1
 C1 
A    2
 C2 
A    3
 C3 
A    4
 C4 
A    5
 C5 
A    6
 N1 
A    7
 C6 
A    8
 N2 
A    9
 C7 
A   10
 C8 
A   11
 C9 
A   12
 C10
A   13
 N3 
A   14
 S1 
A   15
 C11
A   16
 O1 
A   17
 O2 
A   18
 C12
A   19
 N4 
A   20
 O3 
M  END
>  <ref_pdb>  (67) 
X0147_0A

>  <ref_mols>  (67) 
x0147_0A

>  <original SMILES>  (67) 
CC(C)(C)c1nc(N2CC[C@H](CNS(C)(=O)=O)C2)no1

>  <∆∆G>  (67) 
-4.923263

>  <comRMSD>  (67) 
0.584692

$$$$
Z645687156
     RDKit          3D

 16 17  0  0  0  0  0  0  0  0999 V2000
   -5.3028   -6.2705   -3.1059 N   0  0  0  0  0  0  0  0  0  0  0  0
   -6.7890   -5.4860   -3.2147 S   0  0  0  0  0  6  0  0  0  0  0  0
   -6.5489   -4.1689   -3.7707 O   0  0  0  0  0  0  0  0  0  0  0  0
   -7.3877   -5.6517   -1.9058 O   0  0  0  0  0  0  0  0  0  0  0  0
   -7.6160   -6.5341   -4.3970 C   0  0  0  0  0  0  0  0  0  0  0  0
   -9.1281   -6.3622   -4.3559 C   0  0  0  0  0  0  0  0  0  0  0  0
   -9.7545   -6.3162   -5.5849 N   0  0  0  0  0  0  0  0  0  0  0  0
   -9.6867   -5.1718   -6.2213 C   0  0  0  0  0  0  0  0  0  0  0  0
  -10.5668   -4.1721   -6.0106 N   0  0  0  0  0  0  0  0  0  0  0  0
  -10.4231   -2.9343   -6.7406 C   0  0  0  0  0  0  0  0  0  0  0  0
   -9.4622   -2.6326   -7.6652 N   0  0  0  0  0  0  0  0  0  0  0  0
   -8.6453   -3.6970   -7.8072 C   0  0  0  0  0  0  0  0  0  0  0  0
   -8.6726   -4.9273   -7.1723 C   0  0  0  0  0  0  0  0  0  0  0  0
   -7.5204   -5.7089   -7.7230 C   0  0  0  0  0  0  0  0  0  0  0  0
   -6.8652   -4.9815   -8.6287 N   0  0  0  0  0  0  0  0  0  0  0  0
   -7.5569   -3.7976   -8.6532 N   0  0  0  0  0  0  0  0  0  0  0  0
  1  2  1  0
  2  3  2  0
  2  4  2  0
  2  5  1  0
  5  6  1  0
  6  7  1  0
  7  8  1  0
  8  9  2  0
  9 10  1  0
 10 11  2  0
 11 12  1  0
 12 13  2  0
 13 14  1  0
 14 15  2  0
 15 16  1  0
 13  8  1  0
 16 12  1  0
A    1
 N1 
A    2
 S1 
A    3
 O1 
A    4
 O2 
A    5
 C1 
A    6
 C2 
A    7
 N2 
A    8
 C3 
A    9
 N3 
A   10
 C4 
A   11
 N4 
A   12
 C5 
A   13
 C6 
A   14
 C7 
A   15
 N5 
A   16
 N6 
M  END
>  <ref_pdb>  (68) 
X0147_0A

>  <ref_mols>  (68) 
x0147_0A

>  <original SMILES>  (68) 
NS(=O)(=O)CCNc1ncnc2[nH]ncc12

>  <∆∆G>  (68) 
-4.873948

>  <comRMSD>  (68) 
0.397695

$$$$
PV-003006399842
     RDKit          3D

 15 16  0  0  0  0  0  0  0  0999 V2000
   -5.8879   -6.5832   -3.9126 N   0  0  0  0  0  0  0  0  0  0  0  0
   -6.8829   -5.4567   -3.2080 S   0  0  0  0  0  6  0  0  0  0  0  0
   -6.8862   -5.6854   -1.7823 O   0  0  0  0  0  0  0  0  0  0  0  0
   -6.6784   -4.1469   -3.7795 O   0  0  0  0  0  0  0  0  0  0  0  0
   -8.3571   -6.0744   -3.7284 N   0  0  0  0  0  0  0  0  0  0  0  0
   -8.5350   -6.4877   -5.1412 C   0  0  0  0  0  0  0  0  0  0  0  0
   -8.9006   -5.3087   -6.0272 C   0  0  0  0  0  0  0  0  0  0  0  0
  -10.1376   -4.5057   -5.6413 C   0  0  0  0  0  0  0  0  0  0  0  0
  -10.5613   -3.3262   -6.4565 C   0  0  0  0  0  0  0  0  0  0  0  0
   -9.7450   -2.9274   -7.6741 C   0  0  0  0  0  0  0  0  0  0  0  0
   -8.6246   -3.7329   -7.9467 C   0  0  0  0  0  0  0  0  0  0  0  0
   -7.7298   -3.6378   -8.9181 N   0  0  0  0  0  0  0  0  0  0  0  0
   -6.8179   -4.6311   -8.8156 O   0  0  0  0  0  0  0  0  0  0  0  0
   -7.1153   -5.4091   -7.7299 N   0  0  0  0  0  0  0  0  0  0  0  0
   -8.2094   -4.8964   -7.1567 C   0  0  0  0  0  0  0  0  0  0  0  0
  1  2  1  0
  2  3  2  0
  2  4  2  0
  2  5  1  0
  5  6  1  0
  6  7  1  0
  7  8  2  0
  8  9  1  0
  9 10  2  0
 10 11  1  0
 11 12  2  0
 12 13  1  0
 13 14  1  0
 14 15  2  0
 15  7  1  0
 15 11  1  0
A    1
 N1 
A    2
 S1 
A    3
 O1 
A    4
 O2 
A    5
 N2 
A    6
 C1 
A    7
 C2 
A    8
 C3 
A    9
 C4 
A   10
 C5 
A   11
 C6 
A   12
 N3 
A   13
 O3 
A   14
 N4 
A   15
 C7 
M  END
>  <ref_pdb>  (69) 
X0147_0A

>  <ref_mols>  (69) 
x0147_0A

>  <original SMILES>  (69) 
NS(=O)(=O)NCc1cccc2nonc12

>  <∆∆G>  (69) 
-4.784165

>  <comRMSD>  (69) 
1.595376

$$$$
Z160680390
     RDKit          3D

 15 15  0  0  0  0  0  0  0  0999 V2000
   -7.5198   -3.7370   -8.8079 N   0  0  0  0  0  0  0  0  0  0  0  0
   -6.9631   -5.0052   -8.5915 N   0  0  0  0  0  0  0  0  0  0  0  0
   -7.5584   -5.6177   -7.5049 C   0  0  0  0  0  0  0  0  0  0  0  0
   -7.3120   -6.7583   -7.1126 O   0  0  0  0  0  0  0  0  0  0  0  0
   -8.5843   -4.7019   -6.8555 C   0  0  0  0  0  0  0  0  0  0  0  0
   -9.7281   -4.5610   -7.5534 C   0  0  0  0  0  0  0  0  0  0  0  0
  -10.9252   -3.6936   -7.1942 C   0  0  0  0  0  0  0  0  0  0  0  0
  -10.8093   -2.9059   -5.9231 C   0  0  0  0  0  0  0  0  0  0  0  0
   -9.6253   -3.0940   -5.2317 C   0  0  0  0  0  0  0  0  0  0  0  0
   -8.4946   -4.0092   -5.6897 C   0  0  0  0  0  0  0  0  0  0  0  0
   -7.3602   -4.2087   -4.9934 O   0  0  0  0  0  0  0  0  0  0  0  0
   -7.3849   -5.4591   -4.3164 C   0  0  0  0  0  0  0  0  0  0  0  0
   -6.3550   -5.3710   -3.2324 C   0  0  0  0  0  0  0  0  0  0  0  0
   -5.4513   -6.3983   -3.1992 N   0  0  0  0  0  0  0  0  0  0  0  0
   -6.3111   -4.4385   -2.4581 O   0  0  0  0  0  0  0  0  0  0  0  0
  1  2  1  0
  2  3  1  0
  3  4  2  0
  3  5  1  0
  5  6  2  0
  6  7  1  0
  7  8  2  0
  8  9  1  0
  9 10  2  0
 10 11  1  0
 11 12  1  0
 12 13  1  0
 13 14  1  0
 13 15  2  0
 10  5  1  0
A    1
 N1 
A    2
 N2 
A    3
 C1 
A    4
 O1 
A    5
 C2 
A    6
 C3 
A    7
 C4 
A    8
 C5 
A    9
 C6 
A   10
 C7 
A   11
 O2 
A   12
 C8 
A   13
 C9 
A   14
 N3 
A   15
 O3 
M  END
>  <ref_pdb>  (70) 
X0147_0A

>  <ref_mols>  (70) 
x0147_0A

>  <original SMILES>  (70) 
NNC(=O)c1ccccc1OCC(N)=O

>  <∆∆G>  (70) 
-4.712791

>  <comRMSD>  (70) 
1.205985

$$$$
Z4878704506
     RDKit          3D

 14 15  0  0  0  0  0  0  0  0999 V2000
   -6.1761   -6.4248   -3.5620 N   0  0  0  0  0  0  0  0  0  0  0  0
   -7.1536   -5.5816   -3.7544 C   0  0  0  0  0  0  0  0  0  0  0  0
   -6.8540   -4.3811   -3.8511 O   0  0  0  0  0  0  0  0  0  0  0  0
   -8.6072   -5.9959   -3.8328 C   0  0  0  0  0  0  0  0  0  0  0  0
   -9.1990   -6.1288   -5.0784 N   0  0  0  0  0  0  0  0  0  0  0  0
   -9.3258   -5.0385   -5.9150 C   0  0  0  0  0  0  0  0  0  0  0  0
  -10.3506   -4.0208   -5.6604 C   0  0  0  0  0  0  0  0  0  0  0  0
  -10.4060   -2.8545   -6.5918 C   0  0  0  0  0  0  0  0  0  0  0  0
   -9.5146   -2.7758   -7.6327 C   0  0  0  0  0  0  0  0  0  0  0  0
   -8.5679   -3.7611   -7.8467 C   0  0  0  0  0  0  0  0  0  0  0  0
   -8.4579   -4.8710   -7.0345 C   0  0  0  0  0  0  0  0  0  0  0  0
   -7.3306   -5.7053   -7.5912 C   0  0  0  0  0  0  0  0  0  0  0  0
   -6.8257   -5.0878   -8.6623 N   0  0  0  0  0  0  0  0  0  0  0  0
   -7.5821   -3.9295   -8.7848 N   0  0  0  0  0  0  0  0  0  0  0  0
  1  2  1  0
  2  3  2  0
  2  4  1  0
  4  5  1  0
  5  6  1  0
  6  7  2  0
  7  8  1  0
  8  9  2  0
  9 10  1  0
 10 11  2  0
 11 12  1  0
 12 13  2  0
 13 14  1  0
 11  6  1  0
 14 10  1  0
A    1
 N1 
A    2
 C1 
A    3
 O1 
A    4
 C2 
A    5
 N2 
A    6
 C3 
A    7
 C4 
A    8
 C5 
A    9
 C6 
A   10
 C7 
A   11
 C8 
A   12
 C9 
A   13
 N3 
A   14
 N4 
M  END
>  <ref_pdb>  (71) 
X0147_0A

>  <ref_mols>  (71) 
x0147_0A

>  <original SMILES>  (71) 
NC(=O)CNc1cccc2[nH]ncc12

>  <∆∆G>  (71) 
-4.653597

>  <comRMSD>  (71) 
0.356042

$$$$
Z20247528
     RDKit          3D

 14 15  0  0  0  0  0  0  0  0999 V2000
   -5.5859   -6.4175   -3.4302 N   0  0  0  0  0  0  0  0  0  0  0  0
   -6.6724   -5.6872   -3.8291 C   0  0  0  0  0  0  0  0  0  0  0  0
   -6.7154   -4.2548   -3.8396 O   0  0  0  0  0  0  0  0  0  0  0  0
   -7.9356   -6.3922   -4.3187 C   0  0  0  0  0  0  0  0  0  0  0  0
   -7.7541   -7.1805   -5.9757 S   0  0  0  0  0  0  0  0  0  0  0  0
   -7.9112   -5.7446   -6.9911 C   0  0  0  0  0  0  0  0  0  0  0  0
   -7.0550   -5.4367   -8.0069 N   0  0  0  0  0  0  0  0  0  0  0  0
   -7.2917   -4.2876   -8.6798 C   0  0  0  0  0  0  0  0  0  0  0  0
   -8.2025   -3.3612   -8.5655 N   0  0  0  0  0  0  0  0  0  0  0  0
   -9.0175   -3.6618   -7.6166 C   0  0  0  0  0  0  0  0  0  0  0  0
   -8.9465   -4.8873   -6.7429 C   0  0  0  0  0  0  0  0  0  0  0  0
  -10.1001   -4.7567   -5.8323 C   0  0  0  0  0  0  0  0  0  0  0  0
  -10.8741   -3.6427   -6.0019 C   0  0  0  0  0  0  0  0  0  0  0  0
  -10.3011   -2.6284   -7.2709 S   0  0  0  0  0  0  0  0  0  0  0  0
  1  2  1  0
  2  3  2  0
  2  4  1  0
  4  5  1  0
  5  6  1  0
  6  7  2  0
  7  8  1  0
  8  9  2  0
  9 10  1  0
 10 11  2  0
 11 12  1  0
 12 13  2  0
 13 14  1  0
 11  6  1  0
 14 10  1  0
A    1
 N1 
A    2
 C1 
A    3
 O1 
A    4
 C2 
A    5
 S1 
A    6
 C3 
A    7
 N2 
A    8
 C4 
A    9
 N3 
A   10
 C5 
A   11
 C6 
A   12
 C7 
A   13
 C8 
A   14
 S2 
M  END
>  <ref_pdb>  (72) 
X0147_0A

>  <ref_mols>  (72) 
x0147_0A

>  <original SMILES>  (72) 
NC(=O)CSc1ncnc2sccc12

>  <∆∆G>  (72) 
-4.593107

>  <comRMSD>  (72) 
1.635244

$$$$
Z3337625566
     RDKit          3D

 26 28  0  0  0  0  0  0  0  0999 V2000
   -6.4780   -4.7961   -1.2161 C   0  0  0  0  0  0  0  0  0  0  0  0
   -7.5411   -5.5820   -1.7577 O   0  0  0  0  0  0  0  0  0  0  0  0
   -7.3439   -6.0217   -3.0309 C   0  0  0  0  0  0  0  0  0  0  0  0
   -8.1904   -6.1375   -3.9077 O   0  0  0  0  0  0  0  0  0  0  0  0
   -5.8806   -6.3641   -3.2189 C   0  0  0  0  0  0  0  0  0  0  0  0
   -5.8921   -7.6934   -3.5383 C   0  0  0  0  0  0  0  0  0  0  0  0
   -5.4816   -8.2753   -2.1766 C   0  0  0  0  0  0  0  0  0  0  0  0
   -6.2393   -9.3925   -1.5372 C   0  0  0  0  0  0  0  0  0  0  0  0
   -5.7557   -9.9158   -0.2062 C   0  0  0  0  0  0  0  0  0  0  0  0
   -4.5386   -9.2444    0.3524 C   0  0  0  0  0  0  0  0  0  0  0  0
   -4.0943   -9.8090    1.6618 C   0  0  0  0  0  0  0  0  0  0  0  0
   -3.5306   -8.8372    2.5471 N   0  0  0  0  0  0  0  0  0  0  0  0
   -4.4440   -8.7297    3.6484 C   0  0  0  0  0  0  0  0  0  0  0  0
   -4.1160   -8.2805    4.7146 O   0  0  0  0  0  0  0  0  0  0  0  0
   -5.7029   -9.2186    3.3418 N   0  0  0  0  0  0  0  0  0  0  0  0
   -6.1733  -10.5989    3.5422 C   0  0  0  0  0  0  0  0  0  0  0  0
   -5.4897  -11.3492    4.6982 C   0  0  0  0  0  0  0  0  0  0  0  0
   -5.9125  -12.7783    4.9854 C   0  0  0  0  0  0  0  0  0  0  0  0
   -6.9975  -13.3827    4.0991 C   0  0  0  0  0  0  0  0  0  0  0  0
   -7.6229  -12.5819    2.9792 C   0  0  0  0  0  0  0  0  0  0  0  0
   -8.5749  -13.1311    2.2121 F   0  0  0  0  0  0  0  0  0  0  0  0
   -7.1658  -11.1597    2.7331 C   0  0  0  0  0  0  0  0  0  0  0  0
   -2.9943   -7.5984    1.9534 C   0  0  0  0  0  0  0  0  0  0  0  0
   -2.6942   -7.6549    0.4485 C   0  0  0  0  0  0  0  0  0  0  0  0
   -3.8932   -8.2121   -0.2752 C   0  0  0  0  0  0  0  0  0  0  0  0
   -4.3546   -7.7443   -1.5141 C   0  0  0  0  0  0  0  0  0  0  0  0
  1  2  1  0
  2  3  1  0
  3  4  2  0
  3  5  1  0
  5  6  1  0
  6  7  1  0
  7  8  2  0
  8  9  1  0
  9 10  2  0
 10 11  1  0
 11 12  1  0
 12 13  1  0
 13 14  2  0
 13 15  1  0
 15 16  1  0
 16 17  2  0
 17 18  1  0
 18 19  2  0
 19 20  1  0
 20 21  1  0
 20 22  2  0
 12 23  1  0
 23 24  1  0
 24 25  1  0
 25 26  2  0
 26  7  1  0
 25 10  1  0
 22 16  1  0
A    1
 C1 
A    2
 O1 
A    3
 C2 
A    4
 O2 
A    5
 C3 
A    6
 C4 
A    7
 C5 
A    8
 C6 
A    9
 C7 
A   10
 C8 
A   11
 C9 
A   12
 N1 
A   13
 C10
A   14
 O3 
A   15
 N2 
A   16
 C11
A   17
 C12
A   18
 C13
A   19
 C14
A   20
 C15
A   21
 F1 
A   22
 C16
A   23
 C17
A   24
 C18
A   25
 C19
A   26
 C20
M  END
>  <ref_pdb>  (73) 
X0147_0A

>  <ref_mols>  (73) 
x0147_0A

>  <original SMILES>  (73) 
COC(=O)CCc1ccc2c(c1)CCN(C(=O)Nc1cccc(F)c1)C2

>  <∆∆G>  (73) 
-4.522903

>  <comRMSD>  (73) 
0.912114

$$$$
Z1763552996
     RDKit          3D

 12 12  0  0  0  0  0  0  0  0999 V2000
   -7.1359   -4.5242   -9.4488 N   0  0  0  0  0  0  0  0  0  0  0  0
   -7.5232   -4.8069   -8.2023 C   0  0  0  0  0  0  0  0  0  0  0  0
   -7.1461   -6.1074   -7.6724 C   0  0  0  0  0  0  0  0  0  0  0  0
   -7.4025   -6.5606   -6.4197 C   0  0  0  0  0  0  0  0  0  0  0  0
   -8.1058   -5.5460   -5.6789 C   0  0  0  0  0  0  0  0  0  0  0  0
   -8.3755   -5.8346   -4.3871 N   0  0  0  0  0  0  0  0  0  0  0  0
   -7.0952   -5.4781   -3.3636 S   0  0  0  0  0  6  0  0  0  0  0  0
   -5.9918   -6.6839   -3.7587 N   0  0  0  0  0  0  0  0  0  0  0  0
   -6.5065   -4.2069   -3.7309 O   0  0  0  0  0  0  0  0  0  0  0  0
   -7.4977   -5.7334   -1.9937 O   0  0  0  0  0  0  0  0  0  0  0  0
   -8.4900   -4.3026   -6.2206 C   0  0  0  0  0  0  0  0  0  0  0  0
   -8.2107   -3.9134   -7.4874 N   0  0  0  0  0  0  0  0  0  0  0  0
  1  2  1  0
  2  3  2  0
  3  4  1  0
  4  5  2  0
  5  6  1  0
  6  7  1  0
  7  8  1  0
  7  9  2  0
  7 10  2  0
  5 11  1  0
 11 12  2  0
 12  2  1  0
A    1
 N1 
A    2
 C1 
A    3
 C2 
A    4
 C3 
A    5
 C4 
A    6
 N2 
A    7
 S1 
A    8
 N3 
A    9
 O1 
A   10
 O2 
A   11
 C5 
A   12
 N4 
M  END
>  <ref_pdb>  (74) 
X0147_0A

>  <ref_mols>  (74) 
x0147_0A

>  <original SMILES>  (74) 
Nc1ccc(NS(N)(=O)=O)cn1

>  <∆∆G>  (74) 
-4.52265

>  <comRMSD>  (74) 
0.665813

$$$$
Z2226339427
     RDKit          3D

 22 24  0  0  0  0  0  0  0  0999 V2000
   -4.6826   -8.4509   -1.2839 C   0  0  0  0  0  0  0  0  0  0  0  0
   -5.4954   -7.2211   -1.2345 C   0  0  0  0  0  0  0  0  0  0  0  0
   -5.4312   -6.0905   -2.0103 C   0  0  0  0  0  0  0  0  0  0  0  0
   -6.4256   -5.1287   -1.6062 C   0  0  0  0  0  0  0  0  0  0  0  0
   -6.6374   -3.8069   -2.2142 C   0  0  0  0  0  0  0  0  0  0  0  0
   -6.3349   -3.5915   -3.3841 O   0  0  0  0  0  0  0  0  0  0  0  0
   -7.1948   -2.8510   -1.3695 N   0  0  0  0  0  0  0  0  0  0  0  0
   -6.5888   -1.5408   -1.2619 C   0  0  0  0  0  0  0  0  0  0  0  0
   -7.4969   -0.4743   -0.6479 C   0  0  2  0  0  0  0  0  0  0  0  0
   -7.4534    0.7209   -1.5869 C   0  0  0  0  0  0  0  0  0  0  0  0
   -6.0444    1.3036   -1.6611 C   0  0  0  0  0  0  0  0  0  0  0  0
   -5.5703    1.5159   -0.2699 C   0  0  0  0  0  0  0  0  0  0  0  0
   -6.7018    1.4336    0.5998 N   0  0  0  0  0  0  0  0  0  0  0  0
   -6.4617    2.2945    1.7592 C   0  0  0  0  0  0  0  0  0  0  0  0
   -6.1587    3.6909    1.2644 C   0  0  0  0  0  0  0  0  0  0  0  0
   -6.6603    4.7980    1.8330 N   0  0  0  0  0  0  0  0  0  0  0  0
   -6.1271    5.8359    1.0590 O   0  0  0  0  0  0  0  0  0  0  0  0
   -5.3608    5.2527    0.1037 C   0  0  0  0  0  0  0  0  0  0  0  0
   -5.3379    3.9463    0.1743 N   0  0  0  0  0  0  0  0  0  0  0  0
   -7.0595    0.0204    0.7472 C   0  0  0  0  0  0  0  0  0  0  0  0
   -7.1945   -5.5192   -0.5887 N   0  0  0  0  0  0  0  0  0  0  0  0
   -6.7450   -7.0255   -0.0965 S   0  0  0  0  0  0  0  0  0  0  0  0
  1  2  1  0
  2  3  2  0
  3  4  1  0
  4  5  1  0
  5  6  2  0
  5  7  1  0
  7  8  1  0
  9  8  1  6
  9 10  1  0
 10 11  1  0
 11 12  1  0
 12 13  1  0
 13 14  1  0
 14 15  1  0
 15 16  2  0
 16 17  1  0
 17 18  1  0
 18 19  2  0
 13 20  1  0
  4 21  2  0
 21 22  1  0
 22  2  1  0
 20  9  1  0
 19 15  1  0
A    1
 C1 
A    2
 C2 
A    3
 C3 
A    4
 C4 
A    5
 C5 
A    6
 O1 
A    7
 N1 
A    8
 C6 
A    9
 C7 
A   10
 C8 
A   11
 C9 
A   12
 C10
A   13
 N2 
A   14
 C11
A   15
 C12
A   16
 N3 
A   17
 O2 
A   18
 C13
A   19
 N4 
A   20
 C14
A   21
 N5 
A   22
 S1 
M  END
>  <ref_pdb>  (75) 
X0147_0A

>  <ref_mols>  (75) 
x0147_0A

>  <original SMILES>  (75) 
Cc1cc(C(=O)NC[C@@H]2CCCN(Cc3ncon3)C2)ns1

>  <∆∆G>  (75) 
-4.454871

>  <comRMSD>  (75) 
1.208872

$$$$
PV-002975224803
     RDKit          3D

 12 12  0  0  0  0  0  0  0  0999 V2000
   -6.1640   -6.3365   -3.9750 N   0  0  0  0  0  0  0  0  0  0  0  0
   -7.2107   -5.1553   -3.4458 S   0  0  0  0  0  6  0  0  0  0  0  0
   -7.7083   -5.5837   -2.1471 O   0  0  0  0  0  0  0  0  0  0  0  0
   -6.5792   -3.8625   -3.6082 O   0  0  0  0  0  0  0  0  0  0  0  0
   -8.4229   -5.3256   -4.5919 N   0  0  0  0  0  0  0  0  0  0  0  0
   -9.3033   -4.1465   -4.9535 C   0  0  0  0  0  0  0  0  0  0  0  0
   -9.3406   -3.7988   -6.4453 C   0  0  0  0  0  0  0  0  0  0  0  0
   -8.3699   -4.3913   -7.2410 C   0  0  0  0  0  0  0  0  0  0  0  0
   -7.6975   -3.8371   -8.3007 C   0  0  0  0  0  0  0  0  0  0  0  0
   -6.8333   -4.7883   -8.7363 N   0  0  0  0  0  0  0  0  0  0  0  0
   -6.9693   -5.8955   -7.9998 N   0  0  0  0  0  0  0  0  0  0  0  0
   -7.9207   -5.6566   -7.0666 N   0  0  0  0  0  0  0  0  0  0  0  0
  1  2  1  0
  2  3  2  0
  2  4  2  0
  2  5  1  0
  5  6  1  0
  6  7  1  0
  7  8  1  0
  8  9  2  0
  9 10  1  0
 10 11  1  0
 11 12  2  0
 12  8  1  0
A    1
 N1 
A    2
 S1 
A    3
 O1 
A    4
 O2 
A    5
 N2 
A    6
 C1 
A    7
 C2 
A    8
 C3 
A    9
 C4 
A   10
 N3 
A   11
 N4 
A   12
 N5 
M  END
>  <ref_pdb>  (76) 
X0147_0A

>  <ref_mols>  (76) 
x0147_0A

>  <original SMILES>  (76) 
NS(=O)(=O)NCCc1c[nH]nn1

>  <∆∆G>  (76) 
-3.993885

>  <comRMSD>  (76) 
0.754682

$$$$
PV-002597227774
     RDKit          3D

 14 15  0  0  0  0  0  0  0  0999 V2000
   -5.6732   -6.5817   -3.4643 N   0  0  0  0  0  0  0  0  0  0  0  0
   -6.7082   -5.6029   -3.8372 C   0  0  0  0  0  0  0  0  0  0  0  0
   -6.5757   -4.1795   -3.7820 O   0  0  0  0  0  0  0  0  0  0  0  0
   -8.0430   -6.1359   -4.3165 C   0  0  0  0  0  0  0  0  0  0  0  0
   -7.8887   -7.0613   -5.8970 S   0  0  0  0  0  0  0  0  0  0  0  0
   -7.8688   -5.8014   -7.0370 C   0  0  0  0  0  0  0  0  0  0  0  0
   -7.0319   -5.8331   -8.0810 N   0  0  0  0  0  0  0  0  0  0  0  0
   -7.1190   -4.7729   -8.8879 C   0  0  0  0  0  0  0  0  0  0  0  0
   -7.8775   -3.6752   -8.8418 N   0  0  0  0  0  0  0  0  0  0  0  0
   -8.7030   -3.6886   -7.8072 C   0  0  0  0  0  0  0  0  0  0  0  0
   -8.7471   -4.7102   -6.8874 C   0  0  0  0  0  0  0  0  0  0  0  0
   -9.8158   -4.2870   -5.9360 C   0  0  0  0  0  0  0  0  0  0  0  0
  -10.3504   -3.0226   -6.3447 C   0  0  0  0  0  0  0  0  0  0  0  0
   -9.6471   -2.6820   -7.4946 N   0  0  0  0  0  0  0  0  0  0  0  0
  1  2  1  0
  2  3  2  0
  2  4  1  0
  4  5  1  0
  5  6  1  0
  6  7  2  0
  7  8  1  0
  8  9  2  0
  9 10  1  0
 10 11  2  0
 11 12  1  0
 12 13  2  0
 13 14  1  0
 11  6  1  0
 14 10  1  0
A    1
 N1 
A    2
 C1 
A    3
 O1 
A    4
 C2 
A    5
 S1 
A    6
 C3 
A    7
 N2 
A    8
 C4 
A    9
 N3 
A   10
 C5 
A   11
 C6 
A   12
 C7 
A   13
 C8 
A   14
 N4 
M  END
>  <ref_pdb>  (77) 
X0147_0A

>  <ref_mols>  (77) 
x0147_0A

>  <original SMILES>  (77) 
NC(=O)CSc1ncnc2[nH]ccc12

>  <∆∆G>  (77) 
-3.898199

>  <comRMSD>  (77) 
0.723106

$$$$
Z1675330884
     RDKit          3D

 15 15  0  0  0  0  0  0  0  0999 V2000
   -5.4775   -6.2436   -3.3825 N   0  0  0  0  0  0  0  0  0  0  0  0
   -6.7800   -6.0112   -3.7071 C   0  0  0  0  0  0  0  0  0  0  0  0
   -7.4891   -5.3776   -2.9175 O   0  0  0  0  0  0  0  0  0  0  0  0
   -7.2664   -6.6217   -5.0341 C   0  0  0  0  0  0  0  0  0  0  0  0
   -7.2888   -5.7161   -6.1818 O   0  0  0  0  0  0  0  0  0  0  0  0
   -8.5566   -5.2818   -6.3795 C   0  0  0  0  0  0  0  0  0  0  0  0
   -9.4545   -5.9806   -5.6224 C   0  0  0  0  0  0  0  0  0  0  0  0
  -10.8210   -5.7011   -5.6265 C   0  0  0  0  0  0  0  0  0  0  0  0
  -11.3371   -4.6401   -6.4543 C   0  0  0  0  0  0  0  0  0  0  0  0
  -10.3599   -3.9029   -7.2703 C   0  0  0  0  0  0  0  0  0  0  0  0
  -10.8433   -2.9157   -8.0365 F   0  0  0  0  0  0  0  0  0  0  0  0
   -9.0108   -4.2315   -7.2268 C   0  0  0  0  0  0  0  0  0  0  0  0
   -8.2632   -3.4678   -8.0266 C   0  0  0  0  0  0  0  0  0  0  0  0
   -7.1737   -3.9821   -8.6456 N   0  0  0  0  0  0  0  0  0  0  0  0
   -8.6171   -2.3107   -8.2068 O   0  0  0  0  0  0  0  0  0  0  0  0
  1  2  1  0
  2  3  2  0
  2  4  1  0
  4  5  1  0
  5  6  1  0
  6  7  2  0
  7  8  1  0
  8  9  2  0
  9 10  1  0
 10 11  1  0
 10 12  2  0
 12 13  1  0
 13 14  1  0
 13 15  2  0
 12  6  1  0
A    1
 N1 
A    2
 C1 
A    3
 O1 
A    4
 C2 
A    5
 O2 
A    6
 C3 
A    7
 C4 
A    8
 C5 
A    9
 C6 
A   10
 C7 
A   11
 F1 
A   12
 C8 
A   13
 C9 
A   14
 N2 
A   15
 O3 
M  END
>  <ref_pdb>  (78) 
X0147_0A

>  <ref_mols>  (78) 
x0147_0A

>  <original SMILES>  (78) 
NC(=O)COc1cccc(F)c1C(N)=O

>  <∆∆G>  (78) 
-3.761799

>  <comRMSD>  (78) 
1.758849

$$$$
Z1039075940
     RDKit          3D

 16 17  0  0  0  0  0  0  0  0999 V2000
   -5.8069   -6.4162   -3.7429 N   0  0  0  0  0  0  0  0  0  0  0  0
   -6.8406   -5.3193   -3.0045 S   0  0  0  0  0  6  0  0  0  0  0  0
   -6.6202   -4.0291   -3.6339 O   0  0  0  0  0  0  0  0  0  0  0  0
   -6.7014   -5.5022   -1.5796 O   0  0  0  0  0  0  0  0  0  0  0  0
   -8.4545   -5.9207   -3.4706 C   0  0  0  0  0  0  0  0  0  0  0  0
   -8.4781   -6.7370   -4.7708 C   0  0  0  0  0  0  0  0  0  0  0  0
   -9.7202   -6.3743   -5.4980 N   0  0  0  0  0  0  0  0  0  0  0  0
   -9.6866   -5.1210   -6.1145 C   0  0  0  0  0  0  0  0  0  0  0  0
  -10.5154   -4.1124   -5.7199 N   0  0  0  0  0  0  0  0  0  0  0  0
  -10.4126   -2.9551   -6.3536 C   0  0  0  0  0  0  0  0  0  0  0  0
   -9.5595   -2.5891   -7.3997 N   0  0  0  0  0  0  0  0  0  0  0  0
   -8.7868   -3.6102   -7.7393 C   0  0  0  0  0  0  0  0  0  0  0  0
   -8.7973   -4.8774   -7.1555 C   0  0  0  0  0  0  0  0  0  0  0  0
   -7.7620   -5.5947   -7.9216 C   0  0  0  0  0  0  0  0  0  0  0  0
   -7.2371   -4.8151   -8.8467 C   0  0  0  0  0  0  0  0  0  0  0  0
   -7.8245   -3.5950   -8.7508 N   0  0  0  0  0  0  0  0  0  0  0  0
  1  2  1  0
  2  3  2  0
  2  4  2  0
  2  5  1  0
  5  6  1  0
  6  7  1  0
  7  8  1  0
  8  9  2  0
  9 10  1  0
 10 11  2  0
 11 12  1  0
 12 13  2  0
 13 14  1  0
 14 15  2  0
 15 16  1  0
 13  8  1  0
 16 12  1  0
A    1
 N1 
A    2
 S1 
A    3
 O1 
A    4
 O2 
A    5
 C1 
A    6
 C2 
A    7
 N2 
A    8
 C3 
A    9
 N3 
A   10
 C4 
A   11
 N4 
A   12
 C5 
A   13
 C6 
A   14
 C7 
A   15
 C8 
A   16
 N5 
M  END
>  <ref_pdb>  (79) 
X0147_0A

>  <ref_mols>  (79) 
x0147_0A

>  <original SMILES>  (79) 
NS(=O)(=O)CCNc1ncnc2[nH]ccc12

>  <∆∆G>  (79) 
-3.759706

>  <comRMSD>  (79) 
0.447989

$$$$
Z1918456855
     RDKit          3D

 13 13  0  0  0  0  0  0  0  0999 V2000
   -7.1964   -4.5286   -9.4626 N   0  0  0  0  0  0  0  0  0  0  0  0
   -7.6800   -4.7550   -8.3167 C   0  0  0  0  0  0  0  0  0  0  0  0
   -7.3723   -5.9809   -7.6432 C   0  0  0  0  0  0  0  0  0  0  0  0
   -7.7524   -6.4400   -6.4337 C   0  0  0  0  0  0  0  0  0  0  0  0
   -8.5946   -5.4318   -5.8383 C   0  0  0  0  0  0  0  0  0  0  0  0
   -9.1685   -5.5879   -4.5017 C   0  0  0  0  0  0  0  0  0  0  0  0
   -8.3447   -6.3095   -3.6621 N   0  0  0  0  0  0  0  0  0  0  0  0
   -6.9612   -5.4888   -3.2134 S   0  0  0  0  0  6  0  0  0  0  0  0
   -5.8386   -6.6312   -3.7237 N   0  0  0  0  0  0  0  0  0  0  0  0
   -6.8082   -4.3253   -4.0524 O   0  0  0  0  0  0  0  0  0  0  0  0
   -6.9050   -5.4382   -1.7746 O   0  0  0  0  0  0  0  0  0  0  0  0
   -8.8994   -4.2351   -6.5176 C   0  0  0  0  0  0  0  0  0  0  0  0
   -8.4674   -3.8679   -7.7407 N   0  0  0  0  0  0  0  0  0  0  0  0
  1  2  1  0
  2  3  2  0
  3  4  1  0
  4  5  2  0
  5  6  1  0
  6  7  1  0
  7  8  1  0
  8  9  1  0
  8 10  2  0
  8 11  2  0
  5 12  1  0
 12 13  2  0
 13  2  1  0
A    1
 N1 
A    2
 C1 
A    3
 C2 
A    4
 C3 
A    5
 C4 
A    6
 C5 
A    7
 N2 
A    8
 S1 
A    9
 N3 
A   10
 O1 
A   11
 O2 
A   12
 C6 
A   13
 N4 
M  END
>  <ref_pdb>  (80) 
X0147_0A

>  <ref_mols>  (80) 
x0147_0A

>  <original SMILES>  (80) 
Nc1ccc(CNS(N)(=O)=O)cn1

>  <∆∆G>  (80) 
-3.658316

>  <comRMSD>  (80) 
0.479508

$$$$
PV-002465922613
     RDKit          3D

 15 16  0  0  0  0  0  0  0  0999 V2000
   -6.1180   -6.5564   -2.9632 N   0  0  0  0  0  0  0  0  0  0  0  0
   -6.6421   -5.7470   -4.0599 C   0  0  0  0  0  0  0  0  0  0  0  0
   -6.7253   -4.3116   -3.9736 O   0  0  0  0  0  0  0  0  0  0  0  0
   -7.0446   -6.6081   -5.2175 C   0  0  0  0  0  0  0  0  0  0  0  0
   -7.2099   -6.0529   -6.3289 O   0  0  0  0  0  0  0  0  0  0  0  0
   -8.4592   -5.5865   -6.3752 C   0  0  0  0  0  0  0  0  0  0  0  0
   -9.4537   -6.3381   -5.6049 C   0  0  0  0  0  0  0  0  0  0  0  0
  -10.9075   -5.8922   -5.5388 C   0  0  0  0  0  0  0  0  0  0  0  0
  -11.3475   -4.7078   -6.2373 C   0  0  0  0  0  0  0  0  0  0  0  0
  -10.3559   -3.9208   -7.0413 C   0  0  0  0  0  0  0  0  0  0  0  0
   -8.9229   -4.4651   -7.0498 C   0  0  0  0  0  0  0  0  0  0  0  0
   -8.2846   -3.4608   -7.9358 C   0  0  0  0  0  0  0  0  0  0  0  0
   -7.2642   -3.5858   -8.6097 O   0  0  0  0  0  0  0  0  0  0  0  0
   -9.1220   -2.1930   -7.9310 C   0  0  0  0  0  0  0  0  0  0  0  0
  -10.5544   -2.6859   -7.8113 C   0  0  0  0  0  0  0  0  0  0  0  0
  1  2  1  0
  2  3  2  0
  2  4  1  0
  4  5  1  0
  5  6  1  0
  6  7  2  0
  7  8  1  0
  8  9  2  0
  9 10  1  0
 10 11  2  0
 11 12  1  0
 12 13  2  0
 12 14  1  0
 14 15  1  0
 11  6  1  0
 15 10  1  0
A    1
 N1 
A    2
 C1 
A    3
 O1 
A    4
 C2 
A    5
 O2 
A    6
 C3 
A    7
 C4 
A    8
 C5 
A    9
 C6 
A   10
 C7 
A   11
 C8 
A   12
 C9 
A   13
 O3 
A   14
 C10
A   15
 C11
M  END
>  <ref_pdb>  (81) 
X0147_0A

>  <ref_mols>  (81) 
x0147_0A

>  <original SMILES>  (81) 
NC(=O)COc1cccc2c1C(=O)CC2

>  <∆∆G>  (81) 
-3.612

>  <comRMSD>  (81) 
1.742926

$$$$
Z4154033449
     RDKit          3D

 17 18  0  0  0  0  0  0  0  0999 V2000
   -9.8188   -3.6045   -7.1200 C   0  0  0  0  0  0  0  0  0  0  0  0
   -8.4943   -4.0273   -7.6037 C   0  0  0  0  0  0  0  0  0  0  0  0
   -7.7461   -3.5482   -8.5487 C   0  0  0  0  0  0  0  0  0  0  0  0
   -8.4052   -2.2520   -8.5679 N   0  0  0  0  0  0  0  0  0  0  0  0
   -7.9682   -5.1854   -6.8579 C   0  0  0  0  0  0  0  0  0  0  0  0
   -7.7983   -6.4724   -7.3947 C   0  0  0  0  0  0  0  0  0  0  0  0
   -7.3563   -7.6496   -6.6638 C   0  0  0  0  0  0  0  0  0  0  0  0
   -6.9932   -7.4936   -5.2180 C   0  0  0  0  0  0  0  0  0  0  0  0
   -6.6487   -8.5703   -4.7503 O   0  0  0  0  0  0  0  0  0  0  0  0
   -6.4589   -9.4860   -5.8685 C   0  0  0  0  0  0  0  0  0  0  0  0
   -7.1694   -9.0622   -7.0190 C   0  0  0  0  0  0  0  0  0  0  0  0
   -7.1105   -6.0723   -4.6407 C   0  0  0  0  0  0  0  0  0  0  0  0
   -6.6850   -5.5636   -3.0503 S   0  0  0  0  0  6  0  0  0  0  0  0
   -5.2728   -6.4336   -2.8072 N   0  0  0  0  0  0  0  0  0  0  0  0
   -6.3612   -4.1461   -3.2067 O   0  0  0  0  0  0  0  0  0  0  0  0
   -7.6116   -6.0250   -2.0395 O   0  0  0  0  0  0  0  0  0  0  0  0
   -7.6326   -4.9975   -5.5507 C   0  0  0  0  0  0  0  0  0  0  0  0
  1  2  2  3
  2  3  1  0
  3  4  1  0
  2  5  1  0
  5  6  2  0
  6  7  1  0
  7  8  2  0
  8  9  1  0
  9 10  1  0
 10 11  1  0
  8 12  1  0
 12 13  1  0
 13 14  1  0
 13 15  2  0
 13 16  2  0
 12 17  2  0
 17  5  1  0
 11  7  1  0
A    1
 C1 
A    2
 C2 
A    3
 C3 
A    4
 N1 
A    5
 C4 
A    6
 C5 
A    7
 C6 
A    8
 C7 
A    9
 O1 
A   10
 C8 
A   11
 C9 
A   12
 C10
A   13
 S1 
A   14
 N2 
A   15
 O2 
A   16
 O3 
A   17
 C11
M  END
>  <ref_pdb>  (82) 
X0147_0A

>  <ref_mols>  (82) 
x0147_0A

>  <original SMILES>  (82) 
C=C(CN)c1cc2c(c(S(N)(=O)=O)c1)OCC2

>  <∆∆G>  (82) 
-3.527596

>  <comRMSD>  (82) 
0.993704

$$$$
PV-002739012115
     RDKit          3D

 16 17  0  0  0  0  0  0  0  0999 V2000
   -5.4800   -6.1790   -3.2859 N   0  0  0  0  0  0  0  0  0  0  0  0
   -6.9363   -5.4189   -3.1206 S   0  0  0  0  0  6  0  0  0  0  0  0
   -7.2413   -5.5014   -1.7087 O   0  0  0  0  0  0  0  0  0  0  0  0
   -6.8925   -4.1485   -3.8067 O   0  0  0  0  0  0  0  0  0  0  0  0
   -7.9929   -6.5627   -4.0051 C   0  0  0  0  0  0  0  0  0  0  0  0
   -9.3895   -6.0461   -4.2419 C   0  0  0  0  0  0  0  0  0  0  0  0
   -9.7298   -6.2267   -5.4790 N   0  0  0  0  0  0  0  0  0  0  0  0
   -9.7246   -5.0573   -6.1662 C   0  0  0  0  0  0  0  0  0  0  0  0
  -10.6302   -4.0873   -5.9648 N   0  0  0  0  0  0  0  0  0  0  0  0
  -10.5032   -2.9514   -6.7038 C   0  0  0  0  0  0  0  0  0  0  0  0
   -9.5655   -2.6755   -7.6282 N   0  0  0  0  0  0  0  0  0  0  0  0
   -8.7014   -3.6714   -7.7994 C   0  0  0  0  0  0  0  0  0  0  0  0
   -8.7260   -4.8651   -7.1115 C   0  0  0  0  0  0  0  0  0  0  0  0
   -7.5936   -5.6580   -7.6113 C   0  0  0  0  0  0  0  0  0  0  0  0
   -6.9593   -4.8896   -8.6417 C   0  0  0  0  0  0  0  0  0  0  0  0
   -7.6380   -3.6014   -8.7294 O   0  0  0  0  0  0  0  0  0  0  0  0
  1  2  1  0
  2  3  2  0
  2  4  2  0
  2  5  1  0
  5  6  1  0
  6  7  1  0
  7  8  1  0
  8  9  2  0
  9 10  1  0
 10 11  2  0
 11 12  1  0
 12 13  2  0
 13 14  1  0
 14 15  1  0
 15 16  1  0
 13  8  1  0
 16 12  1  0
A    1
 N1 
A    2
 S1 
A    3
 O1 
A    4
 O2 
A    5
 C1 
A    6
 C2 
A    7
 N2 
A    8
 C3 
A    9
 N3 
A   10
 C4 
A   11
 N4 
A   12
 C5 
A   13
 C6 
A   14
 C7 
A   15
 C8 
A   16
 O3 
M  END
>  <ref_pdb>  (83) 
X0147_0A

>  <ref_mols>  (83) 
x0147_0A

>  <original SMILES>  (83) 
NS(=O)(=O)CCNc1ncnc2c1CCO2

>  <∆∆G>  (83) 
-3.368621

>  <comRMSD>  (83) 
0.42079

$$$$
PV-002408964856
     RDKit          3D

 14 15  0  0  0  0  0  0  0  0999 V2000
   -5.7511   -6.5093   -3.4683 N   0  0  0  0  0  0  0  0  0  0  0  0
   -6.7765   -5.5226   -3.8381 C   0  0  0  0  0  0  0  0  0  0  0  0
   -6.5536   -4.3024   -3.8032 O   0  0  0  0  0  0  0  0  0  0  0  0
   -8.1216   -6.1775   -4.2426 C   0  0  0  0  0  0  0  0  0  0  0  0
   -8.0052   -7.1025   -5.8218 S   0  0  0  0  0  0  0  0  0  0  0  0
   -7.9246   -5.8129   -6.9839 C   0  0  0  0  0  0  0  0  0  0  0  0
   -6.9313   -5.8650   -8.1402 C   0  0  0  0  0  0  0  0  0  0  0  0
   -7.0227   -4.6359   -8.9696 C   0  0  0  0  0  0  0  0  0  0  0  0
   -7.7831   -3.6151   -8.7903 N   0  0  0  0  0  0  0  0  0  0  0  0
   -8.6715   -3.6345   -7.7631 C   0  0  0  0  0  0  0  0  0  0  0  0
   -9.5563   -2.7171   -7.4418 N   0  0  0  0  0  0  0  0  0  0  0  0
  -10.1827   -3.2472   -6.3642 C   0  0  0  0  0  0  0  0  0  0  0  0
   -9.7502   -4.4455   -5.9714 N   0  0  0  0  0  0  0  0  0  0  0  0
   -8.7653   -4.7054   -6.8682 N   0  0  0  0  0  0  0  0  0  0  0  0
  1  2  1  0
  2  3  2  0
  2  4  1  0
  4  5  1  0
  5  6  1  0
  6  7  2  0
  7  8  1  0
  8  9  2  0
  9 10  1  0
 10 11  2  0
 11 12  1  0
 12 13  2  0
 13 14  1  0
 14  6  1  0
 14 10  1  0
A    1
 N1 
A    2
 C1 
A    3
 O1 
A    4
 C2 
A    5
 S1 
A    6
 C3 
A    7
 C4 
A    8
 C5 
A    9
 N2 
A   10
 C6 
A   11
 N3 
A   12
 C7 
A   13
 N4 
A   14
 N5 
M  END
>  <ref_pdb>  (84) 
X0147_0A

>  <ref_mols>  (84) 
x0147_0A

>  <original SMILES>  (84) 
NC(=O)CSc1ccnc2ncnn12

>  <∆∆G>  (84) 
-3.322811

>  <comRMSD>  (84) 
0.873356

$$$$
