ver_1.2
     RDKit          3D

 14 15  0  0  0  0  0  0  0  0999 V2000
   -2.8476    1.8396    0.0579 C   0  0  0  0  0  0  0  0  0  0  0  0
   -2.1572    0.5470   -0.0326 N   0  0  0  0  0  0  0  0  0  0  0  0
   -2.6941   -0.6769   -0.1635 C   0  0  0  0  0  0  0  0  0  0  0  0
   -1.7108   -1.5987   -0.2093 N   0  0  0  0  0  0  0  0  0  0  0  0
   -0.5139   -0.9862   -0.1086 C   0  0  0  0  0  0  0  0  0  0  0  0
   -0.8230    0.3653    0.0017 C   0  0  0  0  0  0  0  0  0  0  0  0
    0.2161    1.2619    0.1221 C   0  0  0  0  0  0  0  0  0  0  0  0
   -0.0175    2.4821    0.2234 O   0  0  0  0  0  0  0  0  0  0  0  0
    1.4617    0.7685    0.1249 N   0  0  0  0  0  0  0  0  0  0  0  0
    1.7462   -0.5413    0.0175 C   0  0  0  0  0  0  0  0  0  0  0  0
    2.9460   -0.9162    0.0292 O   0  0  0  0  0  0  0  0  0  0  0  0
    0.7536   -1.4334   -0.1008 N   0  0  0  0  0  0  0  0  0  0  0  0
    1.0892   -2.8337   -0.2144 C   0  0  0  0  0  0  0  0  0  0  0  0
    2.5512    1.7221    0.2524 C   0  0  0  0  0  0  0  0  0  0  0  0
  1  2  1  0
  2  3  1  0
  3  4  2  0
  4  5  1  0
  5  6  2  0
  6  7  1  0
  7  8  2  0
  7  9  1  0
  9 10  1  0
 10 11  2  0
 10 12  1  0
 12 13  1  0
  9 14  1  0
  6  2  1  0
 12  5  1  0
M  END
>  <ref_url>  (1) 
https://github.com/matteoferla/Fragment-hit-follow-up-chemistry

>  <submitter_name>  (1) 
Matteo Ferla

>  <submitter_email>  (1) 
matteo.ferla@stats.ox.ac.uk

>  <submitter_institution>  (1) 
Nowehere

>  <generation_date>  (1) 
2023-09-05

>  <method>  (1) 
Fragmenstein-Tris

>  <index>  (1) 
index

>  <∆∆G>  (1) 
∆∆G

>  <comRMSD>  (1) 
comRMSD

>  <N_constrained_atoms>  (1) 
N_constrained_atoms

>  <N_unconstrained_atoms>  (1) 
N_unconstrained_atoms

>  <LE>  (1) 
LE

>  <percent_hybrid>  (1) 
percent_hybrid

>  <max_hit_Tanimoto>  (1) 
max_hit_Tanimoto

>  <largest_ring>  (1) 
largest_ring

>  <N_interactions_kept>  (1) 
N_interactions_kept

>  <N_interactions_lost>  (1) 
N_interactions_lost

>  <interaction_uniqueness_metric>  (1) 
interaction_uniqueness_metric

>  <N_HA>  (1) 
N_HA

>  <N_rotatable_bonds>  (1) 
N_rotatable_bonds

>  <N_interactions>  (1) 
N_interactions

>  <N_PAINS>  (1) 
N_PAINS

>  <UFF_Gibbs>  (1) 
UFF_Gibbs

>  <strain_per_HA>  (1) 
strain_per_HA

>  <ad_hoc_penalty>  (1) 
ad_hoc_penalty

>  <cluster>  (1) 
cluster

>  <ranked>  (1) 
ranked

>  <merger_rank>  (1) 
merger_rank

>  <hydroph_interaction:LEU:127>  (1) 
hydroph_interaction:LEU:127

>  <hbond:GLY:128>  (1) 
hbond:GLY:128

>  <hydroph_interaction:ALA:144>  (1) 
hydroph_interaction:ALA:144

>  <hbond:GLY:164>  (1) 
hbond:GLY:164

>  <hbond:HIS:40>  (1) 
hbond:HIS:40

>  <pistack:HIS:40>  (1) 
pistack:HIS:40

>  <hydroph_interaction:LEU:125>  (1) 
hydroph_interaction:LEU:125

>  <hydroph_interaction:PHE:170>  (1) 
hydroph_interaction:PHE:170

>  <hydroph_interaction:HIS:40>  (1) 
hydroph_interaction:HIS:40

>  <pication:HIS:40>  (1) 
pication:HIS:40

>  <hbond:THR:142>  (1) 
hbond:THR:142

>  <hbond:HIS:161>  (1) 
hbond:HIS:161

>  <hbond:GLY:166>  (1) 
hbond:GLY:166

>  <hbond:VAL:162>  (1) 
hbond:VAL:162

>  <hydroph_interaction:ASN:165>  (1) 
hydroph_interaction:ASN:165

>  <hbond:ASN:126>  (1) 
hbond:ASN:126

>  <hbond:ARG:143>  (1) 
hbond:ARG:143

>  <hbond:GLU:71>  (1) 
hbond:GLU:71

>  <saltbridge:HIS:161>  (1) 
saltbridge:HIS:161

>  <hbond:ALA:144>  (1) 
hbond:ALA:144

>  <hbond:GLY:145>  (1) 
hbond:GLY:145

>  <hbond:GLN:146>  (1) 
hbond:GLN:146

>  <hbond:CYS:147>  (1) 
hbond:CYS:147

>  <halogenbond:ASN:126>  (1) 
halogenbond:ASN:126

>  <saltbridge:HIS:40>  (1) 
saltbridge:HIS:40

>  <hbond:LEU:127>  (1) 
hbond:LEU:127

>  <hbond:THR:130>  (1) 
hbond:THR:130

>  <hydroph_interaction:GLU:71>  (1) 
hydroph_interaction:GLU:71

>  <hydroph_interaction:THR:130>  (1) 
hydroph_interaction:THR:130

>  <saltbridge:ARG:143>  (1) 
saltbridge:ARG:143

>  <saltbridge:GLU:71>  (1) 
saltbridge:GLU:71

>  <hbond:GLY:129>  (1) 
hbond:GLY:129

>  <halogenbond:CYS:147>  (1) 
halogenbond:CYS:147

>  <hydroph_interaction:THR:39>  (1) 
hydroph_interaction:THR:39

>  <hbond:ASN:69>  (1) 
hbond:ASN:69

>  <hydroph_interaction:THR:132>  (1) 
hydroph_interaction:THR:132

>  <hbond:TYR:122>  (1) 
hbond:TYR:122

>  <hydroph_interaction:PHE:109>  (1) 
hydroph_interaction:PHE:109

>  <hydroph_interaction:PHE:140>  (1) 
hydroph_interaction:PHE:140

>  <hbond:PRO:141>  (1) 
hbond:PRO:141

$$$$
Z814868448-x1071-0AS5
     RDKit          3D

 30 30  0  0  0  0  0  0  0  0999 V2000
   -4.8170   -8.4960   -1.1220 C   0  0  0  0  0  0  0  0  0  0  0  0
   -5.6560   -7.2350   -1.1040 C   0  0  0  0  0  0  0  0  0  0  0  0
   -5.3810   -6.0970   -2.0210 C   0  0  0  0  0  0  0  0  0  0  0  0
   -6.4470   -5.1660   -1.5980 C   0  0  0  0  0  0  0  0  0  0  0  0
   -6.6170   -3.9250   -2.1670 C   0  0  0  0  0  0  0  0  0  0  0  0
   -6.3310   -3.7020   -3.5590 O   0  0  0  0  0  0  0  0  0  0  0  0
   -7.0730   -2.9100   -1.3300 N   0  0  0  0  0  0  0  0  0  0  0  0
   -7.1120   -1.6230   -1.9680 C   0  0  0  0  0  0  0  0  0  0  0  0
   -6.7740   -0.3510   -1.1950 C   0  0  0  0  0  0  0  0  0  0  0  0
   -6.5510   -0.3110    0.3030 C   0  0  0  0  0  0  0  0  0  0  0  0
   -5.5160    0.2350   -1.8460 C   0  0  0  0  0  0  0  0  0  0  0  0
   -7.9360    0.6190   -1.4400 C   0  0  0  0  0  0  0  0  0  0  0  0
   -7.1760   -5.7380   -0.6160 N   0  0  0  0  0  0  0  0  0  0  0  0
   -6.6240   -7.0110   -0.3620 O   0  0  0  0  0  0  0  0  0  0  0  0
   -5.2190   -9.2680   -0.4600 H   0  0  0  0  0  0  0  0  0  0  0  0
   -3.7830   -8.2860   -0.8200 H   0  0  0  0  0  0  0  0  0  0  0  0
   -4.7850   -8.9130   -2.1340 H   0  0  0  0  0  0  0  0  0  0  0  0
   -4.5540   -6.1490   -2.7390 H   0  0  0  0  0  0  0  0  0  0  0  0
   -7.8470   -3.1460   -0.7280 H   0  0  0  0  0  0  0  0  0  0  0  0
   -8.1030   -1.5370   -2.4310 H   0  0  0  0  0  0  0  0  0  0  0  0
   -6.3810   -1.6990   -2.7770 H   0  0  0  0  0  0  0  0  0  0  0  0
   -7.1400   -1.0630    0.8400 H   0  0  0  0  0  0  0  0  0  0  0  0
   -6.8470    0.6610    0.7180 H   0  0  0  0  0  0  0  0  0  0  0  0
   -5.5030   -0.4430    0.5200 H   0  0  0  0  0  0  0  0  0  0  0  0
   -5.3270   -0.2130   -2.8260 H   0  0  0  0  0  0  0  0  0  0  0  0
   -4.6370    0.0550   -1.2230 H   0  0  0  0  0  0  0  0  0  0  0  0
   -5.6100    1.3060   -1.9880 H   0  0  0  0  0  0  0  0  0  0  0  0
   -7.5680    1.6200   -1.6920 H   0  0  0  0  0  0  0  0  0  0  0  0
   -8.5720    0.2820   -2.2720 H   0  0  0  0  0  0  0  0  0  0  0  0
   -8.5720    0.7120   -0.5530 H   0  0  0  0  0  0  0  0  0  0  0  0
  1  2  1  0
  2  3  2  0
  3  4  1  0
  4  5  1  0
  5  6  2  0
  5  7  1  0
  7  8  1  0
  8  9  1  0
  9 10  1  0
  9 11  1  0
  9 12  1  0
  4 13  2  0
 13 14  1  0
 14  2  1  0
  1 15  1  0
  1 16  1  0
  1 17  1  0
  3 18  1  0
  7 19  1  0
  8 20  1  0
  8 21  1  0
 10 22  1  0
 10 23  1  0
 10 24  1  0
 11 25  1  0
 11 26  1  0
 11 27  1  0
 12 28  1  0
 12 29  1  0
 12 30  1  0
A    1
 C1 
A    2
 C2 
A    3
 C3 
A    4
 C4 
A    5
 C5 
A    6
 O1 
A    7
 N1 
A    8
 C6 
A    9
 C7 
A   10
 C8 
A   11
 C9 
A   12
 C10
A   13
 N2 
A   14
 O2 
A   15
 H1 
A   16
 H2 
A   17
 H3 
A   18
 H4 
A   19
 H5 
A   20
 H6 
A   21
 H7 
A   22
 H8 
A   23
 H9 
A   24
 H10
A   25
 H11
A   26
 H12
A   27
 H13
A   28
 H14
A   29
 H15
A   30
 H16
M  END
>  <ref_pdb>  (1) 
x0147_0A

>  <ref_mols>  (1) 
x1071_0AS5,x1052_1AS2

>  <original SMILES>  (1) 
[H]c1c(C(=O)N([H])C([H])([H])C(C([H])([H])[H])(C([H])([H])[H])C([H])([H])[H])noc1C([H])([H])[H]

>  <index>  (1) 
17550

>  <∆∆G>  (1) 
-7.207084

>  <comRMSD>  (1) 
0.527759

>  <N_constrained_atoms>  (1) 
12.0

>  <N_unconstrained_atoms>  (1) 
2.0

>  <LE>  (1) 
0.514792

>  <percent_hybrid>  (1) 
34.0

>  <max_hit_Tanimoto>  (1) 
0.425532

>  <largest_ring>  (1) 
5

>  <N_interactions_kept>  (1) 
1.0

>  <N_interactions_lost>  (1) 
1.5

>  <interaction_uniqueness_metric>  (1) 
0.153608

>  <N_HA>  (1) 
14

>  <N_rotatable_bonds>  (1) 
3

>  <N_interactions>  (1) 
8

>  <N_PAINS>  (1) 
0

>  <UFF_Gibbs>  (1) 
133.266841

>  <strain_per_HA>  (1) 
9.518992

>  <ad_hoc_penalty>  (1) 
-51.51412

>  <cluster>  (1) 
319

>  <ranked>  (1) 
1.0

>  <merger_rank>  (1) 
1

>  <hydroph_interaction:LEU:127>  (1) 
2

>  <hbond:GLY:128>  (1) 
1

>  <hydroph_interaction:ALA:144>  (1) 
0

>  <hbond:GLY:164>  (1) 
1

>  <hbond:HIS:40>  (1) 
0

>  <pistack:HIS:40>  (1) 
0

>  <hydroph_interaction:LEU:125>  (1) 
1

>  <hydroph_interaction:PHE:170>  (1) 
1

>  <hydroph_interaction:HIS:40>  (1) 
1

>  <pication:HIS:40>  (1) 
0

>  <hbond:THR:142>  (1) 
0

>  <hbond:HIS:161>  (1) 
0

>  <hbond:GLY:166>  (1) 
0

>  <hbond:VAL:162>  (1) 
0

>  <hydroph_interaction:ASN:165>  (1) 
1

>  <hbond:ASN:126>  (1) 
0

>  <hbond:ARG:143>  (1) 
0

>  <hbond:GLU:71>  (1) 
0

>  <saltbridge:HIS:161>  (1) 
0

>  <hbond:ALA:144>  (1) 
0

>  <hbond:GLY:145>  (1) 
0

>  <hbond:GLN:146>  (1) 
0

>  <hbond:CYS:147>  (1) 
0

>  <halogenbond:ASN:126>  (1) 
0

>  <saltbridge:HIS:40>  (1) 
0

>  <hbond:LEU:127>  (1) 
0

>  <hbond:THR:130>  (1) 
0

>  <hydroph_interaction:GLU:71>  (1) 
0

>  <hydroph_interaction:THR:130>  (1) 
0

>  <saltbridge:ARG:143>  (1) 
0

>  <saltbridge:GLU:71>  (1) 
0

>  <hbond:GLY:129>  (1) 
0

>  <halogenbond:CYS:147>  (1) 
0

>  <hydroph_interaction:THR:39>  (1) 
0

>  <hbond:ASN:69>  (1) 
0

>  <hydroph_interaction:THR:132>  (1) 
0

>  <hbond:TYR:122>  (1) 
0

>  <hydroph_interaction:PHE:109>  (1) 
0

>  <hydroph_interaction:PHE:140>  (1) 
0

>  <hbond:PRO:141>  (1) 
0

$$$$
PV-004271221850-x1071-0A
     RDKit          3D

 59 60  0  0  0  0  0  0  0  0999 V2000
   -8.3480  -12.2130    3.6350 C   0  0  0  0  0  0  0  0  0  0  0  0
   -7.1060  -12.7720    4.0500 O   0  0  0  0  0  0  0  0  0  0  0  0
   -6.0730  -11.7880    4.2150 C   0  0  0  0  0  0  0  0  0  0  0  0
   -5.3530  -11.6760    5.1930 O   0  0  0  0  0  0  0  0  0  0  0  0
   -6.0620  -11.0390    3.0860 N   0  0  0  0  0  0  0  0  0  0  0  0
   -5.3500   -9.8710    2.7970 C   0  0  0  0  0  0  0  0  0  0  0  0
   -5.3590   -8.7650    3.8380 C   0  0  0  0  0  0  0  0  0  0  0  0
   -4.5840   -7.4890    3.4880 C   0  0  0  0  0  0  0  0  0  0  0  0
   -3.9020   -7.4830    2.1440 C   0  0  0  0  0  0  0  0  0  0  0  0
   -3.9850   -8.5540    1.2930 C   0  0  0  0  0  0  0  0  0  0  0  0
   -3.3810   -8.4250    0.0870 C   0  0  0  0  0  0  0  0  0  0  0  0
   -2.1820   -8.3070   -0.0220 O   0  0  0  0  0  0  0  0  0  0  0  0
   -4.2910   -8.4260   -0.9380 N   0  0  0  0  0  0  0  0  0  0  0  0
   -4.9660   -7.1820   -1.2250 C   0  0  0  0  0  0  0  0  0  0  0  0
   -6.2150   -7.0020   -0.6190 C   0  0  0  0  0  0  0  0  0  0  0  0
   -6.9670   -5.7210   -0.9510 C   0  0  0  0  0  0  0  0  0  0  0  0
   -6.8350   -5.4560   -2.3800 N   0  0  0  0  0  0  0  0  0  0  0  0
   -6.6950   -4.1480   -2.8840 C   0  0  0  0  0  0  0  0  0  0  0  0
   -6.9920   -3.9270   -4.0540 O   0  0  0  0  0  0  0  0  0  0  0  0
   -6.1640   -3.1010   -2.0490 C   0  0  0  0  0  0  0  0  0  0  0  0
   -7.3100   -2.1660   -1.5970 C   0  0  0  0  0  0  0  0  0  0  0  0
   -6.9020   -0.6980   -1.3550 C   0  0  0  0  0  0  0  0  0  0  0  0
   -7.8640    0.2690   -1.6450 C   0  0  0  0  0  0  0  0  0  0  0  0
   -6.6040   -0.3980    0.1230 C   0  0  0  0  0  0  0  0  0  0  0  0
   -5.6320   -0.2860   -2.1220 C   0  0  0  0  0  0  0  0  0  0  0  0
   -6.3910   -6.6040   -3.1620 C   0  0  0  0  0  0  0  0  0  0  0  0
   -5.0080   -7.0250   -2.7330 C   0  0  0  0  0  0  0  0  0  0  0  0
   -4.6780   -9.7200    1.6040 C   0  0  0  0  0  0  0  0  0  0  0  0
   -9.1740  -12.6120    4.2290 H   0  0  0  0  0  0  0  0  0  0  0  0
   -8.3230  -11.1220    3.7060 H   0  0  0  0  0  0  0  0  0  0  0  0
   -8.5130  -12.4890    2.5890 H   0  0  0  0  0  0  0  0  0  0  0  0
   -6.7800  -11.3160    2.4320 H   0  0  0  0  0  0  0  0  0  0  0  0
   -5.8940   -8.8830    4.7780 H   0  0  0  0  0  0  0  0  0  0  0  0
   -4.5370   -6.6440    4.1630 H   0  0  0  0  0  0  0  0  0  0  0  0
   -3.3370   -6.5940    1.8390 H   0  0  0  0  0  0  0  0  0  0  0  0
   -4.1140   -9.0420   -1.7220 H   0  0  0  0  0  0  0  0  0  0  0  0
   -4.3200   -6.4040   -0.8260 H   0  0  0  0  0  0  0  0  0  0  0  0
   -6.1300   -7.0810    0.4700 H   0  0  0  0  0  0  0  0  0  0  0  0
   -6.8510   -7.8440   -0.9270 H   0  0  0  0  0  0  0  0  0  0  0  0
   -6.7160   -4.8140   -0.4230 H   0  0  0  0  0  0  0  0  0  0  0  0
   -8.0370   -5.8770   -0.7680 H   0  0  0  0  0  0  0  0  0  0  0  0
   -5.4860   -2.4410   -2.5610 H   0  0  0  0  0  0  0  0  0  0  0  0
   -5.5760   -3.4790   -1.2410 H   0  0  0  0  0  0  0  0  0  0  0  0
   -8.0790   -2.1740   -2.3820 H   0  0  0  0  0  0  0  0  0  0  0  0
   -7.7950   -2.5690   -0.7030 H   0  0  0  0  0  0  0  0  0  0  0  0
   -8.4650    0.5120   -0.7620 H   0  0  0  0  0  0  0  0  0  0  0  0
   -8.5500   -0.0800   -2.4270 H   0  0  0  0  0  0  0  0  0  0  0  0
   -7.4070    1.1920   -1.9950 H   0  0  0  0  0  0  0  0  0  0  0  0
   -5.5480   -0.4730    0.3260 H   0  0  0  0  0  0  0  0  0  0  0  0
   -7.1480   -1.0700    0.7920 H   0  0  0  0  0  0  0  0  0  0  0  0
   -6.8930    0.6230    0.3880 H   0  0  0  0  0  0  0  0  0  0  0  0
   -5.4670   -0.9140   -3.0020 H   0  0  0  0  0  0  0  0  0  0  0  0
   -5.6840    0.7460   -2.4520 H   0  0  0  0  0  0  0  0  0  0  0  0
   -4.7450   -0.3700   -1.4880 H   0  0  0  0  0  0  0  0  0  0  0  0
   -6.3930   -6.3140   -4.2190 H   0  0  0  0  0  0  0  0  0  0  0  0
   -7.0910   -7.4320   -3.0310 H   0  0  0  0  0  0  0  0  0  0  0  0
   -4.7080   -7.9550   -3.2340 H   0  0  0  0  0  0  0  0  0  0  0  0
   -4.2940   -6.2560   -3.0460 H   0  0  0  0  0  0  0  0  0  0  0  0
   -4.6970  -10.5220    0.8780 H   0  0  0  0  0  0  0  0  0  0  0  0
  1  2  1  0
  2  3  1  0
  3  4  2  0
  3  5  1  0
  5  6  1  0
  6  7  2  0
  7  8  1  0
  8  9  2  0
  9 10  1  0
 10 11  1  0
 11 12  2  0
 11 13  1  0
 13 14  1  0
 14 15  1  0
 15 16  1  0
 16 17  1  0
 17 18  1  0
 18 19  2  0
 18 20  1  0
 20 21  1  0
 21 22  1  0
 22 23  1  0
 22 24  1  0
 22 25  1  0
 17 26  1  0
 26 27  1  0
 10 28  2  0
 28  6  1  0
 27 14  1  0
  1 29  1  0
  1 30  1  0
  1 31  1  0
  5 32  1  0
  7 33  1  0
  8 34  1  0
  9 35  1  0
 13 36  1  0
 14 37  1  0
 15 38  1  0
 15 39  1  0
 16 40  1  0
 16 41  1  0
 20 42  1  0
 20 43  1  0
 21 44  1  0
 21 45  1  0
 23 46  1  0
 23 47  1  0
 23 48  1  0
 24 49  1  0
 24 50  1  0
 24 51  1  0
 25 52  1  0
 25 53  1  0
 25 54  1  0
 26 55  1  0
 26 56  1  0
 27 57  1  0
 27 58  1  0
 28 59  1  0
A    1
 C1 
A    2
 O1 
A    3
 C2 
A    4
 O2 
A    5
 N1 
A    6
 C3 
A    7
 C4 
A    8
 C5 
A    9
 C6 
A   10
 C7 
A   11
 C8 
A   12
 O3 
A   13
 N2 
A   14
 C9 
A   15
 C10
A   16
 C11
A   17
 N3 
A   18
 C12
A   19
 O4 
A   20
 C13
A   21
 C14
A   22
 C15
A   23
 C16
A   24
 C17
A   25
 C18
A   26
 C19
A   27
 C20
A   28
 C21
A   29
 H1 
A   30
 H2 
A   31
 H3 
A   32
 H4 
A   33
 H5 
A   34
 H6 
A   35
 H7 
A   36
 H8 
A   37
 H9 
A   38
 H10
A   39
 H11
A   40
 H12
A   41
 H13
A   42
 H14
A   43
 H15
A   44
 H16
A   45
 H17
A   46
 H18
A   47
 H19
A   48
 H20
A   49
 H21
A   50
 H22
A   51
 H23
A   52
 H24
A   53
 H25
A   54
 H26
A   55
 H27
A   56
 H28
A   57
 H29
A   58
 H30
A   59
 H31
M  END
>  <ref_pdb>  (2) 
x0147_0A

>  <ref_mols>  (2) 
x1071_0A,x1020_0A

>  <original SMILES>  (2) 
[H]c1c([H])c(C(=O)N([H])C2([H])C([H])([H])C([H])([H])N(C(=O)C([H])([H])C([H])([H])C(C([H])([H])[H])(C([H])([H])[H])C([H])([H])[H])C([H])([H])C2([H])[H])c([H])c(N([H])C(=O)OC([H])([H])[H])c1[H]

>  <index>  (2) 
2229

>  <∆∆G>  (2) 
-7.239933

>  <comRMSD>  (2) 
0.928876

>  <N_constrained_atoms>  (2) 
27.0

>  <N_unconstrained_atoms>  (2) 
3.0

>  <LE>  (2) 
0.241331

>  <percent_hybrid>  (2) 
49.0

>  <max_hit_Tanimoto>  (2) 
0.251768

>  <largest_ring>  (2) 
6

>  <N_interactions_kept>  (2) 
1.0

>  <N_interactions_lost>  (2) 
1.5

>  <interaction_uniqueness_metric>  (2) 
0.135193

>  <N_HA>  (2) 
28

>  <N_rotatable_bonds>  (2) 
6

>  <N_interactions>  (2) 
7

>  <N_PAINS>  (2) 
0

>  <UFF_Gibbs>  (2) 
269.046612

>  <strain_per_HA>  (2) 
9.608773

>  <ad_hoc_penalty>  (2) 
-44.296524

>  <cluster>  (2) 
437

>  <ranked>  (2) 
2.0

>  <merger_rank>  (2) 
1

>  <hydroph_interaction:LEU:127>  (2) 
2

>  <hbond:GLY:128>  (2) 
0

>  <hydroph_interaction:ALA:144>  (2) 
0

>  <hbond:GLY:164>  (2) 
1

>  <hbond:HIS:40>  (2) 
1

>  <pistack:HIS:40>  (2) 
0

>  <hydroph_interaction:LEU:125>  (2) 
0

>  <hydroph_interaction:PHE:170>  (2) 
1

>  <hydroph_interaction:HIS:40>  (2) 
1

>  <pication:HIS:40>  (2) 
0

>  <hbond:THR:142>  (2) 
0

>  <hbond:HIS:161>  (2) 
0

>  <hbond:GLY:166>  (2) 
0

>  <hbond:VAL:162>  (2) 
0

>  <hydroph_interaction:ASN:165>  (2) 
1

>  <hbond:ASN:126>  (2) 
0

>  <hbond:ARG:143>  (2) 
0

>  <hbond:GLU:71>  (2) 
0

>  <saltbridge:HIS:161>  (2) 
0

>  <hbond:ALA:144>  (2) 
0

>  <hbond:GLY:145>  (2) 
0

>  <hbond:GLN:146>  (2) 
0

>  <hbond:CYS:147>  (2) 
0

>  <halogenbond:ASN:126>  (2) 
0

>  <saltbridge:HIS:40>  (2) 
0

>  <hbond:LEU:127>  (2) 
0

>  <hbond:THR:130>  (2) 
0

>  <hydroph_interaction:GLU:71>  (2) 
0

>  <hydroph_interaction:THR:130>  (2) 
0

>  <saltbridge:ARG:143>  (2) 
0

>  <saltbridge:GLU:71>  (2) 
0

>  <hbond:GLY:129>  (2) 
0

>  <halogenbond:CYS:147>  (2) 
0

>  <hydroph_interaction:THR:39>  (2) 
0

>  <hbond:ASN:69>  (2) 
0

>  <hydroph_interaction:THR:132>  (2) 
0

>  <hbond:TYR:122>  (2) 
0

>  <hydroph_interaction:PHE:109>  (2) 
0

>  <hydroph_interaction:PHE:140>  (2) 
0

>  <hbond:PRO:141>  (2) 
0

$$$$
PV-005890491569-x1071-0A
     RDKit          3D

 55 56  0  0  0  0  0  0  0  0999 V2000
   -7.5350  -12.9110    4.1040 C   0  0  0  0  0  0  0  0  0  0  0  0
   -6.2570  -12.1070    4.1560 C   0  0  0  0  0  0  0  0  0  0  0  0
   -5.7320  -11.8640    5.4550 O   0  0  0  0  0  0  0  0  0  0  0  0
   -5.7480  -11.7000    2.8790 N   0  0  0  0  0  0  0  0  0  0  0  0
   -4.8290  -10.6670    2.6460 C   0  0  0  0  0  0  0  0  0  0  0  0
   -5.3700   -9.3060    2.4220 C   0  0  0  0  0  0  0  0  0  0  0  0
   -4.3190   -8.2780    2.1840 C   0  0  0  0  0  0  0  0  0  0  0  0
   -4.8130   -7.0740    1.9820 C   0  0  0  0  0  0  0  0  0  0  0  0
   -4.8240   -6.3670    3.1340 O   0  0  0  0  0  0  0  0  0  0  0  0
   -5.2520   -6.7480    0.7090 N   0  0  0  0  0  0  0  0  0  0  0  0
   -5.9800   -7.6060   -0.2280 C   0  0  0  0  0  0  0  0  0  0  0  0
   -7.4040   -7.0350   -0.3350 C   0  0  0  0  0  0  0  0  0  0  0  0
   -7.5420   -5.6850   -1.0770 C   0  0  0  0  0  0  0  0  0  0  0  0
   -6.4660   -5.5050   -2.0540 N   0  0  0  0  0  0  0  0  0  0  0  0
   -6.4410   -4.2730   -2.7830 C   0  0  0  0  0  0  0  0  0  0  0  0
   -6.7380   -4.2270   -3.9830 O   0  0  0  0  0  0  0  0  0  0  0  0
   -6.0500   -3.0820   -2.1310 C   0  0  0  0  0  0  0  0  0  0  0  0
   -7.1690   -2.2800   -1.7220 C   0  0  0  0  0  0  0  0  0  0  0  0
   -6.7560   -0.9250   -1.4310 C   0  0  0  0  0  0  0  0  0  0  0  0
   -7.6730    0.1070   -1.6370 C   0  0  0  0  0  0  0  0  0  0  0  0
   -5.4440   -0.5280   -2.1230 C   0  0  0  0  0  0  0  0  0  0  0  0
   -6.5060   -0.8090   -0.1050 F   0  0  0  0  0  0  0  0  0  0  0  0
   -5.9180   -6.7790   -2.6000 C   0  0  0  0  0  0  0  0  0  0  0  0
   -5.3560   -7.6920   -1.6430 C   0  0  0  0  0  0  0  0  0  0  0  0
   -2.9520   -8.5250    2.1710 C   0  0  0  0  0  0  0  0  0  0  0  0
   -2.4940   -9.9520    2.4150 C   0  0  0  0  0  0  0  0  0  0  0  0
   -3.4610  -10.9340    2.6340 C   0  0  0  0  0  0  0  0  0  0  0  0
   -3.0660  -12.1920    2.8420 F   0  0  0  0  0  0  0  0  0  0  0  0
   -8.2640  -12.4550    3.4260 H   0  0  0  0  0  0  0  0  0  0  0  0
   -7.3460  -13.9310    3.7520 H   0  0  0  0  0  0  0  0  0  0  0  0
   -7.9870  -12.9710    5.0980 H   0  0  0  0  0  0  0  0  0  0  0  0
   -6.3050  -11.9410    2.0650 H   0  0  0  0  0  0  0  0  0  0  0  0
   -6.4280   -9.0740    2.4270 H   0  0  0  0  0  0  0  0  0  0  0  0
   -5.3300   -5.7630    0.5050 H   0  0  0  0  0  0  0  0  0  0  0  0
   -6.0380   -8.6110    0.2120 H   0  0  0  0  0  0  0  0  0  0  0  0
   -7.8630   -6.9490    0.6580 H   0  0  0  0  0  0  0  0  0  0  0  0
   -8.0130   -7.7680   -0.8820 H   0  0  0  0  0  0  0  0  0  0  0  0
   -8.5170   -5.6420   -1.5730 H   0  0  0  0  0  0  0  0  0  0  0  0
   -7.4970   -4.8470   -0.3790 H   0  0  0  0  0  0  0  0  0  0  0  0
   -5.5470   -3.3510   -1.2140 H   0  0  0  0  0  0  0  0  0  0  0  0
   -5.3690   -2.4260   -2.6660 H   0  0  0  0  0  0  0  0  0  0  0  0
   -7.6920   -2.8470   -0.9600 H   0  0  0  0  0  0  0  0  0  0  0  0
   -7.8720   -2.2430   -2.5580 H   0  0  0  0  0  0  0  0  0  0  0  0
   -8.2400    0.3210   -0.7350 H   0  0  0  0  0  0  0  0  0  0  0  0
   -8.4090   -0.1840   -2.3960 H   0  0  0  0  0  0  0  0  0  0  0  0
   -7.1800    1.0270   -1.9720 H   0  0  0  0  0  0  0  0  0  0  0  0
   -5.2280    0.5260   -1.9920 H   0  0  0  0  0  0  0  0  0  0  0  0
   -4.6050   -1.1010   -1.7290 H   0  0  0  0  0  0  0  0  0  0  0  0
   -5.4820   -0.7400   -3.1940 H   0  0  0  0  0  0  0  0  0  0  0  0
   -5.2260   -6.4850   -3.3910 H   0  0  0  0  0  0  0  0  0  0  0  0
   -6.7380   -7.3020   -3.1020 H   0  0  0  0  0  0  0  0  0  0  0  0
   -4.2700   -7.5950   -1.5890 H   0  0  0  0  0  0  0  0  0  0  0  0
   -5.5150   -8.7100   -2.0290 H   0  0  0  0  0  0  0  0  0  0  0  0
   -2.2280   -7.7270    1.9930 H   0  0  0  0  0  0  0  0  0  0  0  0
   -1.4390  -10.2080    2.4170 H   0  0  0  0  0  0  0  0  0  0  0  0
  1  2  1  0
  2  3  2  0
  2  4  1  0
  4  5  1  0
  5  6  2  0
  6  7  1  0
  7  8  1  0
  8  9  2  0
  8 10  1  0
 10 11  1  0
 11 12  1  0
 12 13  1  0
 13 14  1  0
 14 15  1  0
 15 16  2  0
 15 17  1  0
 17 18  1  0
 18 19  1  0
 19 20  1  0
 19 21  1  0
 19 22  1  0
 14 23  1  0
 23 24  1  0
  7 25  2  0
 25 26  1  0
 26 27  2  0
 27 28  1  0
 27  5  1  0
 24 11  1  0
  1 29  1  0
  1 30  1  0
  1 31  1  0
  4 32  1  0
  6 33  1  0
 10 34  1  0
 11 35  1  0
 12 36  1  0
 12 37  1  0
 13 38  1  0
 13 39  1  0
 17 40  1  0
 17 41  1  0
 18 42  1  0
 18 43  1  0
 20 44  1  0
 20 45  1  0
 20 46  1  0
 21 47  1  0
 21 48  1  0
 21 49  1  0
 23 50  1  0
 23 51  1  0
 24 52  1  0
 24 53  1  0
 25 54  1  0
 26 55  1  0
A    1
 C1 
A    2
 C2 
A    3
 O1 
A    4
 N1 
A    5
 C3 
A    6
 C4 
A    7
 C5 
A    8
 C6 
A    9
 O2 
A   10
 N2 
A   11
 C7 
A   12
 C8 
A   13
 C9 
A   14
 N3 
A   15
 C10
A   16
 O3 
A   17
 C11
A   18
 C12
A   19
 C13
A   20
 C14
A   21
 C15
A   22
 F1 
A   23
 C16
A   24
 C17
A   25
 C18
A   26
 C19
A   27
 C20
A   28
 F2 
A   29
 H1 
A   30
 H2 
A   31
 H3 
A   32
 H4 
A   33
 H5 
A   34
 H6 
A   35
 H7 
A   36
 H8 
A   37
 H9 
A   38
 H10
A   39
 H11
A   40
 H12
A   41
 H13
A   42
 H14
A   43
 H15
A   44
 H16
A   45
 H17
A   46
 H18
A   47
 H19
A   48
 H20
A   49
 H21
A   50
 H22
A   51
 H23
A   52
 H24
A   53
 H25
A   54
 H26
A   55
 H27
M  END
>  <ref_pdb>  (3) 
x0147_0A

>  <ref_mols>  (3) 
x1071_0A,x1020_0A

>  <original SMILES>  (3) 
[H]c1c([H])c(C(=O)N([H])C2([H])C([H])([H])C([H])([H])N(C(=O)C([H])([H])C([H])([H])C(F)(C([H])([H])[H])C([H])([H])[H])C([H])([H])C2([H])[H])c([H])c(N([H])C(=O)C([H])([H])[H])c1F

>  <index>  (3) 
2216

>  <∆∆G>  (3) 
-5.333765

>  <comRMSD>  (3) 
0.685635

>  <N_constrained_atoms>  (3) 
27.0

>  <N_unconstrained_atoms>  (3) 
3.0

>  <LE>  (3) 
0.177792

>  <percent_hybrid>  (3) 
49.0

>  <max_hit_Tanimoto>  (3) 
0.250941

>  <largest_ring>  (3) 
6

>  <N_interactions_kept>  (3) 
1.0

>  <N_interactions_lost>  (3) 
1.5

>  <interaction_uniqueness_metric>  (3) 
0.438324

>  <N_HA>  (3) 
28

>  <N_rotatable_bonds>  (3) 
9

>  <N_interactions>  (3) 
9

>  <N_PAINS>  (3) 
0

>  <UFF_Gibbs>  (3) 
219.416722

>  <strain_per_HA>  (3) 
7.836284

>  <ad_hoc_penalty>  (3) 
-43.599966

>  <cluster>  (3) 
943

>  <ranked>  (3) 
3.0

>  <merger_rank>  (3) 
2

>  <hydroph_interaction:LEU:127>  (3) 
2

>  <hbond:GLY:128>  (3) 
0

>  <hydroph_interaction:ALA:144>  (3) 
0

>  <hbond:GLY:164>  (3) 
1

>  <hbond:HIS:40>  (3) 
0

>  <pistack:HIS:40>  (3) 
0

>  <hydroph_interaction:LEU:125>  (3) 
0

>  <hydroph_interaction:PHE:170>  (3) 
1

>  <hydroph_interaction:HIS:40>  (3) 
1

>  <pication:HIS:40>  (3) 
0

>  <hbond:THR:142>  (3) 
0

>  <hbond:HIS:161>  (3) 
0

>  <hbond:GLY:166>  (3) 
0

>  <hbond:VAL:162>  (3) 
0

>  <hydroph_interaction:ASN:165>  (3) 
1

>  <hbond:ASN:126>  (3) 
0

>  <hbond:ARG:143>  (3) 
0

>  <hbond:GLU:71>  (3) 
0

>  <saltbridge:HIS:161>  (3) 
0

>  <hbond:ALA:144>  (3) 
0

>  <hbond:GLY:145>  (3) 
0

>  <hbond:GLN:146>  (3) 
0

>  <hbond:CYS:147>  (3) 
0

>  <halogenbond:ASN:126>  (3) 
1

>  <saltbridge:HIS:40>  (3) 
0

>  <hbond:LEU:127>  (3) 
1

>  <hbond:THR:130>  (3) 
1

>  <hydroph_interaction:GLU:71>  (3) 
0

>  <hydroph_interaction:THR:130>  (3) 
0

>  <saltbridge:ARG:143>  (3) 
0

>  <saltbridge:GLU:71>  (3) 
0

>  <hbond:GLY:129>  (3) 
0

>  <halogenbond:CYS:147>  (3) 
0

>  <hydroph_interaction:THR:39>  (3) 
0

>  <hbond:ASN:69>  (3) 
0

>  <hydroph_interaction:THR:132>  (3) 
0

>  <hbond:TYR:122>  (3) 
0

>  <hydroph_interaction:PHE:109>  (3) 
0

>  <hydroph_interaction:PHE:140>  (3) 
0

>  <hbond:PRO:141>  (3) 
0

$$$$
Z1763400558-x1071-0AS2
     RDKit          3D

 23 23  0  0  0  0  0  0  0  0999 V2000
   -5.3790    0.5040   -1.1740 C   0  0  0  0  0  0  0  0  0  0  0  0
   -6.2890   -0.6280   -0.8130 C   0  0  0  0  0  0  0  0  0  0  0  0
   -6.7430   -0.8100    0.3000 O   0  0  0  0  0  0  0  0  0  0  0  0
   -6.5390   -1.4950   -1.9390 N   0  0  0  0  0  0  0  0  0  0  0  0
   -6.9930   -2.7840   -1.6470 N   0  0  0  0  0  0  0  0  0  0  0  0
   -6.5120   -3.8060   -2.4500 C   0  0  0  0  0  0  0  0  0  0  0  0
   -6.2560   -3.6580   -3.6460 O   0  0  0  0  0  0  0  0  0  0  0  0
   -6.3080   -5.1650   -1.7690 C   0  0  0  0  0  0  0  0  0  0  0  0
   -7.0450   -5.6520   -0.7110 C   0  0  0  0  0  0  0  0  0  0  0  0
   -6.5930   -6.8810   -0.3670 O   0  0  0  0  0  0  0  0  0  0  0  0
   -5.5060   -7.1450   -1.2900 C   0  0  0  0  0  0  0  0  0  0  0  0
   -4.8500   -8.3700   -1.1530 C   0  0  0  0  0  0  0  0  0  0  0  0
   -5.3390   -6.0720   -2.1590 C   0  0  0  0  0  0  0  0  0  0  0  0
   -5.9320    1.3680   -1.5550 H   0  0  0  0  0  0  0  0  0  0  0  0
   -4.6570    0.2000   -1.9390 H   0  0  0  0  0  0  0  0  0  0  0  0
   -4.8330    0.8130   -0.2780 H   0  0  0  0  0  0  0  0  0  0  0  0
   -6.8250   -1.1420   -2.8660 H   0  0  0  0  0  0  0  0  0  0  0  0
   -7.9560   -2.8150   -1.3110 H   0  0  0  0  0  0  0  0  0  0  0  0
   -7.8710   -5.1690   -0.1950 H   0  0  0  0  0  0  0  0  0  0  0  0
   -5.3230   -9.2150   -0.6720 H   0  0  0  0  0  0  0  0  0  0  0  0
   -3.8650   -8.3290   -0.7010 H   0  0  0  0  0  0  0  0  0  0  0  0
   -4.6770   -8.7010   -2.1860 H   0  0  0  0  0  0  0  0  0  0  0  0
   -4.5910   -6.0010   -2.9610 H   0  0  0  0  0  0  0  0  0  0  0  0
  1  2  1  0
  2  3  2  0
  2  4  1  0
  4  5  1  0
  5  6  1  0
  6  7  2  0
  6  8  1  0
  8  9  2  0
  9 10  1  0
 10 11  1  0
 11 12  1  0
 11 13  2  0
 13  8  1  0
  1 14  1  0
  1 15  1  0
  1 16  1  0
  4 17  1  0
  5 18  1  0
  9 19  1  0
 12 20  1  0
 12 21  1  0
 12 22  1  0
 13 23  1  0
A    1
 C1 
A    2
 C2 
A    3
 O1 
A    4
 N1 
A    5
 N2 
A    6
 C3 
A    7
 O2 
A    8
 C4 
A    9
 C5 
A   10
 O3 
A   11
 C6 
A   12
 C7 
A   13
 C8 
A   14
 H1 
A   15
 H2 
A   16
 H3 
A   17
 H4 
A   18
 H5 
A   19
 H6 
A   20
 H7 
A   21
 H8 
A   22
 H9 
A   23
 H10
M  END
>  <ref_pdb>  (4) 
x0147_0A

>  <ref_mols>  (4) 
x1071_0AS2,x1052_1AS3

>  <original SMILES>  (4) 
[H]c1oc(C([H])([H])[H])c([H])c1C(=O)N([H])N([H])C(=O)C([H])([H])[H]

>  <index>  (4) 
5381

>  <∆∆G>  (4) 
-7.82487

>  <comRMSD>  (4) 
0.880858

>  <N_constrained_atoms>  (4) 
11.0

>  <N_unconstrained_atoms>  (4) 
3.0

>  <LE>  (4) 
0.558919

>  <percent_hybrid>  (4) 
50.0

>  <max_hit_Tanimoto>  (4) 
0.081425

>  <largest_ring>  (4) 
5

>  <N_interactions_kept>  (4) 
0.5

>  <N_interactions_lost>  (4) 
2.5

>  <interaction_uniqueness_metric>  (4) 
0.095102

>  <N_HA>  (4) 
13

>  <N_rotatable_bonds>  (4) 
3

>  <N_interactions>  (4) 
7

>  <N_PAINS>  (4) 
0

>  <UFF_Gibbs>  (4) 
58.762771

>  <strain_per_HA>  (4) 
4.520178

>  <ad_hoc_penalty>  (4) 
-42.337634

>  <cluster>  (4) 
6111

>  <ranked>  (4) 
4.0

>  <merger_rank>  (4) 
1

>  <hydroph_interaction:LEU:127>  (4) 
2

>  <hbond:GLY:128>  (4) 
1

>  <hydroph_interaction:ALA:144>  (4) 
0

>  <hbond:GLY:164>  (4) 
2

>  <hbond:HIS:40>  (4) 
0

>  <pistack:HIS:40>  (4) 
0

>  <hydroph_interaction:LEU:125>  (4) 
1

>  <hydroph_interaction:PHE:170>  (4) 
1

>  <hydroph_interaction:HIS:40>  (4) 
0

>  <pication:HIS:40>  (4) 
0

>  <hbond:THR:142>  (4) 
0

>  <hbond:HIS:161>  (4) 
0

>  <hbond:GLY:166>  (4) 
0

>  <hbond:VAL:162>  (4) 
0

>  <hydroph_interaction:ASN:165>  (4) 
0

>  <hbond:ASN:126>  (4) 
0

>  <hbond:ARG:143>  (4) 
0

>  <hbond:GLU:71>  (4) 
0

>  <saltbridge:HIS:161>  (4) 
0

>  <hbond:ALA:144>  (4) 
0

>  <hbond:GLY:145>  (4) 
0

>  <hbond:GLN:146>  (4) 
0

>  <hbond:CYS:147>  (4) 
0

>  <halogenbond:ASN:126>  (4) 
0

>  <saltbridge:HIS:40>  (4) 
0

>  <hbond:LEU:127>  (4) 
0

>  <hbond:THR:130>  (4) 
0

>  <hydroph_interaction:GLU:71>  (4) 
0

>  <hydroph_interaction:THR:130>  (4) 
0

>  <saltbridge:ARG:143>  (4) 
0

>  <saltbridge:GLU:71>  (4) 
0

>  <hbond:GLY:129>  (4) 
0

>  <halogenbond:CYS:147>  (4) 
0

>  <hydroph_interaction:THR:39>  (4) 
0

>  <hbond:ASN:69>  (4) 
0

>  <hydroph_interaction:THR:132>  (4) 
0

>  <hbond:TYR:122>  (4) 
0

>  <hydroph_interaction:PHE:109>  (4) 
0

>  <hydroph_interaction:PHE:140>  (4) 
0

>  <hbond:PRO:141>  (4) 
0

$$$$
PV-001573842640-x1071-0A
     RDKit          3D

 48 49  0  0  0  0  0  0  0  0999 V2000
   -5.6680    0.0900   -2.1600 C   0  0  0  0  0  0  0  0  0  0  0  0
   -6.2830   -0.9710   -1.3120 C   0  0  0  0  0  0  0  0  0  0  0  0
   -6.2550   -0.9060   -0.0940 O   0  0  0  0  0  0  0  0  0  0  0  0
   -6.8610   -1.9960   -2.0340 N   0  0  0  0  0  0  0  0  0  0  0  0
   -6.6240   -3.3880   -1.6780 C   0  0  0  0  0  0  0  0  0  0  0  0
   -6.6190   -4.4010   -2.8410 C   0  0  0  0  0  0  0  0  0  0  0  0
   -7.6100   -4.0140   -3.8440 N   0  0  0  0  0  0  0  0  0  0  0  0
   -8.9150   -4.4670   -3.8000 C   0  0  0  0  0  0  0  0  0  0  0  0
   -9.7960   -3.9560   -3.1090 O   0  0  0  0  0  0  0  0  0  0  0  0
   -9.1980   -5.6700   -4.6850 C   0  0  0  0  0  0  0  0  0  0  0  0
   -8.7870   -5.4290   -6.1060 C   0  0  0  0  0  0  0  0  0  0  0  0
   -9.1650   -4.3060   -6.8620 C   0  0  0  0  0  0  0  0  0  0  0  0
   -8.8210   -4.0620   -8.1180 N   0  0  0  0  0  0  0  0  0  0  0  0
   -7.5830   -4.6340   -8.3680 C   0  0  0  0  0  0  0  0  0  0  0  0
   -6.7050   -4.0420   -8.9590 O   0  0  0  0  0  0  0  0  0  0  0  0
   -7.3320   -5.9420   -7.9510 C   0  0  0  0  0  0  0  0  0  0  0  0
   -7.9450   -6.3730   -6.7770 C   0  0  0  0  0  0  0  0  0  0  0  0
   -6.8470   -5.8600   -2.3440 C   0  0  0  0  0  0  0  0  0  0  0  0
   -5.9950   -6.8080   -2.9400 C   0  0  0  0  0  0  0  0  0  0  0  0
   -4.7690   -7.3510   -2.1870 C   0  0  0  0  0  0  0  0  0  0  0  0
   -4.9920   -7.4750   -0.6760 C   0  0  0  0  0  0  0  0  0  0  0  0
   -6.3130   -7.2620   -0.2930 C   0  0  0  0  0  0  0  0  0  0  0  0
   -6.7860   -5.9160   -0.8020 C   0  0  0  0  0  0  0  0  0  0  0  0
   -6.2690    1.0030   -2.1620 H   0  0  0  0  0  0  0  0  0  0  0  0
   -4.6710    0.3050   -1.7820 H   0  0  0  0  0  0  0  0  0  0  0  0
   -5.5960   -0.2800   -3.1840 H   0  0  0  0  0  0  0  0  0  0  0  0
   -7.0830   -1.7820   -3.0080 H   0  0  0  0  0  0  0  0  0  0  0  0
   -7.3500   -3.6600   -0.9060 H   0  0  0  0  0  0  0  0  0  0  0  0
   -5.6460   -3.4240   -1.2110 H   0  0  0  0  0  0  0  0  0  0  0  0
   -5.6340   -4.3390   -3.3160 H   0  0  0  0  0  0  0  0  0  0  0  0
   -7.4740   -3.0740   -4.2390 H   0  0  0  0  0  0  0  0  0  0  0  0
   -8.6720   -6.5380   -4.2740 H   0  0  0  0  0  0  0  0  0  0  0  0
  -10.2670   -5.9070   -4.6340 H   0  0  0  0  0  0  0  0  0  0  0  0
   -9.8040   -3.5530   -6.3920 H   0  0  0  0  0  0  0  0  0  0  0  0
   -8.9790   -3.1490   -8.5320 H   0  0  0  0  0  0  0  0  0  0  0  0
   -6.6800   -6.5990   -8.5150 H   0  0  0  0  0  0  0  0  0  0  0  0
   -7.7980   -7.3730   -6.3890 H   0  0  0  0  0  0  0  0  0  0  0  0
   -7.8710   -6.1360   -2.6290 H   0  0  0  0  0  0  0  0  0  0  0  0
   -5.6130   -6.3560   -3.8690 H   0  0  0  0  0  0  0  0  0  0  0  0
   -6.5670   -7.6750   -3.2790 H   0  0  0  0  0  0  0  0  0  0  0  0
   -4.4910   -8.3300   -2.5910 H   0  0  0  0  0  0  0  0  0  0  0  0
   -3.9130   -6.6940   -2.3770 H   0  0  0  0  0  0  0  0  0  0  0  0
   -4.3370   -6.7560   -0.1690 H   0  0  0  0  0  0  0  0  0  0  0  0
   -4.6780   -8.4690   -0.3330 H   0  0  0  0  0  0  0  0  0  0  0  0
   -6.9520   -8.0660   -0.6760 H   0  0  0  0  0  0  0  0  0  0  0  0
   -6.3910   -7.2840    0.8000 H   0  0  0  0  0  0  0  0  0  0  0  0
   -7.7720   -5.6900   -0.3800 H   0  0  0  0  0  0  0  0  0  0  0  0
   -6.0970   -5.1500   -0.4350 H   0  0  0  0  0  0  0  0  0  0  0  0
  1  2  1  0
  2  3  2  0
  2  4  1  0
  4  5  1  0
  5  6  1  0
  6  7  1  0
  7  8  1  0
  8  9  2  0
  8 10  1  0
 10 11  1  0
 11 12  2  0
 12 13  1  0
 13 14  1  0
 14 15  2  0
 14 16  1  0
 16 17  2  0
  6 18  1  0
 18 19  1  0
 19 20  1  0
 20 21  1  0
 21 22  1  0
 22 23  1  0
 17 11  1  0
 23 18  1  0
  1 24  1  0
  1 25  1  0
  1 26  1  0
  4 27  1  0
  5 28  1  0
  5 29  1  0
  6 30  1  0
  7 31  1  0
 10 32  1  0
 10 33  1  0
 12 34  1  0
 13 35  1  0
 16 36  1  0
 17 37  1  0
 18 38  1  0
 19 39  1  0
 19 40  1  0
 20 41  1  0
 20 42  1  0
 21 43  1  0
 21 44  1  0
 22 45  1  0
 22 46  1  0
 23 47  1  0
 23 48  1  0
A    1
 C1 
A    2
 C2 
A    3
 O1 
A    4
 N1 
A    5
 C3 
A    6
 C4 
A    7
 N2 
A    8
 C5 
A    9
 O2 
A   10
 C6 
A   11
 C7 
A   12
 C8 
A   13
 N3 
A   14
 C9 
A   15
 O3 
A   16
 C10
A   17
 C11
A   18
 C12
A   19
 C13
A   20
 C14
A   21
 C15
A   22
 C16
A   23
 C17
A   24
 H1 
A   25
 H2 
A   26
 H3 
A   27
 H4 
A   28
 H5 
A   29
 H6 
A   30
 H7 
A   31
 H8 
A   32
 H9 
A   33
 H10
A   34
 H11
A   35
 H12
A   36
 H13
A   37
 H14
A   38
 H15
A   39
 H16
A   40
 H17
A   41
 H18
A   42
 H19
A   43
 H20
A   44
 H21
A   45
 H22
A   46
 H23
A   47
 H24
A   48
 H25
M  END
>  <ref_pdb>  (5) 
x0147_0A

>  <ref_mols>  (5) 
x1071_0A,x1498_0A

>  <original SMILES>  (5) 
[H]c1c(C([H])([H])C(=O)N([H])C([H])(C([H])([H])N([H])C(=O)C([H])([H])[H])C2([H])C([H])([H])C([H])([H])C([H])([H])C([H])([H])C2([H])[H])c([H])n([H])c(=O)c1[H]

>  <index>  (5) 
1246

>  <∆∆G>  (5) 
-8.395819

>  <comRMSD>  (5) 
0.36218

>  <N_constrained_atoms>  (5) 
20.0

>  <N_unconstrained_atoms>  (5) 
3.0

>  <LE>  (5) 
0.365036

>  <percent_hybrid>  (5) 
35.0

>  <max_hit_Tanimoto>  (5) 
0.182236

>  <largest_ring>  (5) 
6

>  <N_interactions_kept>  (5) 
0.5

>  <N_interactions_lost>  (5) 
2.0

>  <interaction_uniqueness_metric>  (5) 
0.10524

>  <N_HA>  (5) 
23

>  <N_rotatable_bonds>  (5) 
7

>  <N_interactions>  (5) 
7

>  <N_PAINS>  (5) 
0

>  <UFF_Gibbs>  (5) 
144.79719

>  <strain_per_HA>  (5) 
6.295503

>  <ad_hoc_penalty>  (5) 
-41.220628

>  <cluster>  (5) 
1597

>  <ranked>  (5) 
5.0

>  <merger_rank>  (5) 
1

>  <hydroph_interaction:LEU:127>  (5) 
1

>  <hbond:GLY:128>  (5) 
1

>  <hydroph_interaction:ALA:144>  (5) 
0

>  <hbond:GLY:164>  (5) 
3

>  <hbond:HIS:40>  (5) 
0

>  <pistack:HIS:40>  (5) 
0

>  <hydroph_interaction:LEU:125>  (5) 
0

>  <hydroph_interaction:PHE:170>  (5) 
1

>  <hydroph_interaction:HIS:40>  (5) 
0

>  <pication:HIS:40>  (5) 
0

>  <hbond:THR:142>  (5) 
1

>  <hbond:HIS:161>  (5) 
0

>  <hbond:GLY:166>  (5) 
0

>  <hbond:VAL:162>  (5) 
0

>  <hydroph_interaction:ASN:165>  (5) 
0

>  <hbond:ASN:126>  (5) 
0

>  <hbond:ARG:143>  (5) 
0

>  <hbond:GLU:71>  (5) 
0

>  <saltbridge:HIS:161>  (5) 
0

>  <hbond:ALA:144>  (5) 
0

>  <hbond:GLY:145>  (5) 
0

>  <hbond:GLN:146>  (5) 
0

>  <hbond:CYS:147>  (5) 
0

>  <halogenbond:ASN:126>  (5) 
0

>  <saltbridge:HIS:40>  (5) 
0

>  <hbond:LEU:127>  (5) 
0

>  <hbond:THR:130>  (5) 
0

>  <hydroph_interaction:GLU:71>  (5) 
0

>  <hydroph_interaction:THR:130>  (5) 
0

>  <saltbridge:ARG:143>  (5) 
0

>  <saltbridge:GLU:71>  (5) 
0

>  <hbond:GLY:129>  (5) 
0

>  <halogenbond:CYS:147>  (5) 
0

>  <hydroph_interaction:THR:39>  (5) 
0

>  <hbond:ASN:69>  (5) 
0

>  <hydroph_interaction:THR:132>  (5) 
0

>  <hbond:TYR:122>  (5) 
0

>  <hydroph_interaction:PHE:109>  (5) 
0

>  <hydroph_interaction:PHE:140>  (5) 
0

>  <hbond:PRO:141>  (5) 
0

$$$$
Z4622378186-x1071-0A
     RDKit          3D

 48 49  0  0  0  0  0  0  0  0999 V2000
   -5.6140   -0.0260   -2.2480 C   0  0  0  0  0  0  0  0  0  0  0  0
   -6.6490   -0.5310   -1.3040 C   0  0  0  0  0  0  0  0  0  0  0  0
   -6.2840   -0.1470    0.0920 C   0  0  0  0  0  0  0  0  0  0  0  0
   -7.8910    0.0220   -1.5140 N   0  0  0  0  0  0  0  0  0  0  0  0
   -6.8160   -2.0500   -1.4470 C   0  0  0  0  0  0  0  0  0  0  0  0
   -7.0160   -3.4340   -1.4770 C   0  0  0  0  0  0  0  0  0  0  0  0
   -6.5790   -4.4570   -2.5600 C   0  0  0  0  0  0  0  0  0  0  0  0
   -6.4480   -4.1640   -3.7570 O   0  0  0  0  0  0  0  0  0  0  0  0
   -6.3770   -5.7180   -2.0060 N   0  0  0  0  0  0  0  0  0  0  0  0
   -7.1090   -6.1570   -0.9240 C   0  0  0  0  0  0  0  0  0  0  0  0
   -6.3920   -7.2750   -0.1660 C   0  0  0  0  0  0  0  0  0  0  0  0
   -5.0050   -7.3330   -0.3240 C   0  0  0  0  0  0  0  0  0  0  0  0
   -4.1400   -8.2210    0.4260 N   0  0  0  0  0  0  0  0  0  0  0  0
   -2.7760   -7.6930    0.1490 C   0  0  0  0  0  0  0  0  0  0  0  0
   -2.4520   -6.9720    1.3170 C   0  0  0  0  0  0  0  0  0  0  0  0
   -3.3770   -7.2680    2.2590 C   0  0  0  0  0  0  0  0  0  0  0  0
   -3.9390   -8.4250    1.8740 C   0  0  0  0  0  0  0  0  0  0  0  0
   -4.9910   -8.9980    2.7750 C   0  0  0  0  0  0  0  0  0  0  0  0
   -6.0760   -9.5620    2.1870 N   0  0  0  0  0  0  0  0  0  0  0  0
   -4.8550   -8.9790    3.9970 O   0  0  0  0  0  0  0  0  0  0  0  0
   -4.7350   -7.5080   -1.8560 C   0  0  0  0  0  0  0  0  0  0  0  0
   -5.6050   -6.7540   -2.6760 C   0  0  0  0  0  0  0  0  0  0  0  0
   -5.4690   -0.7440   -3.0620 H   0  0  0  0  0  0  0  0  0  0  0  0
   -4.6710    0.1110   -1.7130 H   0  0  0  0  0  0  0  0  0  0  0  0
   -5.9440    0.9230   -2.6680 H   0  0  0  0  0  0  0  0  0  0  0  0
   -5.2420   -0.1470    0.3530 H   0  0  0  0  0  0  0  0  0  0  0  0
   -6.6750    0.8560    0.3040 H   0  0  0  0  0  0  0  0  0  0  0  0
   -6.7960   -0.8100    0.7930 H   0  0  0  0  0  0  0  0  0  0  0  0
   -8.2760   -0.3680   -2.3600 H   0  0  0  0  0  0  0  0  0  0  0  0
   -7.8000    1.0180   -1.6790 H   0  0  0  0  0  0  0  0  0  0  0  0
   -8.0600   -6.5660   -1.2720 H   0  0  0  0  0  0  0  0  0  0  0  0
   -7.3440   -5.3010   -0.2910 H   0  0  0  0  0  0  0  0  0  0  0  0
   -6.8370   -8.2340   -0.4520 H   0  0  0  0  0  0  0  0  0  0  0  0
   -6.5680   -7.1650    0.9090 H   0  0  0  0  0  0  0  0  0  0  0  0
   -4.6380   -6.3380   -0.0880 H   0  0  0  0  0  0  0  0  0  0  0  0
   -2.7930   -7.0220   -0.7080 H   0  0  0  0  0  0  0  0  0  0  0  0
   -2.1040   -8.4890   -0.1310 H   0  0  0  0  0  0  0  0  0  0  0  0
   -1.4830   -7.2280    1.6870 H   0  0  0  0  0  0  0  0  0  0  0  0
   -2.3300   -5.9130    1.1380 H   0  0  0  0  0  0  0  0  0  0  0  0
   -4.2110   -6.5850    2.4360 H   0  0  0  0  0  0  0  0  0  0  0  0
   -2.8850   -7.4460    3.2140 H   0  0  0  0  0  0  0  0  0  0  0  0
   -3.1400   -9.1690    1.9560 H   0  0  0  0  0  0  0  0  0  0  0  0
   -5.9340   -9.9180    1.2490 H   0  0  0  0  0  0  0  0  0  0  0  0
   -6.7210  -10.0430    2.7910 H   0  0  0  0  0  0  0  0  0  0  0  0
   -4.6650   -8.5730   -2.0750 H   0  0  0  0  0  0  0  0  0  0  0  0
   -3.7190   -7.1420   -2.0530 H   0  0  0  0  0  0  0  0  0  0  0  0
   -5.0130   -6.2680   -3.4590 H   0  0  0  0  0  0  0  0  0  0  0  0
   -6.3030   -7.4320   -3.1810 H   0  0  0  0  0  0  0  0  0  0  0  0
  1  2  1  0
  2  3  1  0
  2  4  1  0
  2  5  1  0
  5  6  3  0
  6  7  1  0
  7  8  2  0
  7  9  1  0
  9 10  1  0
 10 11  1  0
 11 12  1  0
 12 13  1  0
 13 14  1  0
 14 15  1  0
 15 16  1  0
 16 17  1  0
 17 18  1  0
 18 19  1  0
 18 20  2  0
 12 21  1  0
 21 22  1  0
 22  9  1  0
 17 13  1  0
  1 23  1  0
  1 24  1  0
  1 25  1  0
  3 26  1  0
  3 27  1  0
  3 28  1  0
  4 29  1  0
  4 30  1  0
 10 31  1  0
 10 32  1  0
 11 33  1  0
 11 34  1  0
 12 35  1  0
 14 36  1  0
 14 37  1  0
 15 38  1  0
 15 39  1  0
 16 40  1  0
 16 41  1  0
 17 42  1  0
 19 43  1  0
 19 44  1  0
 21 45  1  0
 21 46  1  0
 22 47  1  0
 22 48  1  0
A    1
 C1 
A    2
 C2 
A    3
 C3 
A    4
 N1 
A    5
 C4 
A    6
 C5 
A    7
 C6 
A    8
 O1 
A    9
 N2 
A   10
 C7 
A   11
 C8 
A   12
 C9 
A   13
 N3 
A   14
 C10
A   15
 C11
A   16
 C12
A   17
 C13
A   18
 C14
A   19
 N4 
A   20
 O2 
A   21
 C15
A   22
 C16
A   23
 H1 
A   24
 H2 
A   25
 H3 
A   26
 H4 
A   27
 H5 
A   28
 H6 
A   29
 H7 
A   30
 H8 
A   31
 H9 
A   32
 H10
A   33
 H11
A   34
 H12
A   35
 H13
A   36
 H14
A   37
 H15
A   38
 H16
A   39
 H17
A   40
 H18
A   41
 H19
A   42
 H20
A   43
 H21
A   44
 H22
A   45
 H23
A   46
 H24
A   47
 H25
A   48
 H26
M  END
>  <ref_pdb>  (6) 
x0147_0A

>  <ref_mols>  (6) 
x1071_0A,x1247_0AS4

>  <original SMILES>  (6) 
[H]N([H])C(=O)C1([H])N(C2([H])C([H])([H])C([H])([H])N(C(=O)C#CC(N([H])[H])(C([H])([H])[H])C([H])([H])[H])C([H])([H])C2([H])[H])C([H])([H])C([H])([H])C1([H])[H]

>  <index>  (6) 
10080

>  <∆∆G>  (6) 
-7.779649

>  <comRMSD>  (6) 
0.640123

>  <N_constrained_atoms>  (6) 
22.0

>  <N_unconstrained_atoms>  (6) 
0.0

>  <LE>  (6) 
0.35362

>  <percent_hybrid>  (6) 
37.0

>  <max_hit_Tanimoto>  (6) 
0.302326

>  <largest_ring>  (6) 
6

>  <N_interactions_kept>  (6) 
1.0

>  <N_interactions_lost>  (6) 
2.0

>  <interaction_uniqueness_metric>  (6) 
0.130388

>  <N_HA>  (6) 
22

>  <N_rotatable_bonds>  (6) 
5

>  <N_interactions>  (6) 
7

>  <N_PAINS>  (6) 
0

>  <UFF_Gibbs>  (6) 
276.427759

>  <strain_per_HA>  (6) 
12.564841

>  <ad_hoc_penalty>  (6) 
-40.243496

>  <cluster>  (6) 
4933

>  <ranked>  (6) 
6.0

>  <merger_rank>  (6) 
1

>  <hydroph_interaction:LEU:127>  (6) 
2

>  <hbond:GLY:128>  (6) 
0

>  <hydroph_interaction:ALA:144>  (6) 
0

>  <hbond:GLY:164>  (6) 
2

>  <hbond:HIS:40>  (6) 
0

>  <pistack:HIS:40>  (6) 
0

>  <hydroph_interaction:LEU:125>  (6) 
0

>  <hydroph_interaction:PHE:170>  (6) 
1

>  <hydroph_interaction:HIS:40>  (6) 
0

>  <pication:HIS:40>  (6) 
0

>  <hbond:THR:142>  (6) 
0

>  <hbond:HIS:161>  (6) 
0

>  <hbond:GLY:166>  (6) 
0

>  <hbond:VAL:162>  (6) 
0

>  <hydroph_interaction:ASN:165>  (6) 
0

>  <hbond:ASN:126>  (6) 
0

>  <hbond:ARG:143>  (6) 
0

>  <hbond:GLU:71>  (6) 
0

>  <saltbridge:HIS:161>  (6) 
0

>  <hbond:ALA:144>  (6) 
0

>  <hbond:GLY:145>  (6) 
0

>  <hbond:GLN:146>  (6) 
0

>  <hbond:CYS:147>  (6) 
0

>  <halogenbond:ASN:126>  (6) 
0

>  <saltbridge:HIS:40>  (6) 
0

>  <hbond:LEU:127>  (6) 
0

>  <hbond:THR:130>  (6) 
1

>  <hydroph_interaction:GLU:71>  (6) 
0

>  <hydroph_interaction:THR:130>  (6) 
0

>  <saltbridge:ARG:143>  (6) 
0

>  <saltbridge:GLU:71>  (6) 
1

>  <hbond:GLY:129>  (6) 
0

>  <halogenbond:CYS:147>  (6) 
0

>  <hydroph_interaction:THR:39>  (6) 
0

>  <hbond:ASN:69>  (6) 
0

>  <hydroph_interaction:THR:132>  (6) 
0

>  <hbond:TYR:122>  (6) 
0

>  <hydroph_interaction:PHE:109>  (6) 
0

>  <hydroph_interaction:PHE:140>  (6) 
0

>  <hbond:PRO:141>  (6) 
0

$$$$
Z3880212410-x1071-0A
     RDKit          3D

 50 51  0  0  0  0  0  0  0  0999 V2000
   -5.7090   -0.1910   -2.2740 C   0  0  0  0  0  0  0  0  0  0  0  0
   -6.6680   -0.8080   -1.2790 C   0  0  0  0  0  0  0  0  0  0  0  0
   -6.3640   -0.2430    0.0860 C   0  0  0  0  0  0  0  0  0  0  0  0
   -8.1060   -0.3890   -1.5500 C   0  0  0  0  0  0  0  0  0  0  0  0
   -6.5280   -2.2500   -1.1790 O   0  0  0  0  0  0  0  0  0  0  0  0
   -6.4680   -3.0530   -2.3250 C   0  0  0  0  0  0  0  0  0  0  0  0
   -5.7750   -2.7460   -3.2810 O   0  0  0  0  0  0  0  0  0  0  0  0
   -7.2140   -4.2540   -2.4820 C   0  0  0  0  0  0  0  0  0  0  0  0
   -7.5510   -4.3060   -3.9400 N   0  0  0  0  0  0  0  0  0  0  0  0
   -8.7570   -5.0930   -4.2580 C   0  0  0  0  0  0  0  0  0  0  0  0
   -9.3850   -4.7420   -5.6590 C   0  0  0  0  0  0  0  0  0  0  0  0
   -8.5080   -4.6940   -6.9290 C   0  0  0  0  0  0  0  0  0  0  0  0
   -8.5240   -3.4720   -7.7900 C   0  0  0  0  0  0  0  0  0  0  0  0
   -7.6440   -3.7620   -8.7920 N   0  0  0  0  0  0  0  0  0  0  0  0
   -7.1350   -5.0150   -8.6060 N   0  0  0  0  0  0  0  0  0  0  0  0
   -7.6450   -5.5960   -7.4890 N   0  0  0  0  0  0  0  0  0  0  0  0
   -6.8290   -5.6090   -2.1470 C   0  0  0  0  0  0  0  0  0  0  0  0
   -5.7960   -6.1360   -2.9840 C   0  0  0  0  0  0  0  0  0  0  0  0
   -4.9600   -6.9730   -2.1850 C   0  0  0  0  0  0  0  0  0  0  0  0
   -5.5210   -7.7080   -1.1280 C   0  0  0  0  0  0  0  0  0  0  0  0
   -6.3300   -6.9790   -0.2620 C   0  0  0  0  0  0  0  0  0  0  0  0
   -6.5960   -5.7250   -0.7850 C   0  0  0  0  0  0  0  0  0  0  0  0
   -6.1610    0.6790   -2.7500 H   0  0  0  0  0  0  0  0  0  0  0  0
   -4.7890    0.1380   -1.7820 H   0  0  0  0  0  0  0  0  0  0  0  0
   -5.4430   -0.9020   -3.0550 H   0  0  0  0  0  0  0  0  0  0  0  0
   -5.2900   -0.2670    0.2450 H   0  0  0  0  0  0  0  0  0  0  0  0
   -6.8210   -0.8340    0.8860 H   0  0  0  0  0  0  0  0  0  0  0  0
   -6.7070    0.7940    0.1800 H   0  0  0  0  0  0  0  0  0  0  0  0
   -8.1550    0.6500   -1.9000 H   0  0  0  0  0  0  0  0  0  0  0  0
   -8.5790   -1.0090   -2.3190 H   0  0  0  0  0  0  0  0  0  0  0  0
   -8.6980   -0.4780   -0.6360 H   0  0  0  0  0  0  0  0  0  0  0  0
   -8.1590   -4.0870   -1.9510 H   0  0  0  0  0  0  0  0  0  0  0  0
   -7.6200   -3.3460   -4.2820 H   0  0  0  0  0  0  0  0  0  0  0  0
   -8.5550   -6.1430   -4.0590 H   0  0  0  0  0  0  0  0  0  0  0  0
   -9.5560   -4.7670   -3.5730 H   0  0  0  0  0  0  0  0  0  0  0  0
  -10.2610   -5.3730   -5.8470 H   0  0  0  0  0  0  0  0  0  0  0  0
   -9.8140   -3.7350   -5.5480 H   0  0  0  0  0  0  0  0  0  0  0  0
   -9.0500   -2.5150   -7.7500 H   0  0  0  0  0  0  0  0  0  0  0  0
   -7.3430   -3.2130   -9.5890 H   0  0  0  0  0  0  0  0  0  0  0  0
   -7.7770   -6.1280   -2.2320 H   0  0  0  0  0  0  0  0  0  0  0  0
   -5.1620   -5.3000   -3.2820 H   0  0  0  0  0  0  0  0  0  0  0  0
   -6.0930   -6.5730   -3.9340 H   0  0  0  0  0  0  0  0  0  0  0  0
   -4.0140   -6.5120   -1.9210 H   0  0  0  0  0  0  0  0  0  0  0  0
   -4.6260   -7.7400   -2.8970 H   0  0  0  0  0  0  0  0  0  0  0  0
   -6.1850   -8.4300   -1.6120 H   0  0  0  0  0  0  0  0  0  0  0  0
   -4.8090   -8.3620   -0.6260 H   0  0  0  0  0  0  0  0  0  0  0  0
   -7.2430   -7.5150   -0.0150 H   0  0  0  0  0  0  0  0  0  0  0  0
   -5.8930   -6.9340    0.7320 H   0  0  0  0  0  0  0  0  0  0  0  0
   -5.7600   -5.0890   -0.4930 H   0  0  0  0  0  0  0  0  0  0  0  0
   -7.4720   -5.3100   -0.2700 H   0  0  0  0  0  0  0  0  0  0  0  0
  1  2  1  0
  2  3  1  0
  2  4  1  0
  2  5  1  0
  5  6  1  0
  6  7  2  0
  6  8  1  0
  8  9  1  0
  9 10  1  0
 10 11  1  0
 11 12  1  0
 12 13  2  0
 13 14  1  0
 14 15  1  0
 15 16  2  0
  8 17  1  0
 17 18  1  0
 18 19  1  0
 19 20  1  0
 20 21  1  0
 21 22  1  0
 16 12  1  0
 22 17  1  0
  1 23  1  0
  1 24  1  0
  1 25  1  0
  3 26  1  0
  3 27  1  0
  3 28  1  0
  4 29  1  0
  4 30  1  0
  4 31  1  0
  8 32  1  0
  9 33  1  0
 10 34  1  0
 10 35  1  0
 11 36  1  0
 11 37  1  0
 13 38  1  0
 14 39  1  0
 17 40  1  0
 18 41  1  0
 18 42  1  0
 19 43  1  0
 19 44  1  0
 20 45  1  0
 20 46  1  0
 21 47  1  0
 21 48  1  0
 22 49  1  0
 22 50  1  0
A    1
 C1 
A    2
 C2 
A    3
 C3 
A    4
 C4 
A    5
 O1 
A    6
 C5 
A    7
 O2 
A    8
 C6 
A    9
 N1 
A   10
 C7 
A   11
 C8 
A   12
 C9 
A   13
 C10
A   14
 N2 
A   15
 N3 
A   16
 N4 
A   17
 C11
A   18
 C12
A   19
 C13
A   20
 C14
A   21
 C15
A   22
 C16
A   23
 H1 
A   24
 H2 
A   25
 H3 
A   26
 H4 
A   27
 H5 
A   28
 H6 
A   29
 H7 
A   30
 H8 
A   31
 H9 
A   32
 H10
A   33
 H11
A   34
 H12
A   35
 H13
A   36
 H14
A   37
 H15
A   38
 H16
A   39
 H17
A   40
 H18
A   41
 H19
A   42
 H20
A   43
 H21
A   44
 H22
A   45
 H23
A   46
 H24
A   47
 H25
A   48
 H26
A   49
 H27
A   50
 H28
M  END
>  <ref_pdb>  (7) 
x0147_0A

>  <ref_mols>  (7) 
x1071_0A,x0789_0AS1

>  <original SMILES>  (7) 
[H]c1c(C([H])([H])C([H])([H])N([H])C([H])(C(=O)OC(C([H])([H])[H])(C([H])([H])[H])C([H])([H])[H])C2([H])C([H])([H])C([H])([H])C([H])([H])C([H])([H])C2([H])[H])nnn1[H]

>  <index>  (7) 
12068

>  <∆∆G>  (7) 
-9.206554

>  <comRMSD>  (7) 
0.594171

>  <N_constrained_atoms>  (7) 
20.0

>  <N_unconstrained_atoms>  (7) 
2.0

>  <LE>  (7) 
0.41848

>  <percent_hybrid>  (7) 
30.0

>  <max_hit_Tanimoto>  (7) 
0.127976

>  <largest_ring>  (7) 
6

>  <N_interactions_kept>  (7) 
1.0

>  <N_interactions_lost>  (7) 
1.0

>  <interaction_uniqueness_metric>  (7) 
0.049311

>  <N_HA>  (7) 
22

>  <N_rotatable_bonds>  (7) 
6

>  <N_interactions>  (7) 
4

>  <N_PAINS>  (7) 
0

>  <UFF_Gibbs>  (7) 
187.876756

>  <strain_per_HA>  (7) 
8.539814

>  <ad_hoc_penalty>  (7) 
-40.107152

>  <cluster>  (7) 
4369

>  <ranked>  (7) 
7.0

>  <merger_rank>  (7) 
1

>  <hydroph_interaction:LEU:127>  (7) 
1

>  <hbond:GLY:128>  (7) 
0

>  <hydroph_interaction:ALA:144>  (7) 
0

>  <hbond:GLY:164>  (7) 
2

>  <hbond:HIS:40>  (7) 
0

>  <pistack:HIS:40>  (7) 
0

>  <hydroph_interaction:LEU:125>  (7) 
0

>  <hydroph_interaction:PHE:170>  (7) 
1

>  <hydroph_interaction:HIS:40>  (7) 
0

>  <pication:HIS:40>  (7) 
0

>  <hbond:THR:142>  (7) 
0

>  <hbond:HIS:161>  (7) 
0

>  <hbond:GLY:166>  (7) 
0

>  <hbond:VAL:162>  (7) 
0

>  <hydroph_interaction:ASN:165>  (7) 
0

>  <hbond:ASN:126>  (7) 
0

>  <hbond:ARG:143>  (7) 
0

>  <hbond:GLU:71>  (7) 
0

>  <saltbridge:HIS:161>  (7) 
0

>  <hbond:ALA:144>  (7) 
0

>  <hbond:GLY:145>  (7) 
0

>  <hbond:GLN:146>  (7) 
0

>  <hbond:CYS:147>  (7) 
0

>  <halogenbond:ASN:126>  (7) 
0

>  <saltbridge:HIS:40>  (7) 
0

>  <hbond:LEU:127>  (7) 
0

>  <hbond:THR:130>  (7) 
0

>  <hydroph_interaction:GLU:71>  (7) 
0

>  <hydroph_interaction:THR:130>  (7) 
0

>  <saltbridge:ARG:143>  (7) 
0

>  <saltbridge:GLU:71>  (7) 
0

>  <hbond:GLY:129>  (7) 
0

>  <halogenbond:CYS:147>  (7) 
0

>  <hydroph_interaction:THR:39>  (7) 
0

>  <hbond:ASN:69>  (7) 
0

>  <hydroph_interaction:THR:132>  (7) 
0

>  <hbond:TYR:122>  (7) 
0

>  <hydroph_interaction:PHE:109>  (7) 
0

>  <hydroph_interaction:PHE:140>  (7) 
0

>  <hbond:PRO:141>  (7) 
0

$$$$
Z1981904037-x1329-0AS3
     RDKit          3D

 25 25  0  0  0  0  0  0  0  0999 V2000
   -3.4560   -7.9670    0.2730 C   0  0  0  0  0  0  0  0  0  0  0  0
   -4.4630   -8.9750    0.0950 O   0  0  0  0  0  0  0  0  0  0  0  0
   -5.2260   -8.7550   -1.0850 C   0  0  0  0  0  0  0  0  0  0  0  0
   -5.3170   -9.5530   -2.0030 O   0  0  0  0  0  0  0  0  0  0  0  0
   -5.9360   -7.4090   -1.0650 C   0  0  0  0  0  0  0  0  0  0  0  0
   -5.6320   -6.2640   -1.9500 C   0  0  0  0  0  0  0  0  0  0  0  0
   -6.5810   -5.1890   -1.5810 C   0  0  0  0  0  0  0  0  0  0  0  0
   -6.6600   -3.7950   -2.2420 C   0  0  0  0  0  0  0  0  0  0  0  0
   -6.2180   -3.5040   -3.5660 O   0  0  0  0  0  0  0  0  0  0  0  0
   -7.2350   -2.8490   -1.4250 N   0  0  0  0  0  0  0  0  0  0  0  0
   -7.3130   -1.5570   -1.8910 N   0  0  0  0  0  0  0  0  0  0  0  0
   -6.5990   -0.5030   -1.1320 C   0  0  0  0  0  0  0  0  0  0  0  0
   -6.5830    0.8210   -1.8140 C   0  0  0  0  0  0  0  0  0  0  0  0
   -5.9810   -0.7020    0.1190 O   0  0  0  0  0  0  0  0  0  0  0  0
   -7.4030   -5.6160   -0.5600 N   0  0  0  0  0  0  0  0  0  0  0  0
   -6.9890   -6.9680   -0.2590 O   0  0  0  0  0  0  0  0  0  0  0  0
   -2.9380   -7.7330   -0.6670 H   0  0  0  0  0  0  0  0  0  0  0  0
   -2.7050   -8.2790    1.0070 H   0  0  0  0  0  0  0  0  0  0  0  0
   -3.9360   -7.0540    0.6380 H   0  0  0  0  0  0  0  0  0  0  0  0
   -4.8590   -6.2310   -2.7280 H   0  0  0  0  0  0  0  0  0  0  0  0
   -8.0210   -3.1470   -0.8390 H   0  0  0  0  0  0  0  0  0  0  0  0
   -7.3250   -1.4480   -2.9190 H   0  0  0  0  0  0  0  0  0  0  0  0
   -7.4920    1.4240   -1.8390 H   0  0  0  0  0  0  0  0  0  0  0  0
   -5.7800    1.4260   -1.3660 H   0  0  0  0  0  0  0  0  0  0  0  0
   -6.2830    0.6210   -2.8520 H   0  0  0  0  0  0  0  0  0  0  0  0
  1  2  1  0
  2  3  1  0
  3  4  2  0
  3  5  1  0
  5  6  2  0
  6  7  1  0
  7  8  1  0
  8  9  2  0
  8 10  1  0
 10 11  1  0
 11 12  1  0
 12 13  1  0
 12 14  2  0
  7 15  2  0
 15 16  1  0
 16  5  1  0
  1 17  1  0
  1 18  1  0
  1 19  1  0
  6 20  1  0
 10 21  1  0
 11 22  1  0
 13 23  1  0
 13 24  1  0
 13 25  1  0
A    1
 C1 
A    2
 O1 
A    3
 C2 
A    4
 O2 
A    5
 C3 
A    6
 C4 
A    7
 C5 
A    8
 C6 
A    9
 O3 
A   10
 N1 
A   11
 N2 
A   12
 C7 
A   13
 C8 
A   14
 O4 
A   15
 N3 
A   16
 O5 
A   17
 H1 
A   18
 H2 
A   19
 H3 
A   20
 H4 
A   21
 H5 
A   22
 H6 
A   23
 H7 
A   24
 H8 
A   25
 H9 
M  END
>  <ref_pdb>  (8) 
x0147_0A

>  <ref_mols>  (8) 
x1329_0AS3,x1052_1A

>  <original SMILES>  (8) 
[H]c1c(C(=O)N([H])N([H])C(=O)C([H])([H])[H])noc1C(=O)OC([H])([H])[H]

>  <index>  (8) 
14226

>  <∆∆G>  (8) 
-7.631523

>  <comRMSD>  (8) 
0.762513

>  <N_constrained_atoms>  (8) 
15.0

>  <N_unconstrained_atoms>  (8) 
2.0

>  <LE>  (8) 
0.448913

>  <percent_hybrid>  (8) 
8.0

>  <max_hit_Tanimoto>  (8) 
0.4209

>  <largest_ring>  (8) 
5

>  <N_interactions_kept>  (8) 
0.0

>  <N_interactions_lost>  (8) 
2.5

>  <interaction_uniqueness_metric>  (8) 
0.163503

>  <N_HA>  (8) 
16

>  <N_rotatable_bonds>  (8) 
4

>  <N_interactions>  (8) 
7

>  <N_PAINS>  (8) 
0

>  <UFF_Gibbs>  (8) 
128.923249

>  <strain_per_HA>  (8) 
8.057653

>  <ad_hoc_penalty>  (8) 
-38.79093

>  <cluster>  (8) 
1893

>  <ranked>  (8) 
8.0

>  <merger_rank>  (8) 
1

>  <hydroph_interaction:LEU:127>  (8) 
1

>  <hbond:GLY:128>  (8) 
1

>  <hydroph_interaction:ALA:144>  (8) 
0

>  <hbond:GLY:164>  (8) 
2

>  <hbond:HIS:40>  (8) 
0

>  <pistack:HIS:40>  (8) 
0

>  <hydroph_interaction:LEU:125>  (8) 
0

>  <hydroph_interaction:PHE:170>  (8) 
1

>  <hydroph_interaction:HIS:40>  (8) 
0

>  <pication:HIS:40>  (8) 
0

>  <hbond:THR:142>  (8) 
0

>  <hbond:HIS:161>  (8) 
0

>  <hbond:GLY:166>  (8) 
0

>  <hbond:VAL:162>  (8) 
0

>  <hydroph_interaction:ASN:165>  (8) 
1

>  <hbond:ASN:126>  (8) 
0

>  <hbond:ARG:143>  (8) 
0

>  <hbond:GLU:71>  (8) 
0

>  <saltbridge:HIS:161>  (8) 
0

>  <hbond:ALA:144>  (8) 
0

>  <hbond:GLY:145>  (8) 
0

>  <hbond:GLN:146>  (8) 
0

>  <hbond:CYS:147>  (8) 
0

>  <halogenbond:ASN:126>  (8) 
0

>  <saltbridge:HIS:40>  (8) 
1

>  <hbond:LEU:127>  (8) 
0

>  <hbond:THR:130>  (8) 
0

>  <hydroph_interaction:GLU:71>  (8) 
0

>  <hydroph_interaction:THR:130>  (8) 
0

>  <saltbridge:ARG:143>  (8) 
0

>  <saltbridge:GLU:71>  (8) 
0

>  <hbond:GLY:129>  (8) 
0

>  <halogenbond:CYS:147>  (8) 
0

>  <hydroph_interaction:THR:39>  (8) 
0

>  <hbond:ASN:69>  (8) 
0

>  <hydroph_interaction:THR:132>  (8) 
0

>  <hbond:TYR:122>  (8) 
0

>  <hydroph_interaction:PHE:109>  (8) 
0

>  <hydroph_interaction:PHE:140>  (8) 
0

>  <hbond:PRO:141>  (8) 
0

$$$$
Z993526968-x2099-0A
     RDKit          3D

 47 50  0  0  0  0  0  0  0  0999 V2000
   -4.7720   -8.4950   -1.4340 C   0  0  0  0  0  0  0  0  0  0  0  0
   -5.6320   -7.2620   -1.1920 C   0  0  0  0  0  0  0  0  0  0  0  0
   -5.5150   -6.0330   -1.7580 C   0  0  0  0  0  0  0  0  0  0  0  0
   -6.4670   -5.1860   -1.2840 C   0  0  0  0  0  0  0  0  0  0  0  0
   -6.5260   -3.8410   -1.7300 O   0  0  0  0  0  0  0  0  0  0  0  0
   -6.9890   -3.7320   -3.0650 C   0  0  0  0  0  0  0  0  0  0  0  0
   -7.6520   -5.0770   -3.4400 C   0  0  0  0  0  0  0  0  0  0  0  0
   -9.0280   -5.1710   -3.0640 O   0  0  0  0  0  0  0  0  0  0  0  0
   -6.8310   -6.1100   -4.1260 N   0  0  0  0  0  0  0  0  0  0  0  0
   -7.5580   -6.7250   -5.2550 C   0  0  0  0  0  0  0  0  0  0  0  0
   -6.6300   -7.7490   -5.9040 C   0  0  0  0  0  0  0  0  0  0  0  0
   -6.1570   -7.3670   -7.3100 C   0  0  0  0  0  0  0  0  0  0  0  0
   -6.3770   -6.2750   -7.8490 O   0  0  0  0  0  0  0  0  0  0  0  0
   -7.2950   -5.5320   -7.4740 C   0  0  0  0  0  0  0  0  0  0  0  0
   -7.6750   -4.5020   -8.3640 C   0  0  0  0  0  0  0  0  0  0  0  0
   -8.6980   -3.5940   -8.0600 C   0  0  0  0  0  0  0  0  0  0  0  0
   -9.4440   -3.6940   -6.7480 C   0  0  0  0  0  0  0  0  0  0  0  0
  -10.5670   -2.7580   -6.3700 C   0  0  0  0  0  0  0  0  0  0  0  0
  -11.6030   -2.5190   -7.3860 C   0  0  0  0  0  0  0  0  0  0  0  0
  -12.6680   -1.6680   -7.0600 C   0  0  0  0  0  0  0  0  0  0  0  0
  -12.7250   -1.0650   -5.7920 C   0  0  0  0  0  0  0  0  0  0  0  0
  -11.7320   -1.3000   -4.8400 C   0  0  0  0  0  0  0  0  0  0  0  0
  -10.6580   -2.1410   -5.1250 C   0  0  0  0  0  0  0  0  0  0  0  0
   -9.0600   -4.7020   -5.8790 C   0  0  0  0  0  0  0  0  0  0  0  0
   -7.9410   -5.6630   -6.2390 C   0  0  0  0  0  0  0  0  0  0  0  0
   -7.2910   -5.9140   -0.3370 N   0  0  0  0  0  0  0  0  0  0  0  0
   -6.7090   -7.2140   -0.3230 O   0  0  0  0  0  0  0  0  0  0  0  0
   -3.7560   -8.3460   -1.0550 H   0  0  0  0  0  0  0  0  0  0  0  0
   -5.2020   -9.3680   -0.9310 H   0  0  0  0  0  0  0  0  0  0  0  0
   -4.7090   -8.7420   -2.5000 H   0  0  0  0  0  0  0  0  0  0  0  0
   -4.7170   -5.8510   -2.4910 H   0  0  0  0  0  0  0  0  0  0  0  0
   -7.7440   -2.9390   -3.0840 H   0  0  0  0  0  0  0  0  0  0  0  0
   -6.1780   -3.3710   -3.6760 H   0  0  0  0  0  0  0  0  0  0  0  0
   -6.4480   -6.7530   -3.4300 H   0  0  0  0  0  0  0  0  0  0  0  0
   -8.4890   -7.2010   -4.9230 H   0  0  0  0  0  0  0  0  0  0  0  0
   -5.7450   -7.8990   -5.2790 H   0  0  0  0  0  0  0  0  0  0  0  0
   -7.1360   -8.7190   -5.9820 H   0  0  0  0  0  0  0  0  0  0  0  0
   -5.0730   -7.4930   -7.3190 H   0  0  0  0  0  0  0  0  0  0  0  0
   -6.5220   -8.1340   -8.0070 H   0  0  0  0  0  0  0  0  0  0  0  0
   -7.1600   -4.4090   -9.3180 H   0  0  0  0  0  0  0  0  0  0  0  0
   -8.9620   -2.8210   -8.7610 H   0  0  0  0  0  0  0  0  0  0  0  0
  -11.5460   -2.9920   -8.3610 H   0  0  0  0  0  0  0  0  0  0  0  0
  -13.4470   -1.4750   -7.7900 H   0  0  0  0  0  0  0  0  0  0  0  0
  -13.5580   -0.4060   -5.5570 H   0  0  0  0  0  0  0  0  0  0  0  0
  -11.7840   -0.8280   -3.8630 H   0  0  0  0  0  0  0  0  0  0  0  0
   -9.9040   -2.3030   -4.3590 H   0  0  0  0  0  0  0  0  0  0  0  0
   -9.5620   -4.8060   -4.9300 H   0  0  0  0  0  0  0  0  0  0  0  0
  1  2  1  0
  2  3  2  0
  3  4  1  0
  4  5  1  0
  5  6  1  0
  6  7  1  0
  7  8  2  0
  7  9  1  0
  9 10  1  0
 10 11  1  0
 11 12  1  0
 12 13  1  0
 13 14  1  0
 14 15  2  0
 15 16  1  0
 16 17  2  0
 17 18  1  0
 18 19  2  0
 19 20  1  0
 20 21  2  0
 21 22  1  0
 22 23  2  0
 17 24  1  0
 24 25  2  0
  4 26  2  0
 26 27  1  0
 27  2  1  0
 25 10  1  0
 25 14  1  0
 23 18  1  0
  1 28  1  0
  1 29  1  0
  1 30  1  0
  3 31  1  0
  6 32  1  0
  6 33  1  0
  9 34  1  0
 10 35  1  0
 11 36  1  0
 11 37  1  0
 12 38  1  0
 12 39  1  0
 15 40  1  0
 16 41  1  0
 19 42  1  0
 20 43  1  0
 21 44  1  0
 22 45  1  0
 23 46  1  0
 24 47  1  0
A    1
 C1 
A    2
 C2 
A    3
 C3 
A    4
 C4 
A    5
 O1 
A    6
 C5 
A    7
 C6 
A    8
 O2 
A    9
 N1 
A   10
 C7 
A   11
 C8 
A   12
 C9 
A   13
 O3 
A   14
 C10
A   15
 C11
A   16
 C12
A   17
 C13
A   18
 C14
A   19
 C15
A   20
 C16
A   21
 C17
A   22
 C18
A   23
 C19
A   24
 C20
A   25
 C21
A   26
 N2 
A   27
 O4 
A   28
 H1 
A   29
 H2 
A   30
 H3 
A   31
 H4 
A   32
 H5 
A   33
 H6 
A   34
 H7 
A   35
 H8 
A   36
 H9 
A   37
 H10
A   38
 H11
A   39
 H12
A   40
 H13
A   41
 H14
A   42
 H15
A   43
 H16
A   44
 H17
A   45
 H18
A   46
 H19
A   47
 H20
M  END
>  <ref_pdb>  (9) 
x0147_0A

>  <ref_mols>  (9) 
x2099_0A,x1052_1AS2

>  <original SMILES>  (9) 
[H]c1c(OC([H])([H])C(=O)N([H])C2([H])c3c([H])c(-c4c([H])c([H])c([H])c([H])c4[H])c([H])c([H])c3OC([H])([H])C2([H])[H])noc1C([H])([H])[H]

>  <index>  (9) 
12354

>  <∆∆G>  (9) 
-8.456112

>  <comRMSD>  (9) 
0.355386

>  <N_constrained_atoms>  (9) 
25.0

>  <N_unconstrained_atoms>  (9) 
3.0

>  <LE>  (9) 
0.302004

>  <percent_hybrid>  (9) 
32.0

>  <max_hit_Tanimoto>  (9) 
0.232264

>  <largest_ring>  (9) 
6

>  <N_interactions_kept>  (9) 
2.0

>  <N_interactions_lost>  (9) 
0.5

>  <interaction_uniqueness_metric>  (9) 
0.038904

>  <N_HA>  (9) 
27

>  <N_rotatable_bonds>  (9) 
6

>  <N_interactions>  (9) 
3

>  <N_PAINS>  (9) 
0

>  <UFF_Gibbs>  (9) 
226.902886

>  <strain_per_HA>  (9) 
8.403779

>  <ad_hoc_penalty>  (9) 
-38.637127

>  <cluster>  (9) 
4288

>  <ranked>  (9) 
9.0

>  <merger_rank>  (9) 
1

>  <hydroph_interaction:LEU:127>  (9) 
1

>  <hbond:GLY:128>  (9) 
1

>  <hydroph_interaction:ALA:144>  (9) 
0

>  <hbond:GLY:164>  (9) 
0

>  <hbond:HIS:40>  (9) 
0

>  <pistack:HIS:40>  (9) 
0

>  <hydroph_interaction:LEU:125>  (9) 
0

>  <hydroph_interaction:PHE:170>  (9) 
0

>  <hydroph_interaction:HIS:40>  (9) 
1

>  <pication:HIS:40>  (9) 
0

>  <hbond:THR:142>  (9) 
0

>  <hbond:HIS:161>  (9) 
0

>  <hbond:GLY:166>  (9) 
0

>  <hbond:VAL:162>  (9) 
0

>  <hydroph_interaction:ASN:165>  (9) 
0

>  <hbond:ASN:126>  (9) 
0

>  <hbond:ARG:143>  (9) 
0

>  <hbond:GLU:71>  (9) 
0

>  <saltbridge:HIS:161>  (9) 
0

>  <hbond:ALA:144>  (9) 
0

>  <hbond:GLY:145>  (9) 
0

>  <hbond:GLN:146>  (9) 
0

>  <hbond:CYS:147>  (9) 
0

>  <halogenbond:ASN:126>  (9) 
0

>  <saltbridge:HIS:40>  (9) 
0

>  <hbond:LEU:127>  (9) 
0

>  <hbond:THR:130>  (9) 
0

>  <hydroph_interaction:GLU:71>  (9) 
0

>  <hydroph_interaction:THR:130>  (9) 
0

>  <saltbridge:ARG:143>  (9) 
0

>  <saltbridge:GLU:71>  (9) 
0

>  <hbond:GLY:129>  (9) 
0

>  <halogenbond:CYS:147>  (9) 
0

>  <hydroph_interaction:THR:39>  (9) 
0

>  <hbond:ASN:69>  (9) 
0

>  <hydroph_interaction:THR:132>  (9) 
0

>  <hbond:TYR:122>  (9) 
0

>  <hydroph_interaction:PHE:109>  (9) 
0

>  <hydroph_interaction:PHE:140>  (9) 
0

>  <hbond:PRO:141>  (9) 
0

$$$$
PV-006774969385-x1071-0A
     RDKit          3D

 56 57  0  0  0  0  0  0  0  0999 V2000
   -5.5380   -0.0540   -1.8230 C   0  0  0  0  0  0  0  0  0  0  0  0
   -6.8380   -0.7660   -1.4570 C   0  0  0  0  0  0  0  0  0  0  0  0
   -7.9660    0.1270   -1.8580 C   0  0  0  0  0  0  0  0  0  0  0  0
   -6.9900   -0.7880    0.0300 C   0  0  0  0  0  0  0  0  0  0  0  0
   -6.9310   -2.1200   -2.2510 C   0  0  0  0  0  0  0  0  0  0  0  0
   -6.6580   -3.4200   -1.8100 C   0  0  0  0  0  0  0  0  0  0  0  0
   -5.9570   -3.7150   -0.9060 O   0  0  0  0  0  0  0  0  0  0  0  0
   -7.3180   -4.5200   -2.5820 N   0  0  0  0  0  0  0  0  0  0  0  0
   -7.8100   -4.2690   -3.9760 C   0  0  0  0  0  0  0  0  0  0  0  0
   -9.2650   -3.7750   -4.0920 C   0  0  0  0  0  0  0  0  0  0  0  0
  -10.2170   -4.5520   -4.8540 N   0  0  0  0  0  0  0  0  0  0  0  0
  -10.4180   -4.4250   -6.2920 C   0  0  0  0  0  0  0  0  0  0  0  0
  -11.5810   -4.2610   -7.0010 O   0  0  0  0  0  0  0  0  0  0  0  0
   -9.2870   -4.4620   -7.0900 C   0  0  0  0  0  0  0  0  0  0  0  0
   -8.9440   -3.2970   -7.9420 C   0  0  0  0  0  0  0  0  0  0  0  0
   -7.8360   -3.2850   -8.7510 C   0  0  0  0  0  0  0  0  0  0  0  0
   -6.9640   -4.2960   -8.8620 N   0  0  0  0  0  0  0  0  0  0  0  0
   -7.2380   -5.3900   -8.0980 C   0  0  0  0  0  0  0  0  0  0  0  0
   -8.4150   -5.5330   -7.1680 C   0  0  0  0  0  0  0  0  0  0  0  0
   -7.0160   -5.8640   -2.2180 C   0  0  0  0  0  0  0  0  0  0  0  0
   -5.7490   -6.3400   -2.8910 C   0  0  0  0  0  0  0  0  0  0  0  0
   -4.9400   -7.2750   -2.2160 C   0  0  0  0  0  0  0  0  0  0  0  0
   -5.1040   -7.4310   -0.8410 C   0  0  0  0  0  0  0  0  0  0  0  0
   -6.3590   -7.1530   -0.2910 C   0  0  0  0  0  0  0  0  0  0  0  0
   -7.1050   -6.1070   -0.8480 C   0  0  0  0  0  0  0  0  0  0  0  0
   -5.7200    1.0040   -2.0360 H   0  0  0  0  0  0  0  0  0  0  0  0
   -5.0790   -0.5020   -2.7100 H   0  0  0  0  0  0  0  0  0  0  0  0
   -4.8220   -0.1100   -1.0000 H   0  0  0  0  0  0  0  0  0  0  0  0
   -8.9410   -0.3140   -2.0660 H   0  0  0  0  0  0  0  0  0  0  0  0
   -8.1160    0.9290   -1.1290 H   0  0  0  0  0  0  0  0  0  0  0  0
   -7.6560    0.6150   -2.7730 H   0  0  0  0  0  0  0  0  0  0  0  0
   -6.0540   -0.5850    0.5570 H   0  0  0  0  0  0  0  0  0  0  0  0
   -7.6750    0.0100    0.3280 H   0  0  0  0  0  0  0  0  0  0  0  0
   -7.4520   -1.7170    0.3570 H   0  0  0  0  0  0  0  0  0  0  0  0
   -7.9350   -2.1520   -2.6830 H   0  0  0  0  0  0  0  0  0  0  0  0
   -6.1840   -2.0060   -3.0340 H   0  0  0  0  0  0  0  0  0  0  0  0
   -7.7110   -5.1740   -4.5900 H   0  0  0  0  0  0  0  0  0  0  0  0
   -7.1260   -3.5440   -4.3940 H   0  0  0  0  0  0  0  0  0  0  0  0
   -9.2650   -2.7570   -4.4970 H   0  0  0  0  0  0  0  0  0  0  0  0
   -9.6690   -3.6780   -3.0810 H   0  0  0  0  0  0  0  0  0  0  0  0
  -10.8440   -5.1670   -4.3260 H   0  0  0  0  0  0  0  0  0  0  0  0
   -9.5220   -2.3780   -7.9990 H   0  0  0  0  0  0  0  0  0  0  0  0
   -7.7620   -2.3530   -9.2820 H   0  0  0  0  0  0  0  0  0  0  0  0
   -6.5720   -6.2630   -8.1320 H   0  0  0  0  0  0  0  0  0  0  0  0
   -8.4880   -6.4810   -6.6250 H   0  0  0  0  0  0  0  0  0  0  0  0
   -7.8390   -6.4560   -2.6330 H   0  0  0  0  0  0  0  0  0  0  0  0
   -6.0430   -6.7840   -3.8440 H   0  0  0  0  0  0  0  0  0  0  0  0
   -5.1060   -5.4830   -3.1020 H   0  0  0  0  0  0  0  0  0  0  0  0
   -5.0910   -8.2560   -2.6880 H   0  0  0  0  0  0  0  0  0  0  0  0
   -3.8930   -7.0230   -2.4190 H   0  0  0  0  0  0  0  0  0  0  0  0
   -4.8280   -8.4570   -0.5640 H   0  0  0  0  0  0  0  0  0  0  0  0
   -4.3660   -6.7910   -0.3390 H   0  0  0  0  0  0  0  0  0  0  0  0
   -6.2170   -6.9590    0.7770 H   0  0  0  0  0  0  0  0  0  0  0  0
   -6.9740   -8.0610   -0.3390 H   0  0  0  0  0  0  0  0  0  0  0  0
   -8.1530   -6.2900   -0.5870 H   0  0  0  0  0  0  0  0  0  0  0  0
   -6.8330   -5.2010   -0.3130 H   0  0  0  0  0  0  0  0  0  0  0  0
  1  2  1  0
  2  3  1  0
  2  4  1  0
  2  5  1  0
  5  6  1  0
  6  7  2  0
  6  8  1  0
  8  9  1  0
  9 10  1  0
 10 11  1  0
 11 12  1  0
 12 13  2  0
 12 14  1  0
 14 15  2  0
 15 16  1  0
 16 17  2  0
 17 18  1  0
 18 19  2  0
  8 20  1  0
 20 21  1  0
 21 22  1  0
 22 23  1  0
 23 24  1  0
 24 25  1  0
 19 14  1  0
 25 20  1  0
  1 26  1  0
  1 27  1  0
  1 28  1  0
  3 29  1  0
  3 30  1  0
  3 31  1  0
  4 32  1  0
  4 33  1  0
  4 34  1  0
  5 35  1  0
  5 36  1  0
  9 37  1  0
  9 38  1  0
 10 39  1  0
 10 40  1  0
 11 41  1  0
 15 42  1  0
 16 43  1  0
 18 44  1  0
 19 45  1  0
 20 46  1  0
 21 47  1  0
 21 48  1  0
 22 49  1  0
 22 50  1  0
 23 51  1  0
 23 52  1  0
 24 53  1  0
 24 54  1  0
 25 55  1  0
 25 56  1  0
A    1
 C1 
A    2
 C2 
A    3
 C3 
A    4
 C4 
A    5
 C5 
A    6
 C6 
A    7
 O1 
A    8
 N1 
A    9
 C7 
A   10
 C8 
A   11
 N2 
A   12
 C9 
A   13
 O2 
A   14
 C10
A   15
 C11
A   16
 C12
A   17
 N3 
A   18
 C13
A   19
 C14
A   20
 C15
A   21
 C16
A   22
 C17
A   23
 C18
A   24
 C19
A   25
 C20
A   26
 H1 
A   27
 H2 
A   28
 H3 
A   29
 H4 
A   30
 H5 
A   31
 H6 
A   32
 H7 
A   33
 H8 
A   34
 H9 
A   35
 H10
A   36
 H11
A   37
 H12
A   38
 H13
A   39
 H14
A   40
 H15
A   41
 H16
A   42
 H17
A   43
 H18
A   44
 H19
A   45
 H20
A   46
 H21
A   47
 H22
A   48
 H23
A   49
 H24
A   50
 H25
A   51
 H26
A   52
 H27
A   53
 H28
A   54
 H29
A   55
 H30
A   56
 H31
M  END
>  <ref_pdb>  (10) 
x0147_0A

>  <ref_mols>  (10) 
x1071_0A,x0980_0BS4

>  <original SMILES>  (10) 
[H]c1nc([H])c([H])c(C(=O)N([H])C([H])([H])C([H])([H])N(C(=O)C([H])([H])C(C([H])([H])[H])(C([H])([H])[H])C([H])([H])[H])C2([H])C([H])([H])C([H])([H])C([H])([H])C([H])([H])C2([H])[H])c1[H]

>  <index>  (10) 
6341

>  <∆∆G>  (10) 
-8.702663

>  <comRMSD>  (10) 
0.666989

>  <N_constrained_atoms>  (10) 
23.0

>  <N_unconstrained_atoms>  (10) 
2.0

>  <LE>  (10) 
0.348107

>  <percent_hybrid>  (10) 
40.0

>  <max_hit_Tanimoto>  (10) 
0.286682

>  <largest_ring>  (10) 
6

>  <N_interactions_kept>  (10) 
3.0

>  <N_interactions_lost>  (10) 
0.0

>  <interaction_uniqueness_metric>  (10) 
0.072015

>  <N_HA>  (10) 
25

>  <N_rotatable_bonds>  (10) 
6

>  <N_interactions>  (10) 
2

>  <N_PAINS>  (10) 
0

>  <UFF_Gibbs>  (10) 
246.752976

>  <strain_per_HA>  (10) 
9.87008

>  <ad_hoc_penalty>  (10) 
-38.37022

>  <cluster>  (10) 
5825

>  <ranked>  (10) 
10.0

>  <merger_rank>  (10) 
1

>  <hydroph_interaction:LEU:127>  (10) 
0

>  <hbond:GLY:128>  (10) 
0

>  <hydroph_interaction:ALA:144>  (10) 
0

>  <hbond:GLY:164>  (10) 
0

>  <hbond:HIS:40>  (10) 
0

>  <pistack:HIS:40>  (10) 
0

>  <hydroph_interaction:LEU:125>  (10) 
0

>  <hydroph_interaction:PHE:170>  (10) 
1

>  <hydroph_interaction:HIS:40>  (10) 
0

>  <pication:HIS:40>  (10) 
0

>  <hbond:THR:142>  (10) 
0

>  <hbond:HIS:161>  (10) 
0

>  <hbond:GLY:166>  (10) 
0

>  <hbond:VAL:162>  (10) 
0

>  <hydroph_interaction:ASN:165>  (10) 
1

>  <hbond:ASN:126>  (10) 
0

>  <hbond:ARG:143>  (10) 
0

>  <hbond:GLU:71>  (10) 
0

>  <saltbridge:HIS:161>  (10) 
0

>  <hbond:ALA:144>  (10) 
0

>  <hbond:GLY:145>  (10) 
0

>  <hbond:GLN:146>  (10) 
0

>  <hbond:CYS:147>  (10) 
0

>  <halogenbond:ASN:126>  (10) 
0

>  <saltbridge:HIS:40>  (10) 
0

>  <hbond:LEU:127>  (10) 
0

>  <hbond:THR:130>  (10) 
0

>  <hydroph_interaction:GLU:71>  (10) 
0

>  <hydroph_interaction:THR:130>  (10) 
0

>  <saltbridge:ARG:143>  (10) 
0

>  <saltbridge:GLU:71>  (10) 
0

>  <hbond:GLY:129>  (10) 
0

>  <halogenbond:CYS:147>  (10) 
0

>  <hydroph_interaction:THR:39>  (10) 
0

>  <hbond:ASN:69>  (10) 
0

>  <hydroph_interaction:THR:132>  (10) 
0

>  <hbond:TYR:122>  (10) 
0

>  <hydroph_interaction:PHE:109>  (10) 
0

>  <hydroph_interaction:PHE:140>  (10) 
0

>  <hbond:PRO:141>  (10) 
0

$$$$
PV-006330564734-x2099-0A
     RDKit          3D

 50 53  0  0  0  0  0  0  0  0999 V2000
   -4.5720   -8.4340   -0.9280 C   0  0  0  0  0  0  0  0  0  0  0  0
   -5.3870   -7.1990   -1.1110 C   0  0  0  0  0  0  0  0  0  0  0  0
   -6.4110   -7.0000   -0.0960 N   0  0  0  0  0  0  0  0  0  0  0  0
   -7.0080   -5.6890   -0.6130 N   0  0  0  0  0  0  0  0  0  0  0  0
   -6.3060   -5.2780   -1.8130 C   0  0  0  0  0  0  0  0  0  0  0  0
   -6.7660   -4.1060   -2.3790 C   0  0  0  0  0  0  0  0  0  0  0  0
   -7.7500   -4.4200   -3.3170 C   0  0  0  0  0  0  0  0  0  0  0  0
   -8.5790   -5.5410   -3.0600 N   0  0  0  0  0  0  0  0  0  0  0  0
   -8.5690   -6.5890   -3.8980 C   0  0  0  0  0  0  0  0  0  0  0  0
   -9.1760   -7.6130   -3.5650 O   0  0  0  0  0  0  0  0  0  0  0  0
   -7.8530   -6.5780   -5.2390 C   0  0  0  0  0  0  0  0  0  0  0  0
   -8.1340   -5.5500   -6.0600 C   0  0  0  0  0  0  0  0  0  0  0  0
   -9.0560   -4.6470   -5.6470 O   0  0  0  0  0  0  0  0  0  0  0  0
   -9.3210   -3.6300   -6.4940 C   0  0  0  0  0  0  0  0  0  0  0  0
  -10.4400   -2.7170   -6.0910 C   0  0  0  0  0  0  0  0  0  0  0  0
  -11.5200   -2.4650   -7.1330 C   0  0  0  0  0  0  0  0  0  0  0  0
  -12.5750   -1.6300   -6.7980 C   0  0  0  0  0  0  0  0  0  0  0  0
  -12.6840   -0.9650   -5.4340 C   0  0  0  0  0  0  0  0  0  0  0  0
  -11.6370   -1.2650   -4.5530 C   0  0  0  0  0  0  0  0  0  0  0  0
  -10.5490   -2.1040   -4.8450 C   0  0  0  0  0  0  0  0  0  0  0  0
   -8.7050   -3.4080   -7.6180 C   0  0  0  0  0  0  0  0  0  0  0  0
   -9.0000   -2.3140   -8.3240 C   0  0  0  0  0  0  0  0  0  0  0  0
   -7.6830   -4.3660   -8.1060 C   0  0  0  0  0  0  0  0  0  0  0  0
   -7.0520   -4.2340   -9.1390 O   0  0  0  0  0  0  0  0  0  0  0  0
   -7.4870   -5.4420   -7.2630 C   0  0  0  0  0  0  0  0  0  0  0  0
   -6.4980   -6.4790   -7.7360 C   0  0  0  0  0  0  0  0  0  0  0  0
   -6.2630   -7.5340   -6.8480 C   0  0  0  0  0  0  0  0  0  0  0  0
   -6.9280   -7.5790   -5.6070 C   0  0  0  0  0  0  0  0  0  0  0  0
   -5.3220   -6.1950   -2.1140 C   0  0  0  0  0  0  0  0  0  0  0  0
   -3.5050   -8.1900   -0.8740 H   0  0  0  0  0  0  0  0  0  0  0  0
   -4.8650   -8.9470   -0.0080 H   0  0  0  0  0  0  0  0  0  0  0  0
   -4.7090   -9.1160   -1.7730 H   0  0  0  0  0  0  0  0  0  0  0  0
   -7.7790   -5.2540   -0.1200 H   0  0  0  0  0  0  0  0  0  0  0  0
   -7.0270   -3.3440   -1.6520 H   0  0  0  0  0  0  0  0  0  0  0  0
   -6.0520   -3.5650   -3.0150 H   0  0  0  0  0  0  0  0  0  0  0  0
   -7.3670   -4.3330   -4.3420 H   0  0  0  0  0  0  0  0  0  0  0  0
   -8.4360   -3.5680   -3.3000 H   0  0  0  0  0  0  0  0  0  0  0  0
   -9.3940   -5.3950   -2.4770 H   0  0  0  0  0  0  0  0  0  0  0  0
  -11.4720   -2.9260   -8.1160 H   0  0  0  0  0  0  0  0  0  0  0  0
  -13.2880   -1.5240   -7.6220 H   0  0  0  0  0  0  0  0  0  0  0  0
  -13.5080   -0.3080   -5.1650 H   0  0  0  0  0  0  0  0  0  0  0  0
  -11.5880   -0.8540   -3.5370 H   0  0  0  0  0  0  0  0  0  0  0  0
   -9.7890   -2.2690   -4.0840 H   0  0  0  0  0  0  0  0  0  0  0  0
   -8.2910   -2.2030   -9.1270 H   0  0  0  0  0  0  0  0  0  0  0  0
   -9.9950   -2.2370   -8.7230 H   0  0  0  0  0  0  0  0  0  0  0  0
   -8.8780   -1.4080   -7.7740 H   0  0  0  0  0  0  0  0  0  0  0  0
   -5.9890   -6.4080   -8.6970 H   0  0  0  0  0  0  0  0  0  0  0  0
   -5.5740   -8.3080   -7.0960 H   0  0  0  0  0  0  0  0  0  0  0  0
   -6.7180   -8.4050   -4.9280 H   0  0  0  0  0  0  0  0  0  0  0  0
   -4.6370   -6.1540   -2.9520 H   0  0  0  0  0  0  0  0  0  0  0  0
  1  2  1  0
  2  3  2  0
  3  4  1  0
  4  5  1  0
  5  6  1  0
  6  7  1  0
  7  8  1  0
  8  9  1  0
  9 10  2  0
  9 11  1  0
 11 12  2  0
 12 13  1  0
 13 14  1  0
 14 15  1  0
 15 16  2  0
 16 17  1  0
 17 18  2  0
 18 19  1  0
 19 20  2  0
 14 21  2  0
 21 22  1  0
 21 23  1  0
 23 24  2  0
 23 25  1  0
 25 26  2  0
 26 27  1  0
 27 28  2  0
  5 29  2  0
 29  2  1  0
 28 11  1  0
 25 12  1  0
 20 15  1  0
  1 30  1  0
  1 31  1  0
  1 32  1  0
  4 33  1  0
  6 34  1  0
  6 35  1  0
  7 36  1  0
  7 37  1  0
  8 38  1  0
 16 39  1  0
 17 40  1  0
 18 41  1  0
 19 42  1  0
 20 43  1  0
 22 44  1  0
 22 45  1  0
 22 46  1  0
 26 47  1  0
 27 48  1  0
 28 49  1  0
 29 50  1  0
A    1
 C1 
A    2
 C2 
A    3
 N1 
A    4
 N2 
A    5
 C3 
A    6
 C4 
A    7
 C5 
A    8
 N3 
A    9
 C6 
A   10
 O1 
A   11
 C7 
A   12
 C8 
A   13
 O2 
A   14
 C9 
A   15
 C10
A   16
 C11
A   17
 C12
A   18
 C13
A   19
 C14
A   20
 C15
A   21
 C16
A   22
 C17
A   23
 C18
A   24
 O3 
A   25
 C19
A   26
 C20
A   27
 C21
A   28
 C22
A   29
 C23
A   30
 H1 
A   31
 H2 
A   32
 H3 
A   33
 H4 
A   34
 H5 
A   35
 H6 
A   36
 H7 
A   37
 H8 
A   38
 H9 
A   39
 H10
A   40
 H11
A   41
 H12
A   42
 H13
A   43
 H14
A   44
 H15
A   45
 H16
A   46
 H17
A   47
 H18
A   48
 H19
A   49
 H20
A   50
 H21
M  END
>  <ref_pdb>  (11) 
x0147_0A

>  <ref_mols>  (11) 
x2099_0A,x1052_1AS2

>  <original SMILES>  (11) 
[H]c1c([H])c([H])c(-c2oc3c(C(=O)N([H])C([H])([H])C([H])([H])c4c([H])c(C([H])([H])[H])nn4[H])c([H])c([H])c([H])c3c(=O)c2C([H])([H])[H])c([H])c1[H]

>  <index>  (11) 
12325

>  <∆∆G>  (11) 
-8.96657

>  <comRMSD>  (11) 
0.504139

>  <N_constrained_atoms>  (11) 
25.0

>  <N_unconstrained_atoms>  (11) 
4.0

>  <LE>  (11) 
0.309192

>  <percent_hybrid>  (11) 
32.0

>  <max_hit_Tanimoto>  (11) 
0.263889

>  <largest_ring>  (11) 
6

>  <N_interactions_kept>  (11) 
2.0

>  <N_interactions_lost>  (11) 
0.5

>  <interaction_uniqueness_metric>  (11) 
0.029503

>  <N_HA>  (11) 
29

>  <N_rotatable_bonds>  (11) 
7

>  <N_interactions>  (11) 
3

>  <N_PAINS>  (11) 
0

>  <UFF_Gibbs>  (11) 
230.27587

>  <strain_per_HA>  (11) 
7.94052

>  <ad_hoc_penalty>  (11) 
-38.246286

>  <cluster>  (11) 
4293

>  <ranked>  (11) 
11.0

>  <merger_rank>  (11) 
2

>  <hydroph_interaction:LEU:127>  (11) 
2

>  <hbond:GLY:128>  (11) 
0

>  <hydroph_interaction:ALA:144>  (11) 
0

>  <hbond:GLY:164>  (11) 
0

>  <hbond:HIS:40>  (11) 
0

>  <pistack:HIS:40>  (11) 
0

>  <hydroph_interaction:LEU:125>  (11) 
0

>  <hydroph_interaction:PHE:170>  (11) 
0

>  <hydroph_interaction:HIS:40>  (11) 
1

>  <pication:HIS:40>  (11) 
0

>  <hbond:THR:142>  (11) 
0

>  <hbond:HIS:161>  (11) 
0

>  <hbond:GLY:166>  (11) 
0

>  <hbond:VAL:162>  (11) 
0

>  <hydroph_interaction:ASN:165>  (11) 
0

>  <hbond:ASN:126>  (11) 
0

>  <hbond:ARG:143>  (11) 
0

>  <hbond:GLU:71>  (11) 
0

>  <saltbridge:HIS:161>  (11) 
0

>  <hbond:ALA:144>  (11) 
0

>  <hbond:GLY:145>  (11) 
0

>  <hbond:GLN:146>  (11) 
0

>  <hbond:CYS:147>  (11) 
0

>  <halogenbond:ASN:126>  (11) 
0

>  <saltbridge:HIS:40>  (11) 
0

>  <hbond:LEU:127>  (11) 
0

>  <hbond:THR:130>  (11) 
0

>  <hydroph_interaction:GLU:71>  (11) 
0

>  <hydroph_interaction:THR:130>  (11) 
0

>  <saltbridge:ARG:143>  (11) 
0

>  <saltbridge:GLU:71>  (11) 
0

>  <hbond:GLY:129>  (11) 
0

>  <halogenbond:CYS:147>  (11) 
0

>  <hydroph_interaction:THR:39>  (11) 
0

>  <hbond:ASN:69>  (11) 
0

>  <hydroph_interaction:THR:132>  (11) 
0

>  <hbond:TYR:122>  (11) 
0

>  <hydroph_interaction:PHE:109>  (11) 
0

>  <hydroph_interaction:PHE:140>  (11) 
0

>  <hbond:PRO:141>  (11) 
0

$$$$
PV-002457263010-x1071-0A
     RDKit          3D

 43 44  0  0  0  0  0  0  0  0999 V2000
   -5.7170   -0.0050   -2.1790 C   0  0  0  0  0  0  0  0  0  0  0  0
   -6.2260   -0.9990   -1.4450 C   0  0  0  0  0  0  0  0  0  0  0  0
   -6.2580   -0.9330   -0.2180 O   0  0  0  0  0  0  0  0  0  0  0  0
   -6.6820   -2.0730   -2.1800 N   0  0  0  0  0  0  0  0  0  0  0  0
   -6.5060   -3.4290   -1.6910 C   0  0  0  0  0  0  0  0  0  0  0  0
   -6.4740   -4.5760   -2.7190 C   0  0  0  0  0  0  0  0  0  0  0  0
   -6.5420   -4.3680   -3.9440 O   0  0  0  0  0  0  0  0  0  0  0  0
   -6.3550   -5.8520   -2.1020 N   0  0  0  0  0  0  0  0  0  0  0  0
   -6.5310   -5.8030   -0.6640 C   0  0  0  0  0  0  0  0  0  0  0  0
   -6.4940   -7.0950    0.0060 C   0  0  0  0  0  0  0  0  0  0  0  0
   -5.1100   -7.7750   -0.0990 C   0  0  0  0  0  0  0  0  0  0  0  0
   -4.0600   -6.9590    0.4520 C   0  0  0  0  0  0  0  0  0  0  0  0
   -2.8080   -7.6370    1.0530 C   0  0  0  0  0  0  0  0  0  0  0  0
   -3.1350   -8.6950    2.1130 C   0  0  0  0  0  0  0  0  0  0  0  0
   -2.5470   -8.4070    3.3930 O   0  0  0  0  0  0  0  0  0  0  0  0
   -4.6430   -8.8580    2.1990 C   0  0  0  0  0  0  0  0  0  0  0  0
   -5.1830   -9.0760    0.7700 C   0  0  0  0  0  0  0  0  0  0  0  0
   -4.8600   -7.9680   -1.6470 C   0  0  0  0  0  0  0  0  0  0  0  0
   -5.6470   -7.0420   -2.6490 C   0  0  0  0  0  0  0  0  0  0  0  0
   -4.9320    0.5800   -1.7090 H   0  0  0  0  0  0  0  0  0  0  0  0
   -5.4330   -0.2770   -3.1870 H   0  0  0  0  0  0  0  0  0  0  0  0
   -6.5430    0.7020   -2.2970 H   0  0  0  0  0  0  0  0  0  0  0  0
   -6.9530   -1.9500   -3.1600 H   0  0  0  0  0  0  0  0  0  0  0  0
   -5.5690   -3.4380   -1.1570 H   0  0  0  0  0  0  0  0  0  0  0  0
   -7.3270   -3.6120   -0.9920 H   0  0  0  0  0  0  0  0  0  0  0  0
   -7.4780   -5.2900   -0.4650 H   0  0  0  0  0  0  0  0  0  0  0  0
   -5.7310   -5.1860   -0.2590 H   0  0  0  0  0  0  0  0  0  0  0  0
   -7.2730   -7.7440   -0.4090 H   0  0  0  0  0  0  0  0  0  0  0  0
   -6.7590   -6.9410    1.0600 H   0  0  0  0  0  0  0  0  0  0  0  0
   -3.7150   -6.3120   -0.3360 H   0  0  0  0  0  0  0  0  0  0  0  0
   -4.4780   -6.3050    1.2200 H   0  0  0  0  0  0  0  0  0  0  0  0
   -2.1830   -6.8600    1.5080 H   0  0  0  0  0  0  0  0  0  0  0  0
   -2.2200   -8.0850    0.2410 H   0  0  0  0  0  0  0  0  0  0  0  0
   -2.6970   -9.6440    1.7980 H   0  0  0  0  0  0  0  0  0  0  0  0
   -1.5880   -8.3070    3.2420 H   0  0  0  0  0  0  0  0  0  0  0  0
   -4.8830   -9.7160    2.8390 H   0  0  0  0  0  0  0  0  0  0  0  0
   -5.1160   -7.9830    2.6660 H   0  0  0  0  0  0  0  0  0  0  0  0
   -4.6360   -9.8910    0.2860 H   0  0  0  0  0  0  0  0  0  0  0  0
   -6.2240   -9.4190    0.8530 H   0  0  0  0  0  0  0  0  0  0  0  0
   -3.7890   -7.8560   -1.8540 H   0  0  0  0  0  0  0  0  0  0  0  0
   -5.0970   -9.0040   -1.9220 H   0  0  0  0  0  0  0  0  0  0  0  0
   -6.3720   -7.6650   -3.1800 H   0  0  0  0  0  0  0  0  0  0  0  0
   -4.9560   -6.6590   -3.4080 H   0  0  0  0  0  0  0  0  0  0  0  0
  1  2  1  0
  2  3  2  0
  2  4  1  0
  4  5  1  0
  5  6  1  0
  6  7  2  0
  6  8  1  0
  8  9  1  0
  9 10  1  0
 10 11  1  0
 11 12  1  0
 12 13  1  0
 13 14  1  0
 14 15  1  0
 14 16  1  0
 16 17  1  0
 11 18  1  0
 18 19  1  0
 19  8  1  0
 17 11  1  0
  1 20  1  0
  1 21  1  0
  1 22  1  0
  4 23  1  0
  5 24  1  0
  5 25  1  0
  9 26  1  0
  9 27  1  0
 10 28  1  0
 10 29  1  0
 12 30  1  0
 12 31  1  0
 13 32  1  0
 13 33  1  0
 14 34  1  0
 15 35  1  0
 16 36  1  0
 16 37  1  0
 17 38  1  0
 17 39  1  0
 18 40  1  0
 18 41  1  0
 19 42  1  0
 19 43  1  0
A    1
 C1 
A    2
 C2 
A    3
 O1 
A    4
 N1 
A    5
 C3 
A    6
 C4 
A    7
 O2 
A    8
 N2 
A    9
 C5 
A   10
 C6 
A   11
 C7 
A   12
 C8 
A   13
 C9 
A   14
 C10
A   15
 O3 
A   16
 C11
A   17
 C12
A   18
 C13
A   19
 C14
A   20
 H1 
A   21
 H2 
A   22
 H3 
A   23
 H4 
A   24
 H5 
A   25
 H6 
A   26
 H7 
A   27
 H8 
A   28
 H9 
A   29
 H10
A   30
 H11
A   31
 H12
A   32
 H13
A   33
 H14
A   34
 H15
A   35
 H16
A   36
 H17
A   37
 H18
A   38
 H19
A   39
 H20
A   40
 H21
A   41
 H22
A   42
 H23
A   43
 H24
M  END
>  <ref_pdb>  (12) 
x0147_0A

>  <ref_mols>  (12) 
x1071_0A,x1083_0A

>  <original SMILES>  (12) 
[H]OC1([H])C([H])([H])C([H])([H])C2(C([H])([H])C([H])([H])N(C(=O)C([H])([H])N([H])C(=O)C([H])([H])[H])C([H])([H])C2([H])[H])C([H])([H])C1([H])[H]

>  <index>  (12) 
14393

>  <∆∆G>  (12) 
-8.144179

>  <comRMSD>  (12) 
0.725236

>  <N_constrained_atoms>  (12) 
21.0

>  <N_unconstrained_atoms>  (12) 
0.0

>  <LE>  (12) 
0.387818

>  <percent_hybrid>  (12) 
45.0

>  <max_hit_Tanimoto>  (12) 
0.366925

>  <largest_ring>  (12) 
6

>  <N_interactions_kept>  (12) 
1.0

>  <N_interactions_lost>  (12) 
4.0

>  <interaction_uniqueness_metric>  (12) 
0.148907

>  <N_HA>  (12) 
19

>  <N_rotatable_bonds>  (12) 
4

>  <N_interactions>  (12) 
8

>  <N_PAINS>  (12) 
0

>  <UFF_Gibbs>  (12) 
101.148308

>  <strain_per_HA>  (12) 
5.323567

>  <ad_hoc_penalty>  (12) 
-37.242391

>  <cluster>  (12) 
1124

>  <ranked>  (12) 
12.0

>  <merger_rank>  (12) 
1

>  <hydroph_interaction:LEU:127>  (12) 
2

>  <hbond:GLY:128>  (12) 
1

>  <hydroph_interaction:ALA:144>  (12) 
0

>  <hbond:GLY:164>  (12) 
2

>  <hbond:HIS:40>  (12) 
0

>  <pistack:HIS:40>  (12) 
0

>  <hydroph_interaction:LEU:125>  (12) 
0

>  <hydroph_interaction:PHE:170>  (12) 
1

>  <hydroph_interaction:HIS:40>  (12) 
0

>  <pication:HIS:40>  (12) 
0

>  <hbond:THR:142>  (12) 
0

>  <hbond:HIS:161>  (12) 
0

>  <hbond:GLY:166>  (12) 
0

>  <hbond:VAL:162>  (12) 
0

>  <hydroph_interaction:ASN:165>  (12) 
0

>  <hbond:ASN:126>  (12) 
0

>  <hbond:ARG:143>  (12) 
0

>  <hbond:GLU:71>  (12) 
1

>  <saltbridge:HIS:161>  (12) 
0

>  <hbond:ALA:144>  (12) 
0

>  <hbond:GLY:145>  (12) 
0

>  <hbond:GLN:146>  (12) 
0

>  <hbond:CYS:147>  (12) 
0

>  <halogenbond:ASN:126>  (12) 
0

>  <saltbridge:HIS:40>  (12) 
0

>  <hbond:LEU:127>  (12) 
0

>  <hbond:THR:130>  (12) 
1

>  <hydroph_interaction:GLU:71>  (12) 
0

>  <hydroph_interaction:THR:130>  (12) 
0

>  <saltbridge:ARG:143>  (12) 
0

>  <saltbridge:GLU:71>  (12) 
0

>  <hbond:GLY:129>  (12) 
0

>  <halogenbond:CYS:147>  (12) 
0

>  <hydroph_interaction:THR:39>  (12) 
0

>  <hbond:ASN:69>  (12) 
0

>  <hydroph_interaction:THR:132>  (12) 
0

>  <hbond:TYR:122>  (12) 
0

>  <hydroph_interaction:PHE:109>  (12) 
0

>  <hydroph_interaction:PHE:140>  (12) 
0

>  <hbond:PRO:141>  (12) 
0

$$$$
Z4333649563-x1084-0AS3
     RDKit          3D

 44 45  0  0  0  0  0  0  0  0999 V2000
  -11.8390   -6.0270   -4.5420 C   0  0  0  0  0  0  0  0  0  0  0  0
  -12.4230   -4.6430   -4.2780 C   0  0  0  0  0  0  0  0  0  0  0  0
  -13.7760   -4.6350   -3.5680 C   0  0  0  0  0  0  0  0  0  0  0  0
  -14.3550   -3.2450   -3.3110 C   0  0  0  0  0  0  0  0  0  0  0  0
  -13.4810   -2.0990   -3.8100 C   0  0  0  0  0  0  0  0  0  0  0  0
  -13.9240   -0.8470   -3.6220 F   0  0  0  0  0  0  0  0  0  0  0  0
  -12.2760   -2.2500   -4.4340 N   0  0  0  0  0  0  0  0  0  0  0  0
  -11.7870   -3.4470   -4.6510 C   0  0  0  0  0  0  0  0  0  0  0  0
  -10.5170   -3.5570   -5.3180 N   0  0  0  0  0  0  0  0  0  0  0  0
  -10.4400   -3.9550   -6.5570 C   0  0  0  0  0  0  0  0  0  0  0  0
  -11.3790   -3.9690   -7.3490 O   0  0  0  0  0  0  0  0  0  0  0  0
   -9.1590   -4.4480   -7.1430 C   0  0  0  0  0  0  0  0  0  0  0  0
   -8.7330   -3.8280   -8.2920 C   0  0  0  0  0  0  0  0  0  0  0  0
   -7.5840   -4.2030   -8.9520 C   0  0  0  0  0  0  0  0  0  0  0  0
   -6.8800   -5.2250   -8.4110 C   0  0  0  0  0  0  0  0  0  0  0  0
   -7.2540   -5.8590   -7.2690 C   0  0  0  0  0  0  0  0  0  0  0  0
   -8.3870   -5.4890   -6.6060 C   0  0  0  0  0  0  0  0  0  0  0  0
   -8.7000   -6.2530   -5.3350 C   0  0  0  0  0  0  0  0  0  0  0  0
   -7.6590   -6.7960   -4.9190 O   0  0  0  0  0  0  0  0  0  0  0  0
   -6.9420   -6.1880   -3.8150 C   0  0  0  0  0  0  0  0  0  0  0  0
   -5.6190   -6.6450   -3.6900 C   0  0  0  0  0  0  0  0  0  0  0  0
   -6.9600   -4.6530   -3.9030 C   0  0  0  0  0  0  0  0  0  0  0  0
   -7.7200   -6.6090   -2.5550 C   0  0  0  0  0  0  0  0  0  0  0  0
  -11.5870   -6.1530   -5.6000 H   0  0  0  0  0  0  0  0  0  0  0  0
  -12.5350   -6.8200   -4.2540 H   0  0  0  0  0  0  0  0  0  0  0  0
  -10.9220   -6.1640   -3.9570 H   0  0  0  0  0  0  0  0  0  0  0  0
  -14.3470   -5.4960   -3.2380 H   0  0  0  0  0  0  0  0  0  0  0  0
  -15.3160   -3.0590   -2.8140 H   0  0  0  0  0  0  0  0  0  0  0  0
   -9.6900   -3.6530   -4.7470 H   0  0  0  0  0  0  0  0  0  0  0  0
   -9.3240   -3.0160   -8.7020 H   0  0  0  0  0  0  0  0  0  0  0  0
   -7.2620   -3.7380   -9.8360 H   0  0  0  0  0  0  0  0  0  0  0  0
   -5.9790   -5.5590   -8.8970 H   0  0  0  0  0  0  0  0  0  0  0  0
   -6.6480   -6.6690   -6.8750 H   0  0  0  0  0  0  0  0  0  0  0  0
   -9.0480   -5.5560   -4.5660 H   0  0  0  0  0  0  0  0  0  0  0  0
   -9.4700   -6.9990   -5.5570 H   0  0  0  0  0  0  0  0  0  0  0  0
   -4.9590   -5.8130   -3.4270 H   0  0  0  0  0  0  0  0  0  0  0  0
   -5.3970   -7.4230   -2.9630 H   0  0  0  0  0  0  0  0  0  0  0  0
   -5.2740   -7.0160   -4.6600 H   0  0  0  0  0  0  0  0  0  0  0  0
   -7.7670   -4.2200   -3.3050 H   0  0  0  0  0  0  0  0  0  0  0  0
   -7.1090   -4.3150   -4.9350 H   0  0  0  0  0  0  0  0  0  0  0  0
   -6.0270   -4.2260   -3.5250 H   0  0  0  0  0  0  0  0  0  0  0  0
   -8.6890   -6.0960   -2.5070 H   0  0  0  0  0  0  0  0  0  0  0  0
   -7.8990   -7.6880   -2.5290 H   0  0  0  0  0  0  0  0  0  0  0  0
   -7.1800   -6.3270   -1.6540 H   0  0  0  0  0  0  0  0  0  0  0  0
  1  2  1  0
  2  3  2  0
  3  4  1  0
  4  5  2  0
  5  6  1  0
  5  7  1  0
  7  8  2  0
  8  9  1  0
  9 10  1  0
 10 11  2  0
 10 12  1  0
 12 13  2  0
 13 14  1  0
 14 15  2  0
 15 16  1  0
 16 17  2  0
 17 18  1  0
 18 19  1  0
 19 20  1  0
 20 21  1  0
 20 22  1  0
 20 23  1  0
  8  2  1  0
 17 12  1  0
  1 24  1  0
  1 25  1  0
  1 26  1  0
  3 27  1  0
  4 28  1  0
  9 29  1  0
 13 30  1  0
 14 31  1  0
 15 32  1  0
 16 33  1  0
 18 34  1  0
 18 35  1  0
 21 36  1  0
 21 37  1  0
 21 38  1  0
 22 39  1  0
 22 40  1  0
 22 41  1  0
 23 42  1  0
 23 43  1  0
 23 44  1  0
A    1
 C1 
A    2
 C2 
A    3
 C3 
A    4
 C4 
A    5
 C5 
A    6
 F1 
A    7
 N1 
A    8
 C6 
A    9
 N2 
A   10
 C7 
A   11
 O1 
A   12
 C8 
A   13
 C9 
A   14
 C10
A   15
 C11
A   16
 C12
A   17
 C13
A   18
 C14
A   19
 O2 
A   20
 C15
A   21
 C16
A   22
 C17
A   23
 C18
A   24
 H1 
A   25
 H2 
A   26
 H3 
A   27
 H4 
A   28
 H5 
A   29
 H6 
A   30
 H7 
A   31
 H8 
A   32
 H9 
A   33
 H10
A   34
 H11
A   35
 H12
A   36
 H13
A   37
 H14
A   38
 H15
A   39
 H16
A   40
 H17
A   41
 H18
A   42
 H19
A   43
 H20
A   44
 H21
M  END
>  <ref_pdb>  (13) 
x0147_0A

>  <ref_mols>  (13) 
x1084_0AS3,x0980_0B

>  <original SMILES>  (13) 
[H]c1c(F)nc(N([H])C(=O)c2c([H])c([H])c([H])c([H])c2C([H])([H])OC(C([H])([H])[H])(C([H])([H])[H])C([H])([H])[H])c(C([H])([H])[H])c1[H]

>  <index>  (13) 
3645

>  <∆∆G>  (13) 
-8.132406

>  <comRMSD>  (13) 
0.542596

>  <N_constrained_atoms>  (13) 
22.0

>  <N_unconstrained_atoms>  (13) 
1.0

>  <LE>  (13) 
0.353583

>  <percent_hybrid>  (13) 
23.0

>  <max_hit_Tanimoto>  (13) 
0.348183

>  <largest_ring>  (13) 
6

>  <N_interactions_kept>  (13) 
2.5

>  <N_interactions_lost>  (13) 
0.0

>  <interaction_uniqueness_metric>  (13) 
0.010368

>  <N_HA>  (13) 
23

>  <N_rotatable_bonds>  (13) 
5

>  <N_interactions>  (13) 
1

>  <N_PAINS>  (13) 
0

>  <UFF_Gibbs>  (13) 
119.886665

>  <strain_per_HA>  (13) 
5.212441

>  <ad_hoc_penalty>  (13) 
-36.75514

>  <cluster>  (13) 
6536

>  <ranked>  (13) 
13.0

>  <merger_rank>  (13) 
1

>  <hydroph_interaction:LEU:127>  (13) 
0

>  <hbond:GLY:128>  (13) 
0

>  <hydroph_interaction:ALA:144>  (13) 
0

>  <hbond:GLY:164>  (13) 
1

>  <hbond:HIS:40>  (13) 
0

>  <pistack:HIS:40>  (13) 
0

>  <hydroph_interaction:LEU:125>  (13) 
0

>  <hydroph_interaction:PHE:170>  (13) 
0

>  <hydroph_interaction:HIS:40>  (13) 
0

>  <pication:HIS:40>  (13) 
0

>  <hbond:THR:142>  (13) 
0

>  <hbond:HIS:161>  (13) 
0

>  <hbond:GLY:166>  (13) 
0

>  <hbond:VAL:162>  (13) 
0

>  <hydroph_interaction:ASN:165>  (13) 
0

>  <hbond:ASN:126>  (13) 
0

>  <hbond:ARG:143>  (13) 
0

>  <hbond:GLU:71>  (13) 
0

>  <saltbridge:HIS:161>  (13) 
0

>  <hbond:ALA:144>  (13) 
0

>  <hbond:GLY:145>  (13) 
0

>  <hbond:GLN:146>  (13) 
0

>  <hbond:CYS:147>  (13) 
0

>  <halogenbond:ASN:126>  (13) 
0

>  <saltbridge:HIS:40>  (13) 
0

>  <hbond:LEU:127>  (13) 
0

>  <hbond:THR:130>  (13) 
0

>  <hydroph_interaction:GLU:71>  (13) 
0

>  <hydroph_interaction:THR:130>  (13) 
0

>  <saltbridge:ARG:143>  (13) 
0

>  <saltbridge:GLU:71>  (13) 
0

>  <hbond:GLY:129>  (13) 
0

>  <halogenbond:CYS:147>  (13) 
0

>  <hydroph_interaction:THR:39>  (13) 
0

>  <hbond:ASN:69>  (13) 
0

>  <hydroph_interaction:THR:132>  (13) 
0

>  <hbond:TYR:122>  (13) 
0

>  <hydroph_interaction:PHE:109>  (13) 
0

>  <hydroph_interaction:PHE:140>  (13) 
0

>  <hbond:PRO:141>  (13) 
0

$$$$
Z1297589043-x1071-0AS2
     RDKit          3D

 35 36  0  0  0  0  0  0  0  0999 V2000
   -5.6460   -0.0660   -2.1760 C   0  0  0  0  0  0  0  0  0  0  0  0
   -6.3380   -1.1440   -1.3630 C   0  0  0  0  0  0  0  0  0  0  0  0
   -6.2390   -0.9760   -0.1570 O   0  0  0  0  0  0  0  0  0  0  0  0
   -7.0170   -2.2060   -2.1430 N   0  0  0  0  0  0  0  0  0  0  0  0
   -6.6930   -3.6130   -1.7720 C   0  0  0  0  0  0  0  0  0  0  0  0
   -6.7620   -4.6010   -2.9530 C   0  0  0  0  0  0  0  0  0  0  0  0
   -6.6030   -4.2870   -4.1290 O   0  0  0  0  0  0  0  0  0  0  0  0
   -7.0400   -5.8820   -2.5120 O   0  0  0  0  0  0  0  0  0  0  0  0
   -6.1820   -6.9620   -2.9810 C   0  0  0  0  0  0  0  0  0  0  0  0
   -5.6280   -7.6040   -1.7210 C   0  0  0  0  0  0  0  0  0  0  0  0
   -6.3690   -8.5720   -0.9720 C   0  0  0  0  0  0  0  0  0  0  0  0
   -5.7990   -9.0960    0.2070 C   0  0  0  0  0  0  0  0  0  0  0  0
   -4.4620   -8.6180    0.6150 C   0  0  0  0  0  0  0  0  0  0  0  0
   -3.6730   -8.9990    1.8160 C   0  0  0  0  0  0  0  0  0  0  0  0
   -2.3950   -8.1870    1.7120 C   0  0  0  0  0  0  0  0  0  0  0  0
   -2.5680   -7.4820    0.5250 C   0  0  0  0  0  0  0  0  0  0  0  0
   -3.7760   -7.7050   -0.1300 C   0  0  0  0  0  0  0  0  0  0  0  0
   -4.3440   -7.1920   -1.3040 C   0  0  0  0  0  0  0  0  0  0  0  0
   -5.2330   -0.4690   -3.1010 H   0  0  0  0  0  0  0  0  0  0  0  0
   -6.3410    0.7410   -2.4340 H   0  0  0  0  0  0  0  0  0  0  0  0
   -4.8230    0.3640   -1.6020 H   0  0  0  0  0  0  0  0  0  0  0  0
   -7.1950   -2.0170   -3.1280 H   0  0  0  0  0  0  0  0  0  0  0  0
   -7.3690   -3.9340   -0.9760 H   0  0  0  0  0  0  0  0  0  0  0  0
   -5.6940   -3.6740   -1.3450 H   0  0  0  0  0  0  0  0  0  0  0  0
   -6.7660   -7.6070   -3.6290 H   0  0  0  0  0  0  0  0  0  0  0  0
   -5.3680   -6.5430   -3.5830 H   0  0  0  0  0  0  0  0  0  0  0  0
   -7.3520   -8.9080   -1.2750 H   0  0  0  0  0  0  0  0  0  0  0  0
   -6.3390   -9.8340    0.8090 H   0  0  0  0  0  0  0  0  0  0  0  0
   -4.1140   -8.8610    2.8080 H   0  0  0  0  0  0  0  0  0  0  0  0
   -3.4280  -10.0610    1.7070 H   0  0  0  0  0  0  0  0  0  0  0  0
   -1.5140   -8.8360    1.6430 H   0  0  0  0  0  0  0  0  0  0  0  0
   -2.2600   -7.5240    2.5710 H   0  0  0  0  0  0  0  0  0  0  0  0
   -2.4860   -6.4180    0.7630 H   0  0  0  0  0  0  0  0  0  0  0  0
   -1.7580   -7.7100   -0.1650 H   0  0  0  0  0  0  0  0  0  0  0  0
   -3.8080   -6.4730   -1.8890 H   0  0  0  0  0  0  0  0  0  0  0  0
  1  2  1  0
  2  3  2  0
  2  4  1  0
  4  5  1  0
  5  6  1  0
  6  7  2  0
  6  8  1  0
  8  9  1  0
  9 10  1  0
 10 11  2  0
 11 12  1  0
 12 13  2  0
 13 14  1  0
 14 15  1  0
 15 16  1  0
 16 17  1  0
 17 18  2  0
 18 10  1  0
 17 13  1  0
  1 19  1  0
  1 20  1  0
  1 21  1  0
  4 22  1  0
  5 23  1  0
  5 24  1  0
  9 25  1  0
  9 26  1  0
 11 27  1  0
 12 28  1  0
 14 29  1  0
 14 30  1  0
 15 31  1  0
 15 32  1  0
 16 33  1  0
 16 34  1  0
 18 35  1  0
A    1
 C1 
A    2
 C2 
A    3
 O1 
A    4
 N1 
A    5
 C3 
A    6
 C4 
A    7
 O2 
A    8
 O3 
A    9
 C5 
A   10
 C6 
A   11
 C7 
A   12
 C8 
A   13
 C9 
A   14
 C10
A   15
 C11
A   16
 C12
A   17
 C13
A   18
 C14
A   19
 H1 
A   20
 H2 
A   21
 H3 
A   22
 H4 
A   23
 H5 
A   24
 H6 
A   25
 H7 
A   26
 H8 
A   27
 H9 
A   28
 H10
A   29
 H11
A   30
 H12
A   31
 H13
A   32
 H14
A   33
 H15
A   34
 H16
A   35
 H17
M  END
>  <ref_pdb>  (14) 
x0147_0A

>  <ref_mols>  (14) 
x1071_0AS2,x1140_0AS4

>  <original SMILES>  (14) 
[H]c1c([H])c2c(c([H])c1C([H])([H])OC(=O)C([H])([H])N([H])C(=O)C([H])([H])[H])C([H])([H])C([H])([H])C2([H])[H]

>  <index>  (14) 
16532

>  <∆∆G>  (14) 
-8.099653

>  <comRMSD>  (14) 
0.519635

>  <N_constrained_atoms>  (14) 
16.0

>  <N_unconstrained_atoms>  (14) 
2.0

>  <LE>  (14) 
0.449981

>  <percent_hybrid>  (14) 
44.0

>  <max_hit_Tanimoto>  (14) 
0.07943

>  <largest_ring>  (14) 
6

>  <N_interactions_kept>  (14) 
1.0

>  <N_interactions_lost>  (14) 
3.5

>  <interaction_uniqueness_metric>  (14) 
0.099002

>  <N_HA>  (14) 
18

>  <N_rotatable_bonds>  (14) 
5

>  <N_interactions>  (14) 
8

>  <N_PAINS>  (14) 
0

>  <UFF_Gibbs>  (14) 
65.788591

>  <strain_per_HA>  (14) 
3.654901

>  <ad_hoc_penalty>  (14) 
-36.402842

>  <cluster>  (14) 
3155

>  <ranked>  (14) 
14.0

>  <merger_rank>  (14) 
1

>  <hydroph_interaction:LEU:127>  (14) 
2

>  <hbond:GLY:128>  (14) 
1

>  <hydroph_interaction:ALA:144>  (14) 
0

>  <hbond:GLY:164>  (14) 
2

>  <hbond:HIS:40>  (14) 
0

>  <pistack:HIS:40>  (14) 
1

>  <hydroph_interaction:LEU:125>  (14) 
0

>  <hydroph_interaction:PHE:170>  (14) 
1

>  <hydroph_interaction:HIS:40>  (14) 
1

>  <pication:HIS:40>  (14) 
0

>  <hbond:THR:142>  (14) 
0

>  <hbond:HIS:161>  (14) 
0

>  <hbond:GLY:166>  (14) 
0

>  <hbond:VAL:162>  (14) 
0

>  <hydroph_interaction:ASN:165>  (14) 
0

>  <hbond:ASN:126>  (14) 
0

>  <hbond:ARG:143>  (14) 
0

>  <hbond:GLU:71>  (14) 
0

>  <saltbridge:HIS:161>  (14) 
0

>  <hbond:ALA:144>  (14) 
0

>  <hbond:GLY:145>  (14) 
0

>  <hbond:GLN:146>  (14) 
0

>  <hbond:CYS:147>  (14) 
0

>  <halogenbond:ASN:126>  (14) 
0

>  <saltbridge:HIS:40>  (14) 
0

>  <hbond:LEU:127>  (14) 
0

>  <hbond:THR:130>  (14) 
0

>  <hydroph_interaction:GLU:71>  (14) 
0

>  <hydroph_interaction:THR:130>  (14) 
0

>  <saltbridge:ARG:143>  (14) 
0

>  <saltbridge:GLU:71>  (14) 
0

>  <hbond:GLY:129>  (14) 
0

>  <halogenbond:CYS:147>  (14) 
0

>  <hydroph_interaction:THR:39>  (14) 
0

>  <hbond:ASN:69>  (14) 
0

>  <hydroph_interaction:THR:132>  (14) 
0

>  <hbond:TYR:122>  (14) 
0

>  <hydroph_interaction:PHE:109>  (14) 
0

>  <hydroph_interaction:PHE:140>  (14) 
0

>  <hbond:PRO:141>  (14) 
0

$$$$
Z2174750527-x1919-0A
     RDKit          3D

 49 51  0  0  0  0  0  0  0  0999 V2000
   -6.3510   -4.0530   -3.9020 O   0  0  0  0  0  0  0  0  0  0  0  0
   -6.7070   -5.0340   -2.9350 C   0  0  0  0  0  0  0  0  0  0  0  0
   -6.9600   -4.4220   -1.5600 C   0  0  0  0  0  0  0  0  0  0  0  0
   -7.8730   -3.1450   -1.5890 C   0  0  0  0  0  0  0  0  0  0  0  0
   -7.1480   -1.9670   -0.9280 C   0  0  0  0  0  0  0  0  0  0  0  0
   -7.2920   -0.7540   -1.6750 N   0  0  0  0  0  0  0  0  0  0  0  0
   -6.4400    0.2500   -1.2650 C   0  0  0  0  0  0  0  0  0  0  0  0
   -5.2400    0.2490   -1.5330 O   0  0  0  0  0  0  0  0  0  0  0  0
   -7.1230    1.1950   -0.5540 O   0  0  0  0  0  0  0  0  0  0  0  0
   -6.4120    1.8660    0.5110 C   0  0  0  0  0  0  0  0  0  0  0  0
   -6.1360    3.3810    0.4520 C   0  0  0  0  0  0  0  0  0  0  0  0
   -5.3830    3.8420   -0.7570 C   0  0  0  0  0  0  0  0  0  0  0  0
   -5.0820    5.1930   -0.9020 C   0  0  0  0  0  0  0  0  0  0  0  0
   -5.5310    6.2010    0.1820 C   0  0  0  0  0  0  0  0  0  0  0  0
   -6.2360    5.6850    1.2830 C   0  0  0  0  0  0  0  0  0  0  0  0
   -6.5330    4.3160    1.4210 C   0  0  0  0  0  0  0  0  0  0  0  0
   -6.8520   -6.4170   -3.0920 N   0  0  0  0  0  0  0  0  0  0  0  0
   -5.7880   -7.2560   -3.2850 C   0  0  0  0  0  0  0  0  0  0  0  0
   -5.3630   -7.7470   -2.0480 C   0  0  0  0  0  0  0  0  0  0  0  0
   -6.0970   -8.7450   -1.3610 C   0  0  0  0  0  0  0  0  0  0  0  0
   -5.6870   -9.2480   -0.1070 C   0  0  0  0  0  0  0  0  0  0  0  0
   -4.5350   -8.7720    0.5070 C   0  0  0  0  0  0  0  0  0  0  0  0
   -3.8300   -9.2100    2.0200 S   0  0  0  0  0  0  0  0  0  0  0  0
   -2.5500   -8.1000    1.8130 C   0  0  0  0  0  0  0  0  0  0  0  0
   -2.5610   -7.3560    0.6440 C   0  0  0  0  0  0  0  0  0  0  0  0
   -3.7890   -7.8060   -0.1160 C   0  0  0  0  0  0  0  0  0  0  0  0
   -4.1990   -7.2540   -1.4600 C   0  0  0  0  0  0  0  0  0  0  0  0
   -5.9810   -4.1600   -1.1550 H   0  0  0  0  0  0  0  0  0  0  0  0
   -7.4300   -5.1650   -0.9090 H   0  0  0  0  0  0  0  0  0  0  0  0
   -8.1190   -2.8950   -2.6270 H   0  0  0  0  0  0  0  0  0  0  0  0
   -8.8230   -3.4230   -1.1200 H   0  0  0  0  0  0  0  0  0  0  0  0
   -7.4210   -1.7100    0.1000 H   0  0  0  0  0  0  0  0  0  0  0  0
   -6.0920   -2.1860   -0.9360 H   0  0  0  0  0  0  0  0  0  0  0  0
   -7.3590   -0.8190   -2.6980 H   0  0  0  0  0  0  0  0  0  0  0  0
   -5.4560    1.3830    0.7520 H   0  0  0  0  0  0  0  0  0  0  0  0
   -7.0370    1.7270    1.4030 H   0  0  0  0  0  0  0  0  0  0  0  0
   -5.0680    3.1390   -1.5210 H   0  0  0  0  0  0  0  0  0  0  0  0
   -4.5340    5.5310   -1.7780 H   0  0  0  0  0  0  0  0  0  0  0  0
   -5.3110    7.2600    0.0950 H   0  0  0  0  0  0  0  0  0  0  0  0
   -6.5650    6.3650    2.0610 H   0  0  0  0  0  0  0  0  0  0  0  0
   -7.0790    3.9760    2.2950 H   0  0  0  0  0  0  0  0  0  0  0  0
   -7.7440   -6.8460   -2.8710 H   0  0  0  0  0  0  0  0  0  0  0  0
   -5.0790   -6.6950   -3.8860 H   0  0  0  0  0  0  0  0  0  0  0  0
   -6.0900   -8.0970   -3.9080 H   0  0  0  0  0  0  0  0  0  0  0  0
   -7.0080   -9.1380   -1.8130 H   0  0  0  0  0  0  0  0  0  0  0  0
   -6.3000  -10.0150    0.3620 H   0  0  0  0  0  0  0  0  0  0  0  0
   -1.7210   -7.9020    2.4930 H   0  0  0  0  0  0  0  0  0  0  0  0
   -1.8100   -6.6210    0.4020 H   0  0  0  0  0  0  0  0  0  0  0  0
   -3.6160   -6.5000   -1.9550 H   0  0  0  0  0  0  0  0  0  0  0  0
  1  2  2  0
  2  3  1  0
  3  4  1  0
  4  5  1  0
  5  6  1  0
  6  7  1  0
  7  8  2  0
  7  9  1  0
  9 10  1  0
 10 11  1  0
 11 12  2  0
 12 13  1  0
 13 14  2  0
 14 15  1  0
 15 16  2  0
  2 17  1  0
 17 18  1  0
 18 19  1  0
 19 20  2  0
 20 21  1  0
 21 22  2  0
 22 23  1  0
 23 24  1  0
 24 25  2  0
 25 26  1  0
 26 27  2  0
 16 11  1  0
 27 19  1  0
 26 22  1  0
  3 28  1  0
  3 29  1  0
  4 30  1  0
  4 31  1  0
  5 32  1  0
  5 33  1  0
  6 34  1  0
 10 35  1  0
 10 36  1  0
 12 37  1  0
 13 38  1  0
 14 39  1  0
 15 40  1  0
 16 41  1  0
 17 42  1  0
 18 43  1  0
 18 44  1  0
 20 45  1  0
 21 46  1  0
 24 47  1  0
 25 48  1  0
 27 49  1  0
A    1
 O1 
A    2
 C1 
A    3
 C2 
A    4
 C3 
A    5
 C4 
A    6
 N1 
A    7
 C5 
A    8
 O2 
A    9
 O3 
A   10
 C6 
A   11
 C7 
A   12
 C8 
A   13
 C9 
A   14
 C10
A   15
 C11
A   16
 C12
A   17
 N2 
A   18
 C13
A   19
 C14
A   20
 C15
A   21
 C16
A   22
 C17
A   23
 S1 
A   24
 C18
A   25
 C19
A   26
 C20
A   27
 C21
A   28
 H1 
A   29
 H2 
A   30
 H3 
A   31
 H4 
A   32
 H5 
A   33
 H6 
A   34
 H7 
A   35
 H8 
A   36
 H9 
A   37
 H10
A   38
 H11
A   39
 H12
A   40
 H13
A   41
 H14
A   42
 H15
A   43
 H16
A   44
 H17
A   45
 H18
A   46
 H19
A   47
 H20
A   48
 H21
A   49
 H22
M  END
>  <ref_pdb>  (15) 
x0147_0A

>  <ref_mols>  (15) 
x1919_0A,x1285_0BS1

>  <original SMILES>  (15) 
[H]c1sc2c([H])c([H])c(C([H])([H])N([H])C(=O)C([H])([H])C([H])([H])C([H])([H])N([H])C(=O)OC([H])([H])c3c([H])c([H])c([H])c([H])c3[H])c([H])c2c1[H]

>  <index>  (15) 
12234

>  <∆∆G>  (15) 
-7.255782

>  <comRMSD>  (15) 
0.563706

>  <N_constrained_atoms>  (15) 
25.0

>  <N_unconstrained_atoms>  (15) 
2.0

>  <LE>  (15) 
0.268733

>  <percent_hybrid>  (15) 
24.0

>  <max_hit_Tanimoto>  (15) 
0.187345

>  <largest_ring>  (15) 
6

>  <N_interactions_kept>  (15) 
3.5

>  <N_interactions_lost>  (15) 
2.0

>  <interaction_uniqueness_metric>  (15) 
0.076475

>  <N_HA>  (15) 
27

>  <N_rotatable_bonds>  (15) 
8

>  <N_interactions>  (15) 
7

>  <N_PAINS>  (15) 
0

>  <UFF_Gibbs>  (15) 
137.420069

>  <strain_per_HA>  (15) 
5.089613

>  <ad_hoc_penalty>  (15) 
-35.906146

>  <cluster>  (15) 
4328

>  <ranked>  (15) 
15.0

>  <merger_rank>  (15) 
1

>  <hydroph_interaction:LEU:127>  (15) 
3

>  <hbond:GLY:128>  (15) 
0

>  <hydroph_interaction:ALA:144>  (15) 
0

>  <hbond:GLY:164>  (15) 
2

>  <hbond:HIS:40>  (15) 
0

>  <pistack:HIS:40>  (15) 
1

>  <hydroph_interaction:LEU:125>  (15) 
1

>  <hydroph_interaction:PHE:170>  (15) 
0

>  <hydroph_interaction:HIS:40>  (15) 
0

>  <pication:HIS:40>  (15) 
0

>  <hbond:THR:142>  (15) 
0

>  <hbond:HIS:161>  (15) 
0

>  <hbond:GLY:166>  (15) 
0

>  <hbond:VAL:162>  (15) 
0

>  <hydroph_interaction:ASN:165>  (15) 
0

>  <hbond:ASN:126>  (15) 
0

>  <hbond:ARG:143>  (15) 
0

>  <hbond:GLU:71>  (15) 
0

>  <saltbridge:HIS:161>  (15) 
0

>  <hbond:ALA:144>  (15) 
0

>  <hbond:GLY:145>  (15) 
0

>  <hbond:GLN:146>  (15) 
0

>  <hbond:CYS:147>  (15) 
0

>  <halogenbond:ASN:126>  (15) 
0

>  <saltbridge:HIS:40>  (15) 
0

>  <hbond:LEU:127>  (15) 
0

>  <hbond:THR:130>  (15) 
0

>  <hydroph_interaction:GLU:71>  (15) 
0

>  <hydroph_interaction:THR:130>  (15) 
0

>  <saltbridge:ARG:143>  (15) 
0

>  <saltbridge:GLU:71>  (15) 
0

>  <hbond:GLY:129>  (15) 
0

>  <halogenbond:CYS:147>  (15) 
0

>  <hydroph_interaction:THR:39>  (15) 
0

>  <hbond:ASN:69>  (15) 
0

>  <hydroph_interaction:THR:132>  (15) 
0

>  <hbond:TYR:122>  (15) 
0

>  <hydroph_interaction:PHE:109>  (15) 
0

>  <hydroph_interaction:PHE:140>  (15) 
0

>  <hbond:PRO:141>  (15) 
0

$$$$
Z5426942972-x0771-1AS2
     RDKit          3D

 33 34  0  0  0  0  0  0  0  0999 V2000
   -6.2990  -10.5410   -5.8920 C   0  0  0  0  0  0  0  0  0  0  0  0
   -7.0600   -9.8560   -6.9580 C   0  0  0  0  0  0  0  0  0  0  0  0
   -6.7590   -8.6260   -7.3440 C   0  0  0  0  0  0  0  0  0  0  0  0
   -7.0220   -7.4440   -6.5490 C   0  0  0  0  0  0  0  0  0  0  0  0
   -7.2880   -7.5490   -5.3570 O   0  0  0  0  0  0  0  0  0  0  0  0
   -6.8870   -6.3360   -7.3900 O   0  0  0  0  0  0  0  0  0  0  0  0
   -7.9300   -5.4050   -7.4260 C   0  0  0  0  0  0  0  0  0  0  0  0
   -7.7140   -4.1610   -8.0340 C   0  0  0  0  0  0  0  0  0  0  0  0
   -8.7390   -3.2410   -8.0520 C   0  0  0  0  0  0  0  0  0  0  0  0
   -9.9790   -3.5260   -7.4880 C   0  0  0  0  0  0  0  0  0  0  0  0
  -10.9500   -2.5770   -7.5300 O   0  0  0  0  0  0  0  0  0  0  0  0
  -11.7930   -2.6360   -6.3660 C   0  0  0  0  0  0  0  0  0  0  0  0
  -12.8680   -1.5740   -6.5810 C   0  0  0  0  0  0  0  0  0  0  0  0
  -10.9690   -2.2640   -5.1220 C   0  0  0  0  0  0  0  0  0  0  0  0
  -12.4750   -4.0070   -6.2290 C   0  0  0  0  0  0  0  0  0  0  0  0
  -11.5470   -5.0620   -6.3040 C   0  0  0  0  0  0  0  0  0  0  0  0
  -11.8310   -6.1890   -5.9100 O   0  0  0  0  0  0  0  0  0  0  0  0
  -10.1650   -4.7720   -6.9050 C   0  0  0  0  0  0  0  0  0  0  0  0
   -9.1500   -5.7200   -6.8620 C   0  0  0  0  0  0  0  0  0  0  0  0
   -6.9520  -10.8250   -5.0710 H   0  0  0  0  0  0  0  0  0  0  0  0
   -5.5150   -9.8810   -5.5230 H   0  0  0  0  0  0  0  0  0  0  0  0
   -5.8330  -11.4420   -6.2980 H   0  0  0  0  0  0  0  0  0  0  0  0
   -6.7550   -3.9230   -8.4800 H   0  0  0  0  0  0  0  0  0  0  0  0
   -8.5730   -2.2720   -8.5190 H   0  0  0  0  0  0  0  0  0  0  0  0
  -13.0230   -1.4100   -7.6540 H   0  0  0  0  0  0  0  0  0  0  0  0
  -13.8440   -1.7350   -6.1410 H   0  0  0  0  0  0  0  0  0  0  0  0
  -12.5240   -0.6210   -6.1580 H   0  0  0  0  0  0  0  0  0  0  0  0
  -11.1040   -3.0110   -4.3320 H   0  0  0  0  0  0  0  0  0  0  0  0
   -9.8950   -2.2110   -5.3440 H   0  0  0  0  0  0  0  0  0  0  0  0
  -11.2700   -1.2870   -4.7260 H   0  0  0  0  0  0  0  0  0  0  0  0
  -13.0100   -4.0730   -5.2730 H   0  0  0  0  0  0  0  0  0  0  0  0
  -13.1950   -4.1670   -7.0400 H   0  0  0  0  0  0  0  0  0  0  0  0
   -9.3090   -6.6880   -6.3960 H   0  0  0  0  0  0  0  0  0  0  0  0
  1  2  1  0
  2  3  3  0
  3  4  1  0
  4  5  2  0
  4  6  1  0
  6  7  1  0
  7  8  2  0
  8  9  1  0
  9 10  2  0
 10 11  1  0
 11 12  1  0
 12 13  1  0
 12 14  1  0
 12 15  1  0
 15 16  1  0
 16 17  2  0
 16 18  1  0
 18 19  2  0
 19  7  1  0
 18 10  1  0
  1 20  1  0
  1 21  1  0
  1 22  1  0
  8 23  1  0
  9 24  1  0
 13 25  1  0
 13 26  1  0
 13 27  1  0
 14 28  1  0
 14 29  1  0
 14 30  1  0
 15 31  1  0
 15 32  1  0
 19 33  1  0
A    1
 C1 
A    2
 C2 
A    3
 C3 
A    4
 C4 
A    5
 O1 
A    6
 O2 
A    7
 C5 
A    8
 C6 
A    9
 C7 
A   10
 C8 
A   11
 O3 
A   12
 C9 
A   13
 C10
A   14
 C11
A   15
 C12
A   16
 C13
A   17
 O4 
A   18
 C14
A   19
 C15
A   20
 H1 
A   21
 H2 
A   22
 H3 
A   23
 H4 
A   24
 H5 
A   25
 H6 
A   26
 H7 
A   27
 H8 
A   28
 H9 
A   29
 H10
A   30
 H11
A   31
 H12
A   32
 H13
A   33
 H14
M  END
>  <ref_pdb>  (16) 
x0147_0A

>  <ref_mols>  (16) 
x0771_1AS2,x1604_0A

>  <original SMILES>  (16) 
[H]c1c([H])c2c(c([H])c1OC(=O)C#CC([H])([H])[H])C(=O)C([H])([H])C(C([H])([H])[H])(C([H])([H])[H])O2

>  <index>  (16) 
13985

>  <∆∆G>  (16) 
-7.352572

>  <comRMSD>  (16) 
0.641262

>  <N_constrained_atoms>  (16) 
19.0

>  <N_unconstrained_atoms>  (16) 
1.0

>  <LE>  (16) 
0.367629

>  <percent_hybrid>  (16) 
23.0

>  <max_hit_Tanimoto>  (16) 
0.360624

>  <largest_ring>  (16) 
6

>  <N_interactions_kept>  (16) 
2.0

>  <N_interactions_lost>  (16) 
1.0

>  <interaction_uniqueness_metric>  (16) 
0.151726

>  <N_HA>  (16) 
19

>  <N_rotatable_bonds>  (16) 
3

>  <N_interactions>  (16) 
3

>  <N_PAINS>  (16) 
0

>  <UFF_Gibbs>  (16) 
185.011034

>  <strain_per_HA>  (16) 
9.737372

>  <ad_hoc_penalty>  (16) 
-35.670635

>  <cluster>  (16) 
3831

>  <ranked>  (16) 
16.0

>  <merger_rank>  (16) 
1

>  <hydroph_interaction:LEU:127>  (16) 
0

>  <hbond:GLY:128>  (16) 
0

>  <hydroph_interaction:ALA:144>  (16) 
1

>  <hbond:GLY:164>  (16) 
0

>  <hbond:HIS:40>  (16) 
0

>  <pistack:HIS:40>  (16) 
0

>  <hydroph_interaction:LEU:125>  (16) 
0

>  <hydroph_interaction:PHE:170>  (16) 
0

>  <hydroph_interaction:HIS:40>  (16) 
0

>  <pication:HIS:40>  (16) 
0

>  <hbond:THR:142>  (16) 
0

>  <hbond:HIS:161>  (16) 
0

>  <hbond:GLY:166>  (16) 
1

>  <hbond:VAL:162>  (16) 
0

>  <hydroph_interaction:ASN:165>  (16) 
0

>  <hbond:ASN:126>  (16) 
0

>  <hbond:ARG:143>  (16) 
0

>  <hbond:GLU:71>  (16) 
0

>  <saltbridge:HIS:161>  (16) 
1

>  <hbond:ALA:144>  (16) 
0

>  <hbond:GLY:145>  (16) 
0

>  <hbond:GLN:146>  (16) 
0

>  <hbond:CYS:147>  (16) 
0

>  <halogenbond:ASN:126>  (16) 
0

>  <saltbridge:HIS:40>  (16) 
0

>  <hbond:LEU:127>  (16) 
0

>  <hbond:THR:130>  (16) 
0

>  <hydroph_interaction:GLU:71>  (16) 
0

>  <hydroph_interaction:THR:130>  (16) 
0

>  <saltbridge:ARG:143>  (16) 
0

>  <saltbridge:GLU:71>  (16) 
0

>  <hbond:GLY:129>  (16) 
0

>  <halogenbond:CYS:147>  (16) 
0

>  <hydroph_interaction:THR:39>  (16) 
0

>  <hbond:ASN:69>  (16) 
0

>  <hydroph_interaction:THR:132>  (16) 
0

>  <hbond:TYR:122>  (16) 
0

>  <hydroph_interaction:PHE:109>  (16) 
0

>  <hydroph_interaction:PHE:140>  (16) 
0

>  <hbond:PRO:141>  (16) 
0

$$$$
Z1022472138-x1071-0A
     RDKit          3D

 44 45  0  0  0  0  0  0  0  0999 V2000
   -5.8420   -0.0750   -2.3540 C   0  0  0  0  0  0  0  0  0  0  0  0
   -6.9120   -0.7600   -1.1230 S   0  0  0  0  0  6  0  0  0  0  0  0
   -6.0560   -0.9350    0.0070 O   0  0  0  0  0  0  0  0  0  0  0  0
   -8.0760    0.0930   -1.0200 O   0  0  0  0  0  0  0  0  0  0  0  0
   -7.4270   -2.3590   -1.7600 C   0  0  0  0  0  0  0  0  0  0  0  0
   -6.2260   -3.2350   -2.1720 C   0  0  0  0  0  0  0  0  0  0  0  0
   -6.4450   -4.5460   -2.8580 C   0  0  0  0  0  0  0  0  0  0  0  0
   -6.6850   -4.4990   -4.0700 O   0  0  0  0  0  0  0  0  0  0  0  0
   -6.3430   -5.7170   -2.1690 N   0  0  0  0  0  0  0  0  0  0  0  0
   -6.5070   -5.7050   -0.7050 C   0  0  0  0  0  0  0  0  0  0  0  0
   -6.4140   -7.0390    0.0300 C   0  0  0  0  0  0  0  0  0  0  0  0
   -5.1400   -7.7780   -0.2590 C   0  0  0  0  0  0  0  0  0  0  0  0
   -5.0800   -8.9590    0.5270 C   0  0  0  0  0  0  0  0  0  0  0  0
   -4.6430   -8.8020    1.8670 C   0  0  0  0  0  0  0  0  0  0  0  0
   -3.3730   -8.2730    2.0560 C   0  0  0  0  0  0  0  0  0  0  0  0
   -2.9640   -7.4260    1.0480 C   0  0  0  0  0  0  0  0  0  0  0  0
   -4.0540   -6.9330    0.0770 C   0  0  0  0  0  0  0  0  0  0  0  0
   -4.9550   -7.9090   -1.8090 C   0  0  0  0  0  0  0  0  0  0  0  0
   -5.8570   -7.0130   -2.7290 C   0  0  0  0  0  0  0  0  0  0  0  0
   -6.4220    0.6720   -2.8940 H   0  0  0  0  0  0  0  0  0  0  0  0
   -5.0010    0.4150   -1.8570 H   0  0  0  0  0  0  0  0  0  0  0  0
   -5.4580   -0.8590   -3.0140 H   0  0  0  0  0  0  0  0  0  0  0  0
   -8.1130   -2.1920   -2.5980 H   0  0  0  0  0  0  0  0  0  0  0  0
   -7.9980   -2.8660   -0.9720 H   0  0  0  0  0  0  0  0  0  0  0  0
   -5.6670   -2.6170   -2.8810 H   0  0  0  0  0  0  0  0  0  0  0  0
   -5.5770   -3.3880   -1.3130 H   0  0  0  0  0  0  0  0  0  0  0  0
   -7.4420   -5.2000   -0.4630 H   0  0  0  0  0  0  0  0  0  0  0  0
   -5.7150   -5.0780   -0.3060 H   0  0  0  0  0  0  0  0  0  0  0  0
   -7.2520   -7.6690   -0.2730 H   0  0  0  0  0  0  0  0  0  0  0  0
   -6.4980   -6.8860    1.1050 H   0  0  0  0  0  0  0  0  0  0  0  0
   -5.9540   -9.6000    0.4470 H   0  0  0  0  0  0  0  0  0  0  0  0
   -4.2830   -9.5300    0.0500 H   0  0  0  0  0  0  0  0  0  0  0  0
   -5.3780   -8.1880    2.4060 H   0  0  0  0  0  0  0  0  0  0  0  0
   -4.6620   -9.7820    2.3600 H   0  0  0  0  0  0  0  0  0  0  0  0
   -2.6520   -9.0950    2.1690 H   0  0  0  0  0  0  0  0  0  0  0  0
   -3.3460   -7.7180    3.0000 H   0  0  0  0  0  0  0  0  0  0  0  0
   -2.4200   -6.5800    1.4850 H   0  0  0  0  0  0  0  0  0  0  0  0
   -2.2730   -7.9390    0.3700 H   0  0  0  0  0  0  0  0  0  0  0  0
   -3.6840   -6.5680   -0.8710 H   0  0  0  0  0  0  0  0  0  0  0  0
   -4.5030   -6.0550    0.5450 H   0  0  0  0  0  0  0  0  0  0  0  0
   -3.9090   -7.6420   -2.0330 H   0  0  0  0  0  0  0  0  0  0  0  0
   -4.9910   -8.9470   -2.1350 H   0  0  0  0  0  0  0  0  0  0  0  0
   -5.3130   -6.7580   -3.6480 H   0  0  0  0  0  0  0  0  0  0  0  0
   -6.7260   -7.6010   -3.0330 H   0  0  0  0  0  0  0  0  0  0  0  0
  1  2  1  0
  2  3  2  0
  2  4  2  0
  2  5  1  0
  5  6  1  0
  6  7  1  0
  7  8  2  0
  7  9  1  0
  9 10  1  0
 10 11  1  0
 11 12  1  0
 12 13  1  0
 13 14  1  0
 14 15  1  0
 15 16  1  0
 16 17  1  0
 12 18  1  0
 18 19  1  0
 19  9  1  0
 17 12  1  0
  1 20  1  0
  1 21  1  0
  1 22  1  0
  5 23  1  0
  5 24  1  0
  6 25  1  0
  6 26  1  0
 10 27  1  0
 10 28  1  0
 11 29  1  0
 11 30  1  0
 13 31  1  0
 13 32  1  0
 14 33  1  0
 14 34  1  0
 15 35  1  0
 15 36  1  0
 16 37  1  0
 16 38  1  0
 17 39  1  0
 17 40  1  0
 18 41  1  0
 18 42  1  0
 19 43  1  0
 19 44  1  0
A    1
 C1 
A    2
 S1 
A    3
 O1 
A    4
 O2 
A    5
 C2 
A    6
 C3 
A    7
 C4 
A    8
 O3 
A    9
 N1 
A   10
 C5 
A   11
 C6 
A   12
 C7 
A   13
 C8 
A   14
 C9 
A   15
 C10
A   16
 C11
A   17
 C12
A   18
 C13
A   19
 C14
A   20
 H1 
A   21
 H2 
A   22
 H3 
A   23
 H4 
A   24
 H5 
A   25
 H6 
A   26
 H7 
A   27
 H8 
A   28
 H9 
A   29
 H10
A   30
 H11
A   31
 H12
A   32
 H13
A   33
 H14
A   34
 H15
A   35
 H16
A   36
 H17
A   37
 H18
A   38
 H19
A   39
 H20
A   40
 H21
A   41
 H22
A   42
 H23
A   43
 H24
A   44
 H25
M  END
>  <ref_pdb>  (17) 
x0147_0A

>  <ref_mols>  (17) 
x1071_0A,x1083_0A

>  <original SMILES>  (17) 
[H]C([H])(C(=O)N1C([H])([H])C([H])([H])C2(C([H])([H])C1([H])[H])C([H])([H])C([H])([H])C([H])([H])C([H])([H])C2([H])[H])C([H])([H])S(=O)(=O)C([H])([H])[H]

>  <index>  (17) 
14394

>  <∆∆G>  (17) 
-7.283436

>  <comRMSD>  (17) 
0.838195

>  <N_constrained_atoms>  (17) 
22.0

>  <N_unconstrained_atoms>  (17) 
0.0

>  <LE>  (17) 
0.331065

>  <percent_hybrid>  (17) 
43.0

>  <max_hit_Tanimoto>  (17) 
0.307125

>  <largest_ring>  (17) 
6

>  <N_interactions_kept>  (17) 
4.0

>  <N_interactions_lost>  (17) 
1.0

>  <interaction_uniqueness_metric>  (17) 
0.039872

>  <N_HA>  (17) 
19

>  <N_rotatable_bonds>  (17) 
4

>  <N_interactions>  (17) 
4

>  <N_PAINS>  (17) 
0

>  <UFF_Gibbs>  (17) 
207.446095

>  <strain_per_HA>  (17) 
10.918158

>  <ad_hoc_penalty>  (17) 
-35.603585

>  <cluster>  (17) 
1123

>  <ranked>  (17) 
17.0

>  <merger_rank>  (17) 
2

>  <hydroph_interaction:LEU:127>  (17) 
2

>  <hbond:GLY:128>  (17) 
0

>  <hydroph_interaction:ALA:144>  (17) 
0

>  <hbond:GLY:164>  (17) 
1

>  <hbond:HIS:40>  (17) 
0

>  <pistack:HIS:40>  (17) 
0

>  <hydroph_interaction:LEU:125>  (17) 
0

>  <hydroph_interaction:PHE:170>  (17) 
0

>  <hydroph_interaction:HIS:40>  (17) 
1

>  <pication:HIS:40>  (17) 
0

>  <hbond:THR:142>  (17) 
0

>  <hbond:HIS:161>  (17) 
0

>  <hbond:GLY:166>  (17) 
0

>  <hbond:VAL:162>  (17) 
0

>  <hydroph_interaction:ASN:165>  (17) 
0

>  <hbond:ASN:126>  (17) 
0

>  <hbond:ARG:143>  (17) 
0

>  <hbond:GLU:71>  (17) 
0

>  <saltbridge:HIS:161>  (17) 
0

>  <hbond:ALA:144>  (17) 
0

>  <hbond:GLY:145>  (17) 
0

>  <hbond:GLN:146>  (17) 
0

>  <hbond:CYS:147>  (17) 
0

>  <halogenbond:ASN:126>  (17) 
0

>  <saltbridge:HIS:40>  (17) 
0

>  <hbond:LEU:127>  (17) 
0

>  <hbond:THR:130>  (17) 
0

>  <hydroph_interaction:GLU:71>  (17) 
0

>  <hydroph_interaction:THR:130>  (17) 
0

>  <saltbridge:ARG:143>  (17) 
0

>  <saltbridge:GLU:71>  (17) 
0

>  <hbond:GLY:129>  (17) 
0

>  <halogenbond:CYS:147>  (17) 
0

>  <hydroph_interaction:THR:39>  (17) 
0

>  <hbond:ASN:69>  (17) 
0

>  <hydroph_interaction:THR:132>  (17) 
0

>  <hbond:TYR:122>  (17) 
0

>  <hydroph_interaction:PHE:109>  (17) 
0

>  <hydroph_interaction:PHE:140>  (17) 
0

>  <hbond:PRO:141>  (17) 
0

$$$$
Z3053338060-x1329-0AS2
     RDKit          3D

 47 49  0  0  0  0  0  0  0  0999 V2000
   -3.9810   -7.3590    1.5680 C   0  0  0  0  0  0  0  0  0  0  0  0
   -5.3430   -7.7100    1.3260 O   0  0  0  0  0  0  0  0  0  0  0  0
   -5.5090   -8.6980    0.3240 C   0  0  0  0  0  0  0  0  0  0  0  0
   -5.0240   -9.8180    0.4070 O   0  0  0  0  0  0  0  0  0  0  0  0
   -6.3320   -8.2880   -0.8670 C   0  0  2  0  0  0  0  0  0  0  0  0
   -6.4830   -9.2090   -1.9160 C   0  0  0  0  0  0  0  0  0  0  0  0
   -6.5260   -8.7150   -3.2170 C   0  0  0  0  0  0  0  0  0  0  0  0
   -7.2550   -7.6310   -3.3620 N   0  0  0  0  0  0  0  0  0  0  0  0
   -7.7890   -7.4190   -4.5680 C   0  0  0  0  0  0  0  0  0  0  0  0
   -9.0870   -7.7920   -5.0460 O   0  0  0  0  0  0  0  0  0  0  0  0
   -6.9010   -6.7060   -5.5460 C   0  0  0  0  0  0  0  0  0  0  0  0
   -7.2840   -6.8450   -6.8910 C   0  0  0  0  0  0  0  0  0  0  0  0
   -7.6650   -5.5160   -7.4850 C   0  0  0  0  0  0  0  0  0  0  0  0
   -6.8810   -4.9580   -8.4610 N   0  0  0  0  0  0  0  0  0  0  0  0
   -7.5370   -3.8020   -8.7090 N   0  0  0  0  0  0  0  0  0  0  0  0
   -8.6240   -3.6580   -7.9600 C   0  0  0  0  0  0  0  0  0  0  0  0
   -9.6120   -2.5460   -7.9160 C   0  0  0  0  0  0  0  0  0  0  0  0
  -10.6840   -2.6170   -7.0460 C   0  0  0  0  0  0  0  0  0  0  0  0
  -10.7730   -3.7770   -6.2310 C   0  0  0  0  0  0  0  0  0  0  0  0
   -9.7410   -4.9250   -6.2810 C   0  0  0  0  0  0  0  0  0  0  0  0
   -8.7350   -4.7330   -7.1770 C   0  0  0  0  0  0  0  0  0  0  0  0
   -6.8620   -6.4930   -2.4700 C   0  0  0  0  0  0  0  0  0  0  0  0
   -5.8400   -6.9440   -1.4380 C   0  0  2  0  0  0  0  0  0  0  0  0
   -4.3900   -7.0550   -1.9130 C   0  0  0  0  0  0  0  0  0  0  0  0
   -3.8620   -6.9220    2.5650 H   0  0  0  0  0  0  0  0  0  0  0  0
   -3.3140   -8.2210    1.4700 H   0  0  0  0  0  0  0  0  0  0  0  0
   -3.6800   -6.6090    0.8300 H   0  0  0  0  0  0  0  0  0  0  0  0
   -7.3380   -8.0710   -0.4940 H   0  0  0  0  0  0  0  0  0  0  0  0
   -5.6410   -9.9170   -1.9080 H   0  0  0  0  0  0  0  0  0  0  0  0
   -7.3750   -9.8170   -1.7380 H   0  0  0  0  0  0  0  0  0  0  0  0
   -6.9050   -9.5180   -3.8600 H   0  0  0  0  0  0  0  0  0  0  0  0
   -5.5180   -8.4570   -3.5600 H   0  0  0  0  0  0  0  0  0  0  0  0
   -5.8990   -7.1400   -5.4520 H   0  0  0  0  0  0  0  0  0  0  0  0
   -6.8010   -5.6830   -5.1700 H   0  0  0  0  0  0  0  0  0  0  0  0
   -6.5550   -7.3230   -7.5170 H   0  0  0  0  0  0  0  0  0  0  0  0
   -8.0970   -7.5530   -6.9560 H   0  0  0  0  0  0  0  0  0  0  0  0
   -7.2940   -3.0700   -9.3760 H   0  0  0  0  0  0  0  0  0  0  0  0
   -9.4920   -1.6770   -8.5690 H   0  0  0  0  0  0  0  0  0  0  0  0
  -11.4670   -1.8610   -6.9330 H   0  0  0  0  0  0  0  0  0  0  0  0
  -11.5710   -3.9570   -5.5040 H   0  0  0  0  0  0  0  0  0  0  0  0
   -9.8940   -5.7760   -5.6130 H   0  0  0  0  0  0  0  0  0  0  0  0
   -7.7610   -6.1030   -1.9780 H   0  0  0  0  0  0  0  0  0  0  0  0
   -6.4480   -5.6830   -3.0850 H   0  0  0  0  0  0  0  0  0  0  0  0
   -5.8780   -6.2350   -0.6000 H   0  0  0  0  0  0  0  0  0  0  0  0
   -4.1930   -8.0430   -2.3440 H   0  0  0  0  0  0  0  0  0  0  0  0
   -4.0310   -6.3200   -2.6260 H   0  0  0  0  0  0  0  0  0  0  0  0
   -3.7300   -6.9590   -1.0450 H   0  0  0  0  0  0  0  0  0  0  0  0
  1  2  1  0
  2  3  1  0
  3  4  2  0
  3  5  1  0
  5  6  1  0
  6  7  1  0
  7  8  1  0
  8  9  1  0
  9 10  2  0
  9 11  1  0
 11 12  1  0
 12 13  1  0
 13 14  2  0
 14 15  1  0
 15 16  1  0
 16 17  2  0
 17 18  1  0
 18 19  2  0
 19 20  1  0
 20 21  2  0
  8 22  1  0
 22 23  1  0
 23 24  1  0
 23  5  1  0
 21 13  1  0
 21 16  1  0
  1 25  1  0
  1 26  1  0
  1 27  1  0
  5 28  1  1
  6 29  1  0
  6 30  1  0
  7 31  1  0
  7 32  1  0
 11 33  1  0
 11 34  1  0
 12 35  1  0
 12 36  1  0
 15 37  1  0
 17 38  1  0
 18 39  1  0
 19 40  1  0
 20 41  1  0
 22 42  1  0
 22 43  1  0
 23 44  1  1
 24 45  1  0
 24 46  1  0
 24 47  1  0
A    1
 C1 
A    2
 O1 
A    3
 C2 
A    4
 O2 
A    5
 C3 
A    6
 C4 
A    7
 C5 
A    8
 N1 
A    9
 C6 
A   10
 O3 
A   11
 C7 
A   12
 C8 
A   13
 C9 
A   14
 N2 
A   15
 N3 
A   16
 C10
A   17
 C11
A   18
 C12
A   19
 C13
A   20
 C14
A   21
 C15
A   22
 C16
A   23
 C17
A   24
 C18
A   25
 H1 
A   26
 H2 
A   27
 H3 
A   28
 H4 
A   29
 H5 
A   30
 H6 
A   31
 H7 
A   32
 H8 
A   33
 H9 
A   34
 H10
A   35
 H11
A   36
 H12
A   37
 H13
A   38
 H14
A   39
 H15
A   40
 H16
A   41
 H17
A   42
 H18
A   43
 H19
A   44
 H20
A   45
 H21
A   46
 H22
A   47
 H23
M  END
>  <ref_pdb>  (18) 
x0147_0A

>  <ref_mols>  (18) 
x1329_0AS2,x1594_0A

>  <original SMILES>  (18) 
[H]c1c([H])c([H])c2c(c(C([H])([H])C([H])([H])C(=O)N3C([H])([H])C([H])([H])[C@@]([H])(C(=O)OC([H])([H])[H])[C@@]([H])(C([H])([H])[H])C3([H])[H])nn2[H])c1[H]

>  <index>  (18) 
13863

>  <∆∆G>  (18) 
-8.856777

>  <comRMSD>  (18) 
0.346798

>  <N_constrained_atoms>  (18) 
21.0

>  <N_unconstrained_atoms>  (18) 
3.0

>  <LE>  (18) 
0.369032

>  <percent_hybrid>  (18) 
48.0

>  <max_hit_Tanimoto>  (18) 
0.176692

>  <largest_ring>  (18) 
6

>  <N_interactions_kept>  (18) 
0.0

>  <N_interactions_lost>  (18) 
0.5

>  <interaction_uniqueness_metric>  (18) 
0.063354

>  <N_HA>  (18) 
24

>  <N_rotatable_bonds>  (18) 
6

>  <N_interactions>  (18) 
2

>  <N_PAINS>  (18) 
0

>  <UFF_Gibbs>  (18) 
170.455878

>  <strain_per_HA>  (18) 
7.102299

>  <ad_hoc_penalty>  (18) 
-35.375367

>  <cluster>  (18) 
3868

>  <ranked>  (18) 
18.0

>  <merger_rank>  (18) 
1

>  <hydroph_interaction:LEU:127>  (18) 
1

>  <hbond:GLY:128>  (18) 
0

>  <hydroph_interaction:ALA:144>  (18) 
0

>  <hbond:GLY:164>  (18) 
0

>  <hbond:HIS:40>  (18) 
0

>  <pistack:HIS:40>  (18) 
0

>  <hydroph_interaction:LEU:125>  (18) 
0

>  <hydroph_interaction:PHE:170>  (18) 
0

>  <hydroph_interaction:HIS:40>  (18) 
0

>  <pication:HIS:40>  (18) 
0

>  <hbond:THR:142>  (18) 
0

>  <hbond:HIS:161>  (18) 
0

>  <hbond:GLY:166>  (18) 
0

>  <hbond:VAL:162>  (18) 
0

>  <hydroph_interaction:ASN:165>  (18) 
0

>  <hbond:ASN:126>  (18) 
0

>  <hbond:ARG:143>  (18) 
0

>  <hbond:GLU:71>  (18) 
0

>  <saltbridge:HIS:161>  (18) 
0

>  <hbond:ALA:144>  (18) 
0

>  <hbond:GLY:145>  (18) 
0

>  <hbond:GLN:146>  (18) 
0

>  <hbond:CYS:147>  (18) 
0

>  <halogenbond:ASN:126>  (18) 
0

>  <saltbridge:HIS:40>  (18) 
1

>  <hbond:LEU:127>  (18) 
0

>  <hbond:THR:130>  (18) 
0

>  <hydroph_interaction:GLU:71>  (18) 
0

>  <hydroph_interaction:THR:130>  (18) 
0

>  <saltbridge:ARG:143>  (18) 
0

>  <saltbridge:GLU:71>  (18) 
0

>  <hbond:GLY:129>  (18) 
0

>  <halogenbond:CYS:147>  (18) 
0

>  <hydroph_interaction:THR:39>  (18) 
0

>  <hbond:ASN:69>  (18) 
0

>  <hydroph_interaction:THR:132>  (18) 
0

>  <hbond:TYR:122>  (18) 
0

>  <hydroph_interaction:PHE:109>  (18) 
0

>  <hydroph_interaction:PHE:140>  (18) 
0

>  <hbond:PRO:141>  (18) 
0

$$$$
Z2518203573-x1071-0AS4
     RDKit          3D

 37 38  0  0  0  0  0  0  0  0999 V2000
   -6.2900   -3.3600   -2.6210 N   0  0  0  0  0  0  0  0  0  0  0  0
   -6.9080   -4.5550   -2.8310 C   0  0  0  0  0  0  0  0  0  0  0  0
   -7.8850   -4.7430   -3.6440 N   0  0  0  0  0  0  0  0  0  0  0  0
   -8.4660   -6.0030   -3.7660 C   0  0  0  0  0  0  0  0  0  0  0  0
   -9.5220   -6.0210   -4.8740 C   0  0  0  0  0  0  0  0  0  0  0  0
   -8.8200   -5.5870   -6.1730 C   0  0  0  0  0  0  0  0  0  0  0  0
   -9.2310   -4.2600   -6.7950 C   0  0  0  0  0  0  0  0  0  0  0  0
   -8.5160   -3.8560   -8.0550 C   0  0  0  0  0  0  0  0  0  0  0  0
   -7.4670   -4.7710   -8.6020 C   0  0  0  0  0  0  0  0  0  0  0  0
   -6.7510   -4.5490   -9.7170 O   0  0  0  0  0  0  0  0  0  0  0  0
   -7.2030   -5.9500   -7.9280 C   0  0  0  0  0  0  0  0  0  0  0  0
   -7.8280   -6.3590   -6.7770 C   0  0  0  0  0  0  0  0  0  0  0  0
   -6.3870   -5.5770   -2.0670 N   0  0  0  0  0  0  0  0  0  0  0  0
   -7.0490   -5.9330   -0.9470 C   0  0  0  0  0  0  0  0  0  0  0  0
   -6.5060   -7.1110   -0.4150 C   0  0  0  0  0  0  0  0  0  0  0  0
   -5.0900   -7.1950   -0.6470 O   0  0  0  0  0  0  0  0  0  0  0  0
   -4.8360   -7.3070   -2.0580 C   0  0  0  0  0  0  0  0  0  0  0  0
   -5.8960   -6.7430   -2.7700 C   0  0  0  0  0  0  0  0  0  0  0  0
   -6.4630   -2.9900   -1.6920 H   0  0  0  0  0  0  0  0  0  0  0  0
   -6.5800   -2.6760   -3.3320 H   0  0  0  0  0  0  0  0  0  0  0  0
   -7.6710   -6.6810   -4.0940 H   0  0  0  0  0  0  0  0  0  0  0  0
   -8.9070   -6.5050   -2.8970 H   0  0  0  0  0  0  0  0  0  0  0  0
  -10.3890   -5.3780   -4.6850 H   0  0  0  0  0  0  0  0  0  0  0  0
   -9.9070   -7.0390   -4.9980 H   0  0  0  0  0  0  0  0  0  0  0  0
  -10.0030   -3.6530   -6.3310 H   0  0  0  0  0  0  0  0  0  0  0  0
   -8.7610   -2.9110   -8.5570 H   0  0  0  0  0  0  0  0  0  0  0  0
   -7.2070   -5.0230  -10.4470 H   0  0  0  0  0  0  0  0  0  0  0  0
   -6.4340   -6.6150   -8.3400 H   0  0  0  0  0  0  0  0  0  0  0  0
   -7.4840   -7.3230   -6.3860 H   0  0  0  0  0  0  0  0  0  0  0  0
   -8.0700   -6.1670   -1.2690 H   0  0  0  0  0  0  0  0  0  0  0  0
   -7.1500   -5.0690   -0.3090 H   0  0  0  0  0  0  0  0  0  0  0  0
   -6.9750   -7.9970   -0.8480 H   0  0  0  0  0  0  0  0  0  0  0  0
   -6.6460   -7.1370    0.6700 H   0  0  0  0  0  0  0  0  0  0  0  0
   -4.6220   -8.3560   -2.2450 H   0  0  0  0  0  0  0  0  0  0  0  0
   -3.9130   -6.7630   -2.2790 H   0  0  0  0  0  0  0  0  0  0  0  0
   -5.7160   -6.4250   -3.7940 H   0  0  0  0  0  0  0  0  0  0  0  0
   -6.7100   -7.4720   -2.8210 H   0  0  0  0  0  0  0  0  0  0  0  0
  1  2  1  0
  2  3  2  3
  3  4  1  0
  4  5  1  0
  5  6  1  0
  6  7  2  0
  7  8  1  0
  8  9  2  0
  9 10  1  0
  9 11  1  0
 11 12  2  0
  2 13  1  0
 13 14  1  0
 14 15  1  0
 15 16  1  0
 16 17  1  0
 17 18  1  0
 12  6  1  0
 18 13  1  0
  1 19  1  0
  1 20  1  0
  4 21  1  0
  4 22  1  0
  5 23  1  0
  5 24  1  0
  7 25  1  0
  8 26  1  0
 10 27  1  0
 11 28  1  0
 12 29  1  0
 14 30  1  0
 14 31  1  0
 15 32  1  0
 15 33  1  0
 17 34  1  0
 17 35  1  0
 18 36  1  0
 18 37  1  0
A    1
 N1 
A    2
 C1 
A    3
 N2 
A    4
 C2 
A    5
 C3 
A    6
 C4 
A    7
 C5 
A    8
 C6 
A    9
 C7 
A   10
 O1 
A   11
 C8 
A   12
 C9 
A   13
 N3 
A   14
 C10
A   15
 C11
A   16
 O2 
A   17
 C12
A   18
 C13
A   19
 H1 
A   20
 H2 
A   21
 H3 
A   22
 H4 
A   23
 H5 
A   24
 H6 
A   25
 H7 
A   26
 H8 
A   27
 H9 
A   28
 H10
A   29
 H11
A   30
 H12
A   31
 H13
A   32
 H14
A   33
 H15
A   34
 H16
A   35
 H17
A   36
 H18
A   37
 H19
M  END
>  <ref_pdb>  (19) 
x0147_0A

>  <ref_mols>  (19) 
x1071_0AS4,x1498_0A

>  <original SMILES>  (19) 
[H]Oc1c([H])c([H])c(C([H])([H])C([H])([H])N=C(N([H])[H])N2C([H])([H])C([H])([H])OC([H])([H])C2([H])[H])c([H])c1[H]

>  <index>  (19) 
9422

>  <∆∆G>  (19) 
-6.363098

>  <comRMSD>  (19) 
0.414848

>  <N_constrained_atoms>  (19) 
16.0

>  <N_unconstrained_atoms>  (19) 
2.0

>  <LE>  (19) 
0.353505

>  <percent_hybrid>  (19) 
44.0

>  <max_hit_Tanimoto>  (19) 
0.078329

>  <largest_ring>  (19) 
6

>  <N_interactions_kept>  (19) 
1.0

>  <N_interactions_lost>  (19) 
1.0

>  <interaction_uniqueness_metric>  (19) 
0.070592

>  <N_HA>  (19) 
18

>  <N_rotatable_bonds>  (19) 
4

>  <N_interactions>  (19) 
5

>  <N_PAINS>  (19) 
0

>  <UFF_Gibbs>  (19) 
163.159451

>  <strain_per_HA>  (19) 
9.064364

>  <ad_hoc_penalty>  (19) 
-34.741299

>  <cluster>  (19) 
378

>  <ranked>  (19) 
19.0

>  <merger_rank>  (19) 
1

>  <hydroph_interaction:LEU:127>  (19) 
0

>  <hbond:GLY:128>  (19) 
1

>  <hydroph_interaction:ALA:144>  (19) 
0

>  <hbond:GLY:164>  (19) 
3

>  <hbond:HIS:40>  (19) 
0

>  <pistack:HIS:40>  (19) 
0

>  <hydroph_interaction:LEU:125>  (19) 
0

>  <hydroph_interaction:PHE:170>  (19) 
0

>  <hydroph_interaction:HIS:40>  (19) 
0

>  <pication:HIS:40>  (19) 
0

>  <hbond:THR:142>  (19) 
1

>  <hbond:HIS:161>  (19) 
0

>  <hbond:GLY:166>  (19) 
0

>  <hbond:VAL:162>  (19) 
0

>  <hydroph_interaction:ASN:165>  (19) 
0

>  <hbond:ASN:126>  (19) 
0

>  <hbond:ARG:143>  (19) 
0

>  <hbond:GLU:71>  (19) 
0

>  <saltbridge:HIS:161>  (19) 
0

>  <hbond:ALA:144>  (19) 
0

>  <hbond:GLY:145>  (19) 
0

>  <hbond:GLN:146>  (19) 
0

>  <hbond:CYS:147>  (19) 
0

>  <halogenbond:ASN:126>  (19) 
0

>  <saltbridge:HIS:40>  (19) 
0

>  <hbond:LEU:127>  (19) 
0

>  <hbond:THR:130>  (19) 
0

>  <hydroph_interaction:GLU:71>  (19) 
0

>  <hydroph_interaction:THR:130>  (19) 
0

>  <saltbridge:ARG:143>  (19) 
0

>  <saltbridge:GLU:71>  (19) 
0

>  <hbond:GLY:129>  (19) 
0

>  <halogenbond:CYS:147>  (19) 
0

>  <hydroph_interaction:THR:39>  (19) 
0

>  <hbond:ASN:69>  (19) 
0

>  <hydroph_interaction:THR:132>  (19) 
0

>  <hbond:TYR:122>  (19) 
0

>  <hydroph_interaction:PHE:109>  (19) 
0

>  <hydroph_interaction:PHE:140>  (19) 
0

>  <hbond:PRO:141>  (19) 
0

$$$$
PV-003120222632-x2099-0A
     RDKit          3D

 42 44  0  0  0  0  0  0  0  0999 V2000
   -8.2200  -11.5190   -7.5440 N   0  0  0  0  0  0  0  0  0  0  0  0
   -6.9980  -10.7390   -7.4430 C   0  0  0  0  0  0  0  0  0  0  0  0
   -6.8440  -10.1820   -6.0620 C   0  0  0  0  0  0  0  0  0  0  0  0
   -7.6740   -9.0320   -5.6000 C   0  0  0  0  0  0  0  0  0  0  0  0
   -6.9250   -7.7790   -5.7870 N   0  0  0  0  0  0  0  0  0  0  0  0
   -6.1880   -7.5910   -6.8830 C   0  0  0  0  0  0  0  0  0  0  0  0
   -6.4280   -6.5470   -7.9890 C   0  0  0  0  0  0  0  0  0  0  0  0
   -7.4740   -5.5360   -7.5400 C   0  0  0  0  0  0  0  0  0  0  0  0
   -7.8180   -4.5950   -8.4360 C   0  0  0  0  0  0  0  0  0  0  0  0
   -8.8480   -3.6200   -8.0640 C   0  0  0  0  0  0  0  0  0  0  0  0
   -9.5190   -3.6540   -6.7310 C   0  0  0  0  0  0  0  0  0  0  0  0
  -10.5300   -2.7740   -6.3630 C   0  0  0  0  0  0  0  0  0  0  0  0
  -11.5050   -2.5200   -7.3270 C   0  0  0  0  0  0  0  0  0  0  0  0
  -12.5430   -1.6880   -7.0500 C   0  0  0  0  0  0  0  0  0  0  0  0
  -12.6250   -1.0360   -5.6800 C   0  0  0  0  0  0  0  0  0  0  0  0
  -11.5510   -1.3170   -4.6290 C   0  0  0  0  0  0  0  0  0  0  0  0
  -10.5670   -2.1910   -5.0820 C   0  0  0  0  0  0  0  0  0  0  0  0
   -9.0490   -4.6650   -5.8930 C   0  0  0  0  0  0  0  0  0  0  0  0
   -8.0580   -5.5830   -6.2620 C   0  0  0  0  0  0  0  0  0  0  0  0
   -7.6470   -6.5960   -5.2780 C   0  0  0  0  0  0  0  0  0  0  0  0
   -9.0640  -11.0270   -7.2600 H   0  0  0  0  0  0  0  0  0  0  0  0
   -8.3670  -11.8000   -8.5130 H   0  0  0  0  0  0  0  0  0  0  0  0
   -6.9740   -9.9290   -8.1730 H   0  0  0  0  0  0  0  0  0  0  0  0
   -6.1550  -11.3950   -7.6760 H   0  0  0  0  0  0  0  0  0  0  0  0
   -5.7910   -9.9260   -5.9020 H   0  0  0  0  0  0  0  0  0  0  0  0
   -7.0380  -11.0220   -5.3880 H   0  0  0  0  0  0  0  0  0  0  0  0
   -8.6120   -8.9800   -6.1540 H   0  0  0  0  0  0  0  0  0  0  0  0
   -7.9170   -9.1670   -4.5410 H   0  0  0  0  0  0  0  0  0  0  0  0
   -6.2630   -8.5560   -7.3820 H   0  0  0  0  0  0  0  0  0  0  0  0
   -5.1320   -7.5130   -6.5840 H   0  0  0  0  0  0  0  0  0  0  0  0
   -6.7740   -7.0350   -8.9050 H   0  0  0  0  0  0  0  0  0  0  0  0
   -5.5080   -6.0430   -8.2760 H   0  0  0  0  0  0  0  0  0  0  0  0
   -7.3440   -4.5630   -9.4240 H   0  0  0  0  0  0  0  0  0  0  0  0
   -9.1410   -2.8570   -8.7780 H   0  0  0  0  0  0  0  0  0  0  0  0
  -11.4330   -2.9940   -8.3030 H   0  0  0  0  0  0  0  0  0  0  0  0
  -13.3050   -1.4890   -7.7980 H   0  0  0  0  0  0  0  0  0  0  0  0
  -13.4030   -0.3550   -5.3490 H   0  0  0  0  0  0  0  0  0  0  0  0
  -11.6230   -0.8390   -3.6450 H   0  0  0  0  0  0  0  0  0  0  0  0
   -9.7640   -2.4400   -4.3800 H   0  0  0  0  0  0  0  0  0  0  0  0
   -9.4310   -4.8170   -4.8780 H   0  0  0  0  0  0  0  0  0  0  0  0
   -7.0810   -6.1670   -4.4450 H   0  0  0  0  0  0  0  0  0  0  0  0
   -8.5740   -6.9650   -4.8180 H   0  0  0  0  0  0  0  0  0  0  0  0
  1  2  1  0
  2  3  1  0
  3  4  1  0
  4  5  1  0
  5  6  1  0
  6  7  1  0
  7  8  1  0
  8  9  2  0
  9 10  1  0
 10 11  2  0
 11 12  1  0
 12 13  2  0
 13 14  1  0
 14 15  2  0
 15 16  1  0
 16 17  2  0
 11 18  1  0
 18 19  2  0
 19 20  1  0
 20  5  1  0
 19  8  1  0
 17 12  1  0
  1 21  1  0
  1 22  1  0
  2 23  1  0
  2 24  1  0
  3 25  1  0
  3 26  1  0
  4 27  1  0
  4 28  1  0
  6 29  1  0
  6 30  1  0
  7 31  1  0
  7 32  1  0
  9 33  1  0
 10 34  1  0
 13 35  1  0
 14 36  1  0
 15 37  1  0
 16 38  1  0
 17 39  1  0
 18 40  1  0
 20 41  1  0
 20 42  1  0
A    1
 N1 
A    2
 C1 
A    3
 C2 
A    4
 C3 
A    5
 N2 
A    6
 C4 
A    7
 C5 
A    8
 C6 
A    9
 C7 
A   10
 C8 
A   11
 C9 
A   12
 C10
A   13
 C11
A   14
 C12
A   15
 C13
A   16
 C14
A   17
 C15
A   18
 C16
A   19
 C17
A   20
 C18
A   21
 H1 
A   22
 H2 
A   23
 H3 
A   24
 H4 
A   25
 H5 
A   26
 H6 
A   27
 H7 
A   28
 H8 
A   29
 H9 
A   30
 H10
A   31
 H11
A   32
 H12
A   33
 H13
A   34
 H14
A   35
 H15
A   36
 H16
A   37
 H17
A   38
 H18
A   39
 H19
A   40
 H20
A   41
 H21
A   42
 H22
M  END
>  <ref_pdb>  (20) 
x0147_0A

>  <ref_mols>  (20) 
x2099_0A,x0771_0A

>  <original SMILES>  (20) 
[H]c1c([H])c([H])c(-c2c([H])c([H])c3c(c2[H])C([H])([H])N(C([H])([H])C([H])([H])C([H])([H])N([H])[H])C([H])([H])C3([H])[H])c([H])c1[H]

>  <index>  (20) 
15853

>  <∆∆G>  (20) 
-7.448232

>  <comRMSD>  (20) 
0.749058

>  <N_constrained_atoms>  (20) 
22.0

>  <N_unconstrained_atoms>  (20) 
1.0

>  <LE>  (20) 
0.323836

>  <percent_hybrid>  (20) 
34.0

>  <max_hit_Tanimoto>  (20) 
0.178935

>  <largest_ring>  (20) 
6

>  <N_interactions_kept>  (20) 
2.0

>  <N_interactions_lost>  (20) 
0.0

>  <interaction_uniqueness_metric>  (20) 
0.107211

>  <N_HA>  (20) 
20

>  <N_rotatable_bonds>  (20) 
5

>  <N_interactions>  (20) 
1

>  <N_PAINS>  (20) 
0

>  <UFF_Gibbs>  (20) 
120.588359

>  <strain_per_HA>  (20) 
6.029388

>  <ad_hoc_penalty>  (20) 
-34.284933

>  <cluster>  (20) 
1776

>  <ranked>  (20) 
21.0

>  <merger_rank>  (20) 
1

>  <hydroph_interaction:LEU:127>  (20) 
0

>  <hbond:GLY:128>  (20) 
0

>  <hydroph_interaction:ALA:144>  (20) 
0

>  <hbond:GLY:164>  (20) 
0

>  <hbond:HIS:40>  (20) 
0

>  <pistack:HIS:40>  (20) 
0

>  <hydroph_interaction:LEU:125>  (20) 
0

>  <hydroph_interaction:PHE:170>  (20) 
0

>  <hydroph_interaction:HIS:40>  (20) 
0

>  <pication:HIS:40>  (20) 
0

>  <hbond:THR:142>  (20) 
0

>  <hbond:HIS:161>  (20) 
0

>  <hbond:GLY:166>  (20) 
0

>  <hbond:VAL:162>  (20) 
0

>  <hydroph_interaction:ASN:165>  (20) 
0

>  <hbond:ASN:126>  (20) 
0

>  <hbond:ARG:143>  (20) 
0

>  <hbond:GLU:71>  (20) 
0

>  <saltbridge:HIS:161>  (20) 
0

>  <hbond:ALA:144>  (20) 
0

>  <hbond:GLY:145>  (20) 
1

>  <hbond:GLN:146>  (20) 
0

>  <hbond:CYS:147>  (20) 
0

>  <halogenbond:ASN:126>  (20) 
0

>  <saltbridge:HIS:40>  (20) 
0

>  <hbond:LEU:127>  (20) 
0

>  <hbond:THR:130>  (20) 
0

>  <hydroph_interaction:GLU:71>  (20) 
0

>  <hydroph_interaction:THR:130>  (20) 
0

>  <saltbridge:ARG:143>  (20) 
0

>  <saltbridge:GLU:71>  (20) 
0

>  <hbond:GLY:129>  (20) 
0

>  <halogenbond:CYS:147>  (20) 
0

>  <hydroph_interaction:THR:39>  (20) 
0

>  <hbond:ASN:69>  (20) 
0

>  <hydroph_interaction:THR:132>  (20) 
0

>  <hbond:TYR:122>  (20) 
0

>  <hydroph_interaction:PHE:109>  (20) 
0

>  <hydroph_interaction:PHE:140>  (20) 
0

>  <hbond:PRO:141>  (20) 
0

$$$$
PV-006551188727-x1919-0A
     RDKit          3D

 52 54  0  0  0  0  0  0  0  0999 V2000
   -5.7920   -0.2600   -2.2820 C   0  0  0  0  0  0  0  0  0  0  0  0
   -6.1010   -0.8700   -0.9080 C   0  0  0  0  0  0  0  0  0  0  0  0
   -7.0670   -1.8930   -0.9580 C   0  0  0  0  0  0  0  0  0  0  0  0
   -7.0990   -2.8510   -1.9690 C   0  0  0  0  0  0  0  0  0  0  0  0
   -6.8430   -4.1840   -1.6790 C   0  0  0  0  0  0  0  0  0  0  0  0
   -6.7210   -4.8750   -3.0300 C   0  0  0  0  0  0  0  0  0  0  0  0
   -6.4250   -4.3000   -4.0710 O   0  0  0  0  0  0  0  0  0  0  0  0
   -6.9810   -6.2350   -2.9960 N   0  0  0  0  0  0  0  0  0  0  0  0
   -5.9370   -7.2490   -3.2390 C   0  0  0  0  0  0  0  0  0  0  0  0
   -5.3880   -7.7430   -1.9030 C   0  0  0  0  0  0  0  0  0  0  0  0
   -6.1390   -8.6820   -1.1600 C   0  0  0  0  0  0  0  0  0  0  0  0
   -5.6340   -9.1880    0.1810 C   0  0  0  0  0  0  0  0  0  0  0  0
   -4.4340   -8.7270    0.6810 C   0  0  0  0  0  0  0  0  0  0  0  0
   -3.7210   -7.8040   -0.0810 C   0  0  0  0  0  0  0  0  0  0  0  0
   -4.1740   -7.3320   -1.3230 C   0  0  0  0  0  0  0  0  0  0  0  0
   -2.4840   -7.4640    0.6490 C   0  0  0  0  0  0  0  0  0  0  0  0
   -2.7610   -7.9920    1.9060 C   0  0  0  0  0  0  0  0  0  0  0  0
   -3.6790   -9.0330    1.9580 C   0  0  0  0  0  0  0  0  0  0  0  0
   -4.5060   -8.9780    3.1720 N   0  0  0  0  0  0  0  0  0  0  0  0
   -5.8780   -9.3810    2.8980 C   0  0  0  0  0  0  0  0  0  0  0  0
   -6.7060   -8.6780    2.3350 O   0  0  0  0  0  0  0  0  0  0  0  0
   -6.2310  -10.7440    3.3710 C   0  0  0  0  0  0  0  0  0  0  0  0
   -7.2160  -11.3790    2.6760 N   0  0  0  0  0  0  0  0  0  0  0  0
   -7.5370  -12.6160    3.1150 C   0  0  0  0  0  0  0  0  0  0  0  0
   -8.6140  -13.3510    2.3790 C   0  0  0  0  0  0  0  0  0  0  0  0
   -6.8930  -13.1920    4.2110 C   0  0  0  0  0  0  0  0  0  0  0  0
   -5.9090  -12.5630    4.9040 N   0  0  0  0  0  0  0  0  0  0  0  0
   -5.5890  -11.3170    4.4590 C   0  0  0  0  0  0  0  0  0  0  0  0
   -5.4800   -1.0180   -3.0070 H   0  0  0  0  0  0  0  0  0  0  0  0
   -6.6750    0.2520   -2.6850 H   0  0  0  0  0  0  0  0  0  0  0  0
   -4.9870    0.4760   -2.2060 H   0  0  0  0  0  0  0  0  0  0  0  0
   -6.3520   -2.5530   -2.7130 H   0  0  0  0  0  0  0  0  0  0  0  0
   -8.0460   -2.7360   -2.5030 H   0  0  0  0  0  0  0  0  0  0  0  0
   -7.4740   -4.6780   -0.9400 H   0  0  0  0  0  0  0  0  0  0  0  0
   -5.8520   -4.2580   -1.2200 H   0  0  0  0  0  0  0  0  0  0  0  0
   -7.9420   -6.5450   -3.0010 H   0  0  0  0  0  0  0  0  0  0  0  0
   -5.1140   -6.8710   -3.8560 H   0  0  0  0  0  0  0  0  0  0  0  0
   -6.3400   -8.1140   -3.7780 H   0  0  0  0  0  0  0  0  0  0  0  0
   -7.0950   -9.0510   -1.5470 H   0  0  0  0  0  0  0  0  0  0  0  0
   -6.2870   -9.9140    0.6740 H   0  0  0  0  0  0  0  0  0  0  0  0
   -3.5680   -6.6200   -1.8590 H   0  0  0  0  0  0  0  0  0  0  0  0
   -2.3100   -6.3960    0.6150 H   0  0  0  0  0  0  0  0  0  0  0  0
   -1.6520   -7.9920    0.2080 H   0  0  0  0  0  0  0  0  0  0  0  0
   -1.8240   -8.2570    2.4100 H   0  0  0  0  0  0  0  0  0  0  0  0
   -3.1810   -7.1650    2.4960 H   0  0  0  0  0  0  0  0  0  0  0  0
   -3.1620   -9.9960    1.9000 H   0  0  0  0  0  0  0  0  0  0  0  0
   -4.4050   -8.1840    3.7990 H   0  0  0  0  0  0  0  0  0  0  0  0
   -8.1730  -14.0560    1.6680 H   0  0  0  0  0  0  0  0  0  0  0  0
   -9.2430  -13.9170    3.0740 H   0  0  0  0  0  0  0  0  0  0  0  0
   -9.2530  -12.6460    1.8390 H   0  0  0  0  0  0  0  0  0  0  0  0
   -7.1510  -14.1840    4.5660 H   0  0  0  0  0  0  0  0  0  0  0  0
   -4.8070  -10.8000    5.0040 H   0  0  0  0  0  0  0  0  0  0  0  0
  1  2  1  0
  2  3  3  0
  3  4  1  0
  4  5  1  0
  5  6  1  0
  6  7  2  0
  6  8  1  0
  8  9  1  0
  9 10  1  0
 10 11  2  0
 11 12  1  0
 12 13  2  0
 13 14  1  0
 14 15  2  0
 14 16  1  0
 16 17  1  0
 17 18  1  0
 18 19  1  0
 19 20  1  0
 20 21  2  0
 20 22  1  0
 22 23  2  0
 23 24  1  0
 24 25  1  0
 24 26  2  0
 26 27  1  0
 27 28  2  0
 15 10  1  0
 18 13  1  0
 28 22  1  0
  1 29  1  0
  1 30  1  0
  1 31  1  0
  4 32  1  0
  4 33  1  0
  5 34  1  0
  5 35  1  0
  8 36  1  0
  9 37  1  0
  9 38  1  0
 11 39  1  0
 12 40  1  0
 15 41  1  0
 16 42  1  0
 16 43  1  0
 17 44  1  0
 17 45  1  0
 18 46  1  0
 19 47  1  0
 25 48  1  0
 25 49  1  0
 25 50  1  0
 26 51  1  0
 28 52  1  0
A    1
 C1 
A    2
 C2 
A    3
 C3 
A    4
 C4 
A    5
 C5 
A    6
 C6 
A    7
 O1 
A    8
 N1 
A    9
 C7 
A   10
 C8 
A   11
 C9 
A   12
 C10
A   13
 C11
A   14
 C12
A   15
 C13
A   16
 C14
A   17
 C15
A   18
 C16
A   19
 N2 
A   20
 C17
A   21
 O2 
A   22
 C18
A   23
 N3 
A   24
 C19
A   25
 C20
A   26
 C21
A   27
 N4 
A   28
 C22
A   29
 H1 
A   30
 H2 
A   31
 H3 
A   32
 H4 
A   33
 H5 
A   34
 H6 
A   35
 H7 
A   36
 H8 
A   37
 H9 
A   38
 H10
A   39
 H11
A   40
 H12
A   41
 H13
A   42
 H14
A   43
 H15
A   44
 H16
A   45
 H17
A   46
 H18
A   47
 H19
A   48
 H20
A   49
 H21
A   50
 H22
A   51
 H23
A   52
 H24
M  END
>  <ref_pdb>  (21) 
x0147_0A

>  <ref_mols>  (21) 
x1919_0A,x1247_0A

>  <original SMILES>  (21) 
[H]c1nc([H])c(C([H])([H])[H])nc1C(=O)N([H])C1([H])c2c([H])c([H])c(C([H])([H])N([H])C(=O)C([H])([H])C([H])([H])C#CC([H])([H])[H])c([H])c2C([H])([H])C1([H])[H]

>  <index>  (21) 
4210

>  <∆∆G>  (21) 
-6.938109

>  <comRMSD>  (21) 
0.608878

>  <N_constrained_atoms>  (21) 
29.0

>  <N_unconstrained_atoms>  (21) 
2.0

>  <LE>  (21) 
0.22381

>  <percent_hybrid>  (21) 
44.0

>  <max_hit_Tanimoto>  (21) 
0.213566

>  <largest_ring>  (21) 
6

>  <N_interactions_kept>  (21) 
3.5

>  <N_interactions_lost>  (21) 
3.5

>  <interaction_uniqueness_metric>  (21) 
0.125187

>  <N_HA>  (21) 
28

>  <N_rotatable_bonds>  (21) 
7

>  <N_interactions>  (21) 
10

>  <N_PAINS>  (21) 
0

>  <UFF_Gibbs>  (21) 
313.0996

>  <strain_per_HA>  (21) 
11.182089

>  <ad_hoc_penalty>  (21) 
-34.22576

>  <cluster>  (21) 
297

>  <ranked>  (21) 
22.0

>  <merger_rank>  (21) 
1

>  <hydroph_interaction:LEU:127>  (21) 
4

>  <hbond:GLY:128>  (21) 
0

>  <hydroph_interaction:ALA:144>  (21) 
0

>  <hbond:GLY:164>  (21) 
1

>  <hbond:HIS:40>  (21) 
0

>  <pistack:HIS:40>  (21) 
1

>  <hydroph_interaction:LEU:125>  (21) 
0

>  <hydroph_interaction:PHE:170>  (21) 
1

>  <hydroph_interaction:HIS:40>  (21) 
1

>  <pication:HIS:40>  (21) 
0

>  <hbond:THR:142>  (21) 
0

>  <hbond:HIS:161>  (21) 
0

>  <hbond:GLY:166>  (21) 
0

>  <hbond:VAL:162>  (21) 
0

>  <hydroph_interaction:ASN:165>  (21) 
0

>  <hbond:ASN:126>  (21) 
0

>  <hbond:ARG:143>  (21) 
0

>  <hbond:GLU:71>  (21) 
0

>  <saltbridge:HIS:161>  (21) 
0

>  <hbond:ALA:144>  (21) 
0

>  <hbond:GLY:145>  (21) 
0

>  <hbond:GLN:146>  (21) 
0

>  <hbond:CYS:147>  (21) 
0

>  <halogenbond:ASN:126>  (21) 
0

>  <saltbridge:HIS:40>  (21) 
0

>  <hbond:LEU:127>  (21) 
0

>  <hbond:THR:130>  (21) 
2

>  <hydroph_interaction:GLU:71>  (21) 
0

>  <hydroph_interaction:THR:130>  (21) 
0

>  <saltbridge:ARG:143>  (21) 
0

>  <saltbridge:GLU:71>  (21) 
0

>  <hbond:GLY:129>  (21) 
0

>  <halogenbond:CYS:147>  (21) 
0

>  <hydroph_interaction:THR:39>  (21) 
0

>  <hbond:ASN:69>  (21) 
0

>  <hydroph_interaction:THR:132>  (21) 
0

>  <hbond:TYR:122>  (21) 
0

>  <hydroph_interaction:PHE:109>  (21) 
0

>  <hydroph_interaction:PHE:140>  (21) 
0

>  <hbond:PRO:141>  (21) 
0

$$$$
PV-002746358068-x1332-1AS2
     RDKit          3D

 23 24  0  0  0  0  0  0  0  0999 V2000
   -6.7670   -6.3760   -8.2730 C   0  0  0  0  0  0  0  0  0  0  0  0
   -7.4700   -5.0710   -8.2760 C   0  0  0  0  0  0  0  0  0  0  0  0
   -6.6390   -4.2050   -9.0550 O   0  0  0  0  0  0  0  0  0  0  0  0
   -8.6400   -4.7840   -7.6940 N   0  0  0  0  0  0  0  0  0  0  0  0
   -8.7760   -5.4740   -6.5020 C   0  0  0  0  0  0  0  0  0  0  0  0
  -10.0860   -5.1470   -6.0870 C   0  0  0  0  0  0  0  0  0  0  0  0
  -11.1300   -5.2660   -6.8290 C   0  0  0  0  0  0  0  0  0  0  0  0
  -10.6600   -3.9570   -7.0970 C   0  0  0  0  0  0  0  0  0  0  0  0
  -11.6560   -2.8460   -6.8080 C   0  0  0  0  0  0  0  0  0  0  0  0
  -11.8970   -2.5850   -5.6350 O   0  0  0  0  0  0  0  0  0  0  0  0
  -12.1970   -2.2410   -7.7230 O   0  0  0  0  0  0  0  0  0  0  0  0
   -9.3300   -3.6010   -7.7210 C   0  0  0  0  0  0  0  0  0  0  0  0
   -7.0630   -6.9700   -7.4040 H   0  0  0  0  0  0  0  0  0  0  0  0
   -6.9890   -6.9510   -9.1720 H   0  0  0  0  0  0  0  0  0  0  0  0
   -5.6880   -6.2260   -8.2320 H   0  0  0  0  0  0  0  0  0  0  0  0
   -7.9260   -5.4480   -5.8310 H   0  0  0  0  0  0  0  0  0  0  0  0
   -8.8210   -6.5310   -6.7860 H   0  0  0  0  0  0  0  0  0  0  0  0
  -10.2510   -5.1960   -5.0060 H   0  0  0  0  0  0  0  0  0  0  0  0
  -12.0810   -5.3430   -6.2900 H   0  0  0  0  0  0  0  0  0  0  0  0
  -11.0410   -5.9430   -7.6650 H   0  0  0  0  0  0  0  0  0  0  0  0
  -12.6060   -1.4640   -7.2860 H   0  0  0  0  0  0  0  0  0  0  0  0
   -9.4410   -3.2750   -8.7390 H   0  0  0  0  0  0  0  0  0  0  0  0
   -8.8470   -2.7970   -7.1740 H   0  0  0  0  0  0  0  0  0  0  0  0
  1  2  1  0
  2  3  2  0
  2  4  1  0
  4  5  1  0
  5  6  1  0
  6  7  1  0
  7  8  1  0
  8  9  1  0
  9 10  2  0
  9 11  1  0
  8 12  1  0
 12  4  1  0
  8  6  1  0
  1 13  1  0
  1 14  1  0
  1 15  1  0
  5 16  1  0
  5 17  1  0
  6 18  1  0
  7 19  1  0
  7 20  1  0
 11 21  1  0
 12 22  1  0
 12 23  1  0
A    1
 C1 
A    2
 C2 
A    3
 O1 
A    4
 N1 
A    5
 C3 
A    6
 C4 
A    7
 C5 
A    8
 C6 
A    9
 C7 
A   10
 O2 
A   11
 O3 
A   12
 C8 
A   13
 H1 
A   14
 H2 
A   15
 H3 
A   16
 H4 
A   17
 H5 
A   18
 H6 
A   19
 H7 
A   20
 H8 
A   21
 H9 
A   22
 H10
A   23
 H11
M  END
>  <ref_pdb>  (22) 
x0147_0A

>  <ref_mols>  (22) 
x1332_1AS2,x0980_0BS4

>  <original SMILES>  (22) 
[H]OC(=O)C12C([H])([H])N(C(=O)C([H])([H])[H])C([H])([H])C1([H])C2([H])[H]

>  <index>  (22) 
8699

>  <∆∆G>  (22) 
-6.337813

>  <comRMSD>  (22) 
0.956268

>  <N_constrained_atoms>  (22) 
14.0

>  <N_unconstrained_atoms>  (22) 
2.0

>  <LE>  (22) 
0.396113

>  <percent_hybrid>  (22) 
34.0

>  <max_hit_Tanimoto>  (22) 
0.599537

>  <largest_ring>  (22) 
5

>  <N_interactions_kept>  (22) 
2.0

>  <N_interactions_lost>  (22) 
0.0

>  <interaction_uniqueness_metric>  (22) 
0.273669

>  <N_HA>  (22) 
12

>  <N_rotatable_bonds>  (22) 
2

>  <N_interactions>  (22) 
2

>  <N_PAINS>  (22) 
0

>  <UFF_Gibbs>  (22) 
169.375816

>  <strain_per_HA>  (22) 
14.114534

>  <ad_hoc_penalty>  (22) 
-34.147448

>  <cluster>  (22) 
2282

>  <ranked>  (22) 
23.0

>  <merger_rank>  (22) 
1

>  <hydroph_interaction:LEU:127>  (22) 
0

>  <hbond:GLY:128>  (22) 
0

>  <hydroph_interaction:ALA:144>  (22) 
1

>  <hbond:GLY:164>  (22) 
0

>  <hbond:HIS:40>  (22) 
0

>  <pistack:HIS:40>  (22) 
0

>  <hydroph_interaction:LEU:125>  (22) 
0

>  <hydroph_interaction:PHE:170>  (22) 
0

>  <hydroph_interaction:HIS:40>  (22) 
0

>  <pication:HIS:40>  (22) 
0

>  <hbond:THR:142>  (22) 
0

>  <hbond:HIS:161>  (22) 
0

>  <hbond:GLY:166>  (22) 
0

>  <hbond:VAL:162>  (22) 
0

>  <hydroph_interaction:ASN:165>  (22) 
0

>  <hbond:ASN:126>  (22) 
0

>  <hbond:ARG:143>  (22) 
0

>  <hbond:GLU:71>  (22) 
0

>  <saltbridge:HIS:161>  (22) 
0

>  <hbond:ALA:144>  (22) 
0

>  <hbond:GLY:145>  (22) 
0

>  <hbond:GLN:146>  (22) 
0

>  <hbond:CYS:147>  (22) 
0

>  <halogenbond:ASN:126>  (22) 
0

>  <saltbridge:HIS:40>  (22) 
0

>  <hbond:LEU:127>  (22) 
0

>  <hbond:THR:130>  (22) 
0

>  <hydroph_interaction:GLU:71>  (22) 
0

>  <hydroph_interaction:THR:130>  (22) 
0

>  <saltbridge:ARG:143>  (22) 
1

>  <saltbridge:GLU:71>  (22) 
0

>  <hbond:GLY:129>  (22) 
0

>  <halogenbond:CYS:147>  (22) 
0

>  <hydroph_interaction:THR:39>  (22) 
0

>  <hbond:ASN:69>  (22) 
0

>  <hydroph_interaction:THR:132>  (22) 
0

>  <hbond:TYR:122>  (22) 
0

>  <hydroph_interaction:PHE:109>  (22) 
0

>  <hydroph_interaction:PHE:140>  (22) 
0

>  <hbond:PRO:141>  (22) 
0

$$$$
Z1898240337-x2099-0A
     RDKit          3D

 49 52  0  0  0  0  0  0  0  0999 V2000
   -6.7350   -4.1990   -9.2830 O   0  0  0  0  0  0  0  0  0  0  0  0
   -7.6760   -4.2380   -8.2180 C   0  0  0  0  0  0  0  0  0  0  0  0
   -8.7600   -3.4020   -8.0320 N   0  0  0  0  0  0  0  0  0  0  0  0
   -9.7550   -3.8950   -7.1050 C   0  0  0  0  0  0  0  0  0  0  0  0
  -10.7540   -2.8880   -6.6240 C   0  0  0  0  0  0  0  0  0  0  0  0
  -10.6450   -2.2820   -5.2230 C   0  0  0  0  0  0  0  0  0  0  0  0
  -11.6000   -1.3680   -4.8060 C   0  0  0  0  0  0  0  0  0  0  0  0
  -12.7460   -0.9730   -5.7420 C   0  0  0  0  0  0  0  0  0  0  0  0
  -12.7700   -1.5720   -7.0110 C   0  0  0  0  0  0  0  0  0  0  0  0
  -11.8110   -2.4950   -7.4410 C   0  0  0  0  0  0  0  0  0  0  0  0
   -7.5340   -5.2200   -7.1190 C   0  0  0  0  0  0  0  0  0  0  0  0
   -7.6960   -4.8190   -5.8000 C   0  0  0  0  0  0  0  0  0  0  0  0
   -7.5570   -5.7250   -4.7530 C   0  0  0  0  0  0  0  0  0  0  0  0
   -7.2600   -7.0570   -4.9830 C   0  0  0  0  0  0  0  0  0  0  0  0
   -7.1200   -7.8960   -3.8680 N   0  0  0  0  0  0  0  0  0  0  0  0
   -5.7390   -8.3100   -3.5740 C   0  0  0  0  0  0  0  0  0  0  0  0
   -5.2600   -8.3560   -2.1030 C   0  0  0  0  0  0  0  0  0  0  0  0
   -6.0740   -9.1720   -1.1390 C   0  0  0  0  0  0  0  0  0  0  0  0
   -5.6520   -9.2540    0.1960 C   0  0  0  0  0  0  0  0  0  0  0  0
   -4.4900   -8.5750    0.5770 C   0  0  0  0  0  0  0  0  0  0  0  0
   -3.9420   -8.5700    1.8520 O   0  0  0  0  0  0  0  0  0  0  0  0
   -2.6680   -7.8840    1.6750 C   0  0  0  0  0  0  0  0  0  0  0  0
   -2.7130   -7.3300    0.4170 C   0  0  0  0  0  0  0  0  0  0  0  0
   -3.7570   -7.8240   -0.3200 C   0  0  0  0  0  0  0  0  0  0  0  0
   -4.1070   -7.6880   -1.6560 C   0  0  0  0  0  0  0  0  0  0  0  0
   -7.1210   -7.4470   -6.3100 C   0  0  0  0  0  0  0  0  0  0  0  0
   -7.2420   -6.5460   -7.3790 C   0  0  0  0  0  0  0  0  0  0  0  0
   -9.0980   -3.0550   -8.9480 H   0  0  0  0  0  0  0  0  0  0  0  0
  -10.2850   -4.7480   -7.5410 H   0  0  0  0  0  0  0  0  0  0  0  0
   -9.2100   -4.2810   -6.2440 H   0  0  0  0  0  0  0  0  0  0  0  0
   -9.8300   -2.5660   -4.5550 H   0  0  0  0  0  0  0  0  0  0  0  0
  -11.5320   -0.9320   -3.8120 H   0  0  0  0  0  0  0  0  0  0  0  0
  -13.5070   -0.2600   -5.4360 H   0  0  0  0  0  0  0  0  0  0  0  0
  -13.5740   -1.3070   -7.6940 H   0  0  0  0  0  0  0  0  0  0  0  0
  -11.9000   -2.9140   -8.4350 H   0  0  0  0  0  0  0  0  0  0  0  0
   -7.9280   -3.7870   -5.5550 H   0  0  0  0  0  0  0  0  0  0  0  0
   -7.6840   -5.3660   -3.7330 H   0  0  0  0  0  0  0  0  0  0  0  0
   -7.7530   -8.6910   -3.9030 H   0  0  0  0  0  0  0  0  0  0  0  0
   -5.0440   -7.6380   -4.0980 H   0  0  0  0  0  0  0  0  0  0  0  0
   -5.5690   -9.3040   -4.0110 H   0  0  0  0  0  0  0  0  0  0  0  0
   -6.9740   -9.6970   -1.4630 H   0  0  0  0  0  0  0  0  0  0  0  0
   -6.2120   -9.8360    0.9210 H   0  0  0  0  0  0  0  0  0  0  0  0
   -1.8360   -8.5860    1.7890 H   0  0  0  0  0  0  0  0  0  0  0  0
   -2.5800   -7.1130    2.4480 H   0  0  0  0  0  0  0  0  0  0  0  0
   -2.8460   -6.2600    0.5450 H   0  0  0  0  0  0  0  0  0  0  0  0
   -1.7720   -7.4990   -0.0910 H   0  0  0  0  0  0  0  0  0  0  0  0
   -3.5110   -7.0950   -2.3420 H   0  0  0  0  0  0  0  0  0  0  0  0
   -6.9110   -8.4760   -6.5380 H   0  0  0  0  0  0  0  0  0  0  0  0
   -7.1100   -6.8900   -8.4020 H   0  0  0  0  0  0  0  0  0  0  0  0
  1  2  2  0
  2  3  1  0
  3  4  1  0
  4  5  1  0
  5  6  2  0
  6  7  1  0
  7  8  2  0
  8  9  1  0
  9 10  2  0
  2 11  1  0
 11 12  2  0
 12 13  1  0
 13 14  2  0
 14 15  1  0
 15 16  1  0
 16 17  1  0
 17 18  2  0
 18 19  1  0
 19 20  2  0
 20 21  1  0
 21 22  1  0
 22 23  1  0
 23 24  1  0
 24 25  2  0
 14 26  1  0
 26 27  2  0
 10  5  1  0
 27 11  1  0
 25 17  1  0
 24 20  1  0
  3 28  1  0
  4 29  1  0
  4 30  1  0
  6 31  1  0
  7 32  1  0
  8 33  1  0
  9 34  1  0
 10 35  1  0
 12 36  1  0
 13 37  1  0
 15 38  1  0
 16 39  1  0
 16 40  1  0
 18 41  1  0
 19 42  1  0
 22 43  1  0
 22 44  1  0
 23 45  1  0
 23 46  1  0
 25 47  1  0
 26 48  1  0
 27 49  1  0
A    1
 O1 
A    2
 C1 
A    3
 N1 
A    4
 C2 
A    5
 C3 
A    6
 C4 
A    7
 C5 
A    8
 C6 
A    9
 C7 
A   10
 C8 
A   11
 C9 
A   12
 C10
A   13
 C11
A   14
 C12
A   15
 N2 
A   16
 C13
A   17
 C14
A   18
 C15
A   19
 C16
A   20
 C17
A   21
 O2 
A   22
 C18
A   23
 C19
A   24
 C20
A   25
 C21
A   26
 C22
A   27
 C23
A   28
 H1 
A   29
 H2 
A   30
 H3 
A   31
 H4 
A   32
 H5 
A   33
 H6 
A   34
 H7 
A   35
 H8 
A   36
 H9 
A   37
 H10
A   38
 H11
A   39
 H12
A   40
 H13
A   41
 H14
A   42
 H15
A   43
 H16
A   44
 H17
A   45
 H18
A   46
 H19
A   47
 H20
A   48
 H21
A   49
 H22
M  END
>  <ref_pdb>  (23) 
x0147_0A

>  <ref_mols>  (23) 
x2099_0A,x1140_0AS2

>  <original SMILES>  (23) 
[H]c1c([H])c([H])c(C([H])([H])N([H])C(=O)c2c([H])c([H])c(N([H])C([H])([H])c3c([H])c([H])c4c(c3[H])C([H])([H])C([H])([H])O4)c([H])c2[H])c([H])c1[H]

>  <index>  (23) 
677

>  <∆∆G>  (23) 
-10.054209

>  <comRMSD>  (23) 
0.618315

>  <N_constrained_atoms>  (23) 
27.0

>  <N_unconstrained_atoms>  (23) 
1.0

>  <LE>  (23) 
0.359079

>  <percent_hybrid>  (23) 
38.0

>  <max_hit_Tanimoto>  (23) 
0.212403

>  <largest_ring>  (23) 
6

>  <N_interactions_kept>  (23) 
2.5

>  <N_interactions_lost>  (23) 
1.0

>  <interaction_uniqueness_metric>  (23) 
0.071314

>  <N_HA>  (23) 
27

>  <N_rotatable_bonds>  (23) 
6

>  <N_interactions>  (23) 
3

>  <N_PAINS>  (23) 
0

>  <UFF_Gibbs>  (23) 
486.476633

>  <strain_per_HA>  (23) 
18.017586

>  <ad_hoc_penalty>  (23) 
-34.142142

>  <cluster>  (23) 
7205

>  <ranked>  (23) 
24.0

>  <merger_rank>  (23) 
1

>  <hydroph_interaction:LEU:127>  (23) 
0

>  <hbond:GLY:128>  (23) 
0

>  <hydroph_interaction:ALA:144>  (23) 
0

>  <hbond:GLY:164>  (23) 
0

>  <hbond:HIS:40>  (23) 
0

>  <pistack:HIS:40>  (23) 
1

>  <hydroph_interaction:LEU:125>  (23) 
0

>  <hydroph_interaction:PHE:170>  (23) 
0

>  <hydroph_interaction:HIS:40>  (23) 
1

>  <pication:HIS:40>  (23) 
0

>  <hbond:THR:142>  (23) 
1

>  <hbond:HIS:161>  (23) 
0

>  <hbond:GLY:166>  (23) 
0

>  <hbond:VAL:162>  (23) 
0

>  <hydroph_interaction:ASN:165>  (23) 
0

>  <hbond:ASN:126>  (23) 
0

>  <hbond:ARG:143>  (23) 
0

>  <hbond:GLU:71>  (23) 
0

>  <saltbridge:HIS:161>  (23) 
0

>  <hbond:ALA:144>  (23) 
0

>  <hbond:GLY:145>  (23) 
0

>  <hbond:GLN:146>  (23) 
0

>  <hbond:CYS:147>  (23) 
0

>  <halogenbond:ASN:126>  (23) 
0

>  <saltbridge:HIS:40>  (23) 
0

>  <hbond:LEU:127>  (23) 
0

>  <hbond:THR:130>  (23) 
0

>  <hydroph_interaction:GLU:71>  (23) 
0

>  <hydroph_interaction:THR:130>  (23) 
0

>  <saltbridge:ARG:143>  (23) 
0

>  <saltbridge:GLU:71>  (23) 
0

>  <hbond:GLY:129>  (23) 
0

>  <halogenbond:CYS:147>  (23) 
0

>  <hydroph_interaction:THR:39>  (23) 
0

>  <hbond:ASN:69>  (23) 
0

>  <hydroph_interaction:THR:132>  (23) 
0

>  <hbond:TYR:122>  (23) 
0

>  <hydroph_interaction:PHE:109>  (23) 
0

>  <hydroph_interaction:PHE:140>  (23) 
0

>  <hbond:PRO:141>  (23) 
0

$$$$
Z2038220530-x1919-0AS4
     RDKit          3D

 31 31  0  0  0  0  0  0  0  0999 V2000
   -4.7110    5.0250   -1.6230 N   0  0  0  0  0  0  0  0  0  0  0  0
   -5.3760    4.7030   -0.4660 C   0  0  0  0  0  0  0  0  0  0  0  0
   -5.7500    5.6930    0.5020 O   0  0  0  0  0  0  0  0  0  0  0  0
   -5.7020    3.1950   -0.2980 C   0  0  0  0  0  0  0  0  0  0  0  0
   -5.9840    2.5080   -1.6420 C   0  0  0  0  0  0  0  0  0  0  0  0
   -5.8160    0.9630   -1.7200 C   0  0  0  0  0  0  0  0  0  0  0  0
   -6.3460    0.2710   -0.5590 C   0  0  0  0  0  0  0  0  0  0  0  0
   -7.1820   -0.8290   -0.6300 C   0  0  0  0  0  0  0  0  0  0  0  0
   -8.4060   -0.7180   -0.5770 O   0  0  0  0  0  0  0  0  0  0  0  0
   -6.5040   -2.0800   -0.7540 O   0  0  0  0  0  0  0  0  0  0  0  0
   -7.3950   -3.0600   -1.3320 C   0  0  0  0  0  0  0  0  0  0  0  0
   -6.8810   -4.3570   -1.7890 C   0  0  0  0  0  0  0  0  0  0  0  0
   -7.1210   -4.9100   -3.0540 C   0  0  0  0  0  0  0  0  0  0  0  0
   -6.5580   -6.1320   -3.2940 O   0  0  0  0  0  0  0  0  0  0  0  0
   -5.9250   -6.3650   -2.1190 C   0  0  0  0  0  0  0  0  0  0  0  0
   -6.0740   -5.3520   -1.1760 C   0  0  0  0  0  0  0  0  0  0  0  0
   -5.1960    5.1320   -2.5060 H   0  0  0  0  0  0  0  0  0  0  0  0
   -3.7750    5.4170   -1.5470 H   0  0  0  0  0  0  0  0  0  0  0  0
   -4.8820    2.7070    0.2310 H   0  0  0  0  0  0  0  0  0  0  0  0
   -6.6050    3.1130    0.3160 H   0  0  0  0  0  0  0  0  0  0  0  0
   -7.0040    2.7540   -1.9520 H   0  0  0  0  0  0  0  0  0  0  0  0
   -5.3430    2.9430   -2.4150 H   0  0  0  0  0  0  0  0  0  0  0  0
   -6.2880    0.5950   -2.6350 H   0  0  0  0  0  0  0  0  0  0  0  0
   -4.7610    0.6870   -1.7750 H   0  0  0  0  0  0  0  0  0  0  0  0
   -5.5010    0.0230    0.0890 H   0  0  0  0  0  0  0  0  0  0  0  0
   -6.9240    0.9950    0.0210 H   0  0  0  0  0  0  0  0  0  0  0  0
   -7.9120   -2.5510   -2.1580 H   0  0  0  0  0  0  0  0  0  0  0  0
   -8.1750   -3.2440   -0.5830 H   0  0  0  0  0  0  0  0  0  0  0  0
   -7.7380   -4.3430   -3.7650 H   0  0  0  0  0  0  0  0  0  0  0  0
   -5.3280   -7.2460   -1.8510 H   0  0  0  0  0  0  0  0  0  0  0  0
   -5.5820   -5.4910   -0.2050 H   0  0  0  0  0  0  0  0  0  0  0  0
  1  2  1  0
  2  3  2  0
  2  4  1  0
  4  5  1  0
  5  6  1  0
  6  7  1  0
  7  8  1  0
  8  9  2  0
  8 10  1  0
 10 11  1  0
 11 12  1  0
 12 13  2  0
 13 14  1  0
 14 15  1  0
 15 16  2  0
 16 12  1  0
  1 17  1  0
  1 18  1  0
  4 19  1  0
  4 20  1  0
  5 21  1  0
  5 22  1  0
  6 23  1  0
  6 24  1  0
  7 25  1  0
  7 26  1  0
 11 27  1  0
 11 28  1  0
 13 29  1  0
 15 30  1  0
 16 31  1  0
A    1
 N1 
A    2
 C1 
A    3
 O1 
A    4
 C2 
A    5
 C3 
A    6
 C4 
A    7
 C5 
A    8
 C6 
A    9
 O2 
A   10
 O3 
A   11
 C7 
A   12
 C8 
A   13
 C9 
A   14
 O4 
A   15
 C10
A   16
 C11
A   17
 H1 
A   18
 H2 
A   19
 H3 
A   20
 H4 
A   21
 H5 
A   22
 H6 
A   23
 H7 
A   24
 H8 
A   25
 H9 
A   26
 H10
A   27
 H11
A   28
 H12
A   29
 H13
A   30
 H14
A   31
 H15
M  END
>  <ref_pdb>  (24) 
x0147_0A

>  <ref_mols>  (24) 
x1919_0AS4,x1285_0BS1

>  <original SMILES>  (24) 
[H]c1oc([H])c(C([H])([H])OC(=O)C([H])([H])C([H])([H])C([H])([H])C([H])([H])C(=O)N([H])[H])c1[H]

>  <index>  (24) 
15782

>  <∆∆G>  (24) 
-5.382566

>  <comRMSD>  (24) 
0.827139

>  <N_constrained_atoms>  (24) 
14.0

>  <N_unconstrained_atoms>  (24) 
5.0

>  <LE>  (24) 
0.283293

>  <percent_hybrid>  (24) 
36.0

>  <max_hit_Tanimoto>  (24) 
0.084337

>  <largest_ring>  (24) 
5

>  <N_interactions_kept>  (24) 
2.0

>  <N_interactions_lost>  (24) 
1.5

>  <interaction_uniqueness_metric>  (24) 
0.691511

>  <N_HA>  (24) 
16

>  <N_rotatable_bonds>  (24) 
7

>  <N_interactions>  (24) 
6

>  <N_PAINS>  (24) 
0

>  <UFF_Gibbs>  (24) 
103.755193

>  <strain_per_HA>  (24) 
6.484659

>  <ad_hoc_penalty>  (24) 
-34.092737

>  <cluster>  (24) 
3352

>  <ranked>  (24) 
25.0

>  <merger_rank>  (24) 
1

>  <hydroph_interaction:LEU:127>  (24) 
2

>  <hbond:GLY:128>  (24) 
0

>  <hydroph_interaction:ALA:144>  (24) 
0

>  <hbond:GLY:164>  (24) 
0

>  <hbond:HIS:40>  (24) 
0

>  <pistack:HIS:40>  (24) 
0

>  <hydroph_interaction:LEU:125>  (24) 
1

>  <hydroph_interaction:PHE:170>  (24) 
1

>  <hydroph_interaction:HIS:40>  (24) 
0

>  <pication:HIS:40>  (24) 
0

>  <hbond:THR:142>  (24) 
0

>  <hbond:HIS:161>  (24) 
0

>  <hbond:GLY:166>  (24) 
0

>  <hbond:VAL:162>  (24) 
0

>  <hydroph_interaction:ASN:165>  (24) 
1

>  <hbond:ASN:126>  (24) 
0

>  <hbond:ARG:143>  (24) 
0

>  <hbond:GLU:71>  (24) 
0

>  <saltbridge:HIS:161>  (24) 
0

>  <hbond:ALA:144>  (24) 
0

>  <hbond:GLY:145>  (24) 
0

>  <hbond:GLN:146>  (24) 
0

>  <hbond:CYS:147>  (24) 
0

>  <halogenbond:ASN:126>  (24) 
0

>  <saltbridge:HIS:40>  (24) 
0

>  <hbond:LEU:127>  (24) 
0

>  <hbond:THR:130>  (24) 
0

>  <hydroph_interaction:GLU:71>  (24) 
0

>  <hydroph_interaction:THR:130>  (24) 
0

>  <saltbridge:ARG:143>  (24) 
0

>  <saltbridge:GLU:71>  (24) 
0

>  <hbond:GLY:129>  (24) 
0

>  <halogenbond:CYS:147>  (24) 
0

>  <hydroph_interaction:THR:39>  (24) 
0

>  <hbond:ASN:69>  (24) 
0

>  <hydroph_interaction:THR:132>  (24) 
0

>  <hbond:TYR:122>  (24) 
1

>  <hydroph_interaction:PHE:109>  (24) 
0

>  <hydroph_interaction:PHE:140>  (24) 
0

>  <hbond:PRO:141>  (24) 
0

$$$$
Z2647008354-x1329-0AS2
     RDKit          3D

 40 41  0  0  0  0  0  0  0  0999 V2000
   -3.9710   -7.4020    1.4250 C   0  0  0  0  0  0  0  0  0  0  0  0
   -5.3290   -7.8150    1.2280 O   0  0  0  0  0  0  0  0  0  0  0  0
   -5.5200   -8.7350    0.2340 C   0  0  0  0  0  0  0  0  0  0  0  0
   -5.0960   -9.8780    0.2590 O   0  0  0  0  0  0  0  0  0  0  0  0
   -6.3700   -8.0850   -0.9320 C   0  0  2  0  0  0  0  0  0  0  0  0
   -6.5150   -9.1340   -2.0930 C   0  0  0  0  0  0  0  0  0  0  0  0
   -6.7820   -8.5530   -3.4850 C   0  0  0  0  0  0  0  0  0  0  0  0
   -7.4310   -7.2400   -3.3750 N   0  0  0  0  0  0  0  0  0  0  0  0
   -8.4600   -6.9230   -4.2740 C   0  0  0  0  0  0  0  0  0  0  0  0
   -9.1070   -7.7940   -4.8590 O   0  0  0  0  0  0  0  0  0  0  0  0
   -8.7410   -5.4340   -4.4870 C   0  0  0  0  0  0  0  0  0  0  0  0
   -9.5320   -5.1100   -5.7630 C   0  0  0  0  0  0  0  0  0  0  0  0
   -8.6080   -4.9050   -6.9580 C   0  0  0  0  0  0  0  0  0  0  0  0
   -8.6150   -3.6240   -7.7390 C   0  0  0  0  0  0  0  0  0  0  0  0
   -7.7030   -3.6490   -8.7690 N   0  0  0  0  0  0  0  0  0  0  0  0
   -7.0700   -4.8130   -8.7910 C   0  0  0  0  0  0  0  0  0  0  0  0
   -7.4680   -5.9870   -7.6000 S   0  0  0  0  0  0  0  0  0  0  0  0
   -6.7350   -6.2200   -2.5690 C   0  0  0  0  0  0  0  0  0  0  0  0
   -5.7670   -6.8000   -1.5220 C   0  0  2  0  0  0  0  0  0  0  0  0
   -4.4460   -7.0100   -1.9200 C   0  0  0  0  0  0  0  0  0  0  0  0
   -3.8630   -7.0230    2.4510 H   0  0  0  0  0  0  0  0  0  0  0  0
   -3.6950   -6.5960    0.7400 H   0  0  0  0  0  0  0  0  0  0  0  0
   -3.2750   -8.2360    1.2960 H   0  0  0  0  0  0  0  0  0  0  0  0
   -7.3610   -7.8470   -0.5210 H   0  0  0  0  0  0  0  0  0  0  0  0
   -7.2890   -9.8740   -1.8580 H   0  0  0  0  0  0  0  0  0  0  0  0
   -5.5680   -9.6940   -2.1760 H   0  0  0  0  0  0  0  0  0  0  0  0
   -7.4680   -9.2050   -4.0370 H   0  0  0  0  0  0  0  0  0  0  0  0
   -5.8720   -8.4950   -4.0890 H   0  0  0  0  0  0  0  0  0  0  0  0
   -7.8000   -4.8730   -4.4850 H   0  0  0  0  0  0  0  0  0  0  0  0
   -9.3360   -5.1020   -3.6270 H   0  0  0  0  0  0  0  0  0  0  0  0
  -10.1960   -4.2490   -5.6200 H   0  0  0  0  0  0  0  0  0  0  0  0
  -10.1860   -5.9640   -5.9930 H   0  0  0  0  0  0  0  0  0  0  0  0
   -9.2330   -2.7510   -7.5650 H   0  0  0  0  0  0  0  0  0  0  0  0
   -6.3230   -5.0290   -9.5320 H   0  0  0  0  0  0  0  0  0  0  0  0
   -6.2100   -5.5360   -3.2450 H   0  0  0  0  0  0  0  0  0  0  0  0
   -7.5050   -5.6240   -2.0630 H   0  0  0  0  0  0  0  0  0  0  0  0
   -5.7160   -6.0770   -0.6940 H   0  0  0  0  0  0  0  0  0  0  0  0
   -4.1340   -6.2380   -2.6290 H   0  0  0  0  0  0  0  0  0  0  0  0
   -3.7700   -6.9730   -1.0600 H   0  0  0  0  0  0  0  0  0  0  0  0
   -4.3090   -7.9830   -2.4030 H   0  0  0  0  0  0  0  0  0  0  0  0
  1  2  1  0
  2  3  1  0
  3  4  2  0
  3  5  1  0
  5  6  1  0
  6  7  1  0
  7  8  1  0
  8  9  1  0
  9 10  2  0
  9 11  1  0
 11 12  1  0
 12 13  1  0
 13 14  2  0
 14 15  1  0
 15 16  2  0
 16 17  1  0
  8 18  1  0
 18 19  1  0
 19 20  1  0
 19  5  1  0
 17 13  1  0
  1 21  1  0
  1 22  1  0
  1 23  1  0
  5 24  1  1
  6 25  1  0
  6 26  1  0
  7 27  1  0
  7 28  1  0
 11 29  1  0
 11 30  1  0
 12 31  1  0
 12 32  1  0
 14 33  1  0
 16 34  1  0
 18 35  1  0
 18 36  1  0
 19 37  1  1
 20 38  1  0
 20 39  1  0
 20 40  1  0
A    1
 C1 
A    2
 O1 
A    3
 C2 
A    4
 O2 
A    5
 C3 
A    6
 C4 
A    7
 C5 
A    8
 N1 
A    9
 C6 
A   10
 O3 
A   11
 C7 
A   12
 C8 
A   13
 C9 
A   14
 C10
A   15
 N2 
A   16
 C11
A   17
 S1 
A   18
 C12
A   19
 C13
A   20
 C14
A   21
 H1 
A   22
 H2 
A   23
 H3 
A   24
 H4 
A   25
 H5 
A   26
 H6 
A   27
 H7 
A   28
 H8 
A   29
 H9 
A   30
 H10
A   31
 H11
A   32
 H12
A   33
 H13
A   34
 H14
A   35
 H15
A   36
 H16
A   37
 H17
A   38
 H18
A   39
 H19
A   40
 H20
M  END
>  <ref_pdb>  (25) 
x0147_0A

>  <ref_mols>  (25) 
x1329_0AS2,x0789_0AS1

>  <original SMILES>  (25) 
[H]c1nc([H])c(C([H])([H])C([H])([H])C(=O)N2C([H])([H])C([H])([H])[C@@]([H])(C(=O)OC([H])([H])[H])[C@@]([H])(C([H])([H])[H])C2([H])[H])s1

>  <index>  (25) 
12374

>  <∆∆G>  (25) 
-8.257167

>  <comRMSD>  (25) 
0.24502

>  <N_constrained_atoms>  (25) 
17.0

>  <N_unconstrained_atoms>  (25) 
3.0

>  <LE>  (25) 
0.412858

>  <percent_hybrid>  (25) 
36.0

>  <max_hit_Tanimoto>  (25) 
0.205931

>  <largest_ring>  (25) 
6

>  <N_interactions_kept>  (25) 
0.0

>  <N_interactions_lost>  (25) 
0.5

>  <interaction_uniqueness_metric>  (25) 
0.063354

>  <N_HA>  (25) 
20

>  <N_rotatable_bonds>  (25) 
6

>  <N_interactions>  (25) 
2

>  <N_PAINS>  (25) 
0

>  <UFF_Gibbs>  (25) 
71.347956

>  <strain_per_HA>  (25) 
3.56738

>  <ad_hoc_penalty>  (25) 
-33.941474

>  <cluster>  (25) 
4286

>  <ranked>  (25) 
26.0

>  <merger_rank>  (25) 
1

>  <hydroph_interaction:LEU:127>  (25) 
1

>  <hbond:GLY:128>  (25) 
0

>  <hydroph_interaction:ALA:144>  (25) 
0

>  <hbond:GLY:164>  (25) 
0

>  <hbond:HIS:40>  (25) 
0

>  <pistack:HIS:40>  (25) 
0

>  <hydroph_interaction:LEU:125>  (25) 
0

>  <hydroph_interaction:PHE:170>  (25) 
0

>  <hydroph_interaction:HIS:40>  (25) 
0

>  <pication:HIS:40>  (25) 
0

>  <hbond:THR:142>  (25) 
0

>  <hbond:HIS:161>  (25) 
0

>  <hbond:GLY:166>  (25) 
0

>  <hbond:VAL:162>  (25) 
0

>  <hydroph_interaction:ASN:165>  (25) 
0

>  <hbond:ASN:126>  (25) 
0

>  <hbond:ARG:143>  (25) 
0

>  <hbond:GLU:71>  (25) 
0

>  <saltbridge:HIS:161>  (25) 
0

>  <hbond:ALA:144>  (25) 
0

>  <hbond:GLY:145>  (25) 
0

>  <hbond:GLN:146>  (25) 
0

>  <hbond:CYS:147>  (25) 
0

>  <halogenbond:ASN:126>  (25) 
0

>  <saltbridge:HIS:40>  (25) 
1

>  <hbond:LEU:127>  (25) 
0

>  <hbond:THR:130>  (25) 
0

>  <hydroph_interaction:GLU:71>  (25) 
0

>  <hydroph_interaction:THR:130>  (25) 
0

>  <saltbridge:ARG:143>  (25) 
0

>  <saltbridge:GLU:71>  (25) 
0

>  <hbond:GLY:129>  (25) 
0

>  <halogenbond:CYS:147>  (25) 
0

>  <hydroph_interaction:THR:39>  (25) 
0

>  <hbond:ASN:69>  (25) 
0

>  <hydroph_interaction:THR:132>  (25) 
0

>  <hbond:TYR:122>  (25) 
0

>  <hydroph_interaction:PHE:109>  (25) 
0

>  <hydroph_interaction:PHE:140>  (25) 
0

>  <hbond:PRO:141>  (25) 
0

$$$$
PV-004634449809-x1071-0A
     RDKit          3D

 56 57  0  0  0  0  0  0  0  0999 V2000
   -6.5370   -0.3430    0.1700 C   0  0  0  0  0  0  0  0  0  0  0  0
   -6.8510   -0.6570   -1.2730 C   0  0  0  0  0  0  0  0  0  0  0  0
   -5.8140   -0.3200   -2.3480 C   0  0  0  0  0  0  0  0  0  0  0  0
   -8.0820    0.2190   -1.5510 C   0  0  0  0  0  0  0  0  0  0  0  0
   -7.4040   -1.9950   -1.4440 O   0  0  0  0  0  0  0  0  0  0  0  0
   -6.6710   -3.1250   -1.6990 C   0  0  0  0  0  0  0  0  0  0  0  0
   -5.6160   -3.3290   -1.2130 O   0  0  0  0  0  0  0  0  0  0  0  0
   -7.2620   -4.1850   -2.6310 C   0  0  0  0  0  0  0  0  0  0  0  0
   -8.6360   -4.0880   -2.6370 N   0  0  0  0  0  0  0  0  0  0  0  0
   -9.4450   -4.5920   -3.7190 C   0  0  0  0  0  0  0  0  0  0  0  0
   -9.9930   -5.6970   -3.7310 O   0  0  0  0  0  0  0  0  0  0  0  0
   -9.5420   -3.6820   -4.7450 C   0  0  0  0  0  0  0  0  0  0  0  0
  -10.7980   -3.8910   -5.4410 N   0  0  0  0  0  0  0  0  0  0  0  0
  -10.8880   -4.2990   -6.8160 C   0  0  0  0  0  0  0  0  0  0  0  0
  -12.0210   -4.5900   -7.5010 O   0  0  0  0  0  0  0  0  0  0  0  0
   -9.6240   -4.3330   -7.3800 C   0  0  0  0  0  0  0  0  0  0  0  0
   -9.2430   -3.2140   -8.0640 C   0  0  0  0  0  0  0  0  0  0  0  0
   -8.0210   -3.1750   -8.6620 C   0  0  0  0  0  0  0  0  0  0  0  0
   -7.1050   -4.1620   -8.6570 N   0  0  0  0  0  0  0  0  0  0  0  0
   -7.4930   -5.2520   -7.9690 C   0  0  0  0  0  0  0  0  0  0  0  0
   -8.7190   -5.3970   -7.3180 C   0  0  0  0  0  0  0  0  0  0  0  0
   -6.8270   -5.6450   -2.2500 C   0  0  0  0  0  0  0  0  0  0  0  0
   -5.6370   -6.0810   -2.8940 C   0  0  0  0  0  0  0  0  0  0  0  0
   -5.0330   -7.2360   -2.3470 C   0  0  0  0  0  0  0  0  0  0  0  0
   -5.1040   -7.3940   -0.9560 C   0  0  0  0  0  0  0  0  0  0  0  0
   -6.3270   -7.1130   -0.3610 C   0  0  0  0  0  0  0  0  0  0  0  0
   -6.7150   -5.8330   -0.7320 C   0  0  0  0  0  0  0  0  0  0  0  0
   -6.8530    0.6780    0.4080 H   0  0  0  0  0  0  0  0  0  0  0  0
   -5.4690   -0.4080    0.3450 H   0  0  0  0  0  0  0  0  0  0  0  0
   -7.0770   -1.0020    0.8570 H   0  0  0  0  0  0  0  0  0  0  0  0
   -4.8560    0.0510   -2.0080 H   0  0  0  0  0  0  0  0  0  0  0  0
   -6.1480    0.3620   -3.1250 H   0  0  0  0  0  0  0  0  0  0  0  0
   -5.5940   -1.2580   -2.8730 H   0  0  0  0  0  0  0  0  0  0  0  0
   -8.7010   -0.2250   -2.3380 H   0  0  0  0  0  0  0  0  0  0  0  0
   -7.7700    1.2170   -1.8940 H   0  0  0  0  0  0  0  0  0  0  0  0
   -8.6700    0.3540   -0.6380 H   0  0  0  0  0  0  0  0  0  0  0  0
   -6.9190   -3.9620   -3.6500 H   0  0  0  0  0  0  0  0  0  0  0  0
   -9.0940   -4.1240   -1.7220 H   0  0  0  0  0  0  0  0  0  0  0  0
   -9.4830   -2.6190   -4.4770 H   0  0  0  0  0  0  0  0  0  0  0  0
   -8.7440   -3.8200   -5.4850 H   0  0  0  0  0  0  0  0  0  0  0  0
  -11.6310   -3.6940   -4.8980 H   0  0  0  0  0  0  0  0  0  0  0  0
   -9.9110   -2.3570   -8.1340 H   0  0  0  0  0  0  0  0  0  0  0  0
   -7.7780   -2.2710   -9.1820 H   0  0  0  0  0  0  0  0  0  0  0  0
   -6.8470   -6.1350   -7.8740 H   0  0  0  0  0  0  0  0  0  0  0  0
   -8.8690   -6.3550   -6.8090 H   0  0  0  0  0  0  0  0  0  0  0  0
   -7.6610   -6.2850   -2.5590 H   0  0  0  0  0  0  0  0  0  0  0  0
   -5.7590   -6.1480   -3.9820 H   0  0  0  0  0  0  0  0  0  0  0  0
   -4.8360   -5.3470   -2.8320 H   0  0  0  0  0  0  0  0  0  0  0  0
   -5.2320   -8.1550   -2.9000 H   0  0  0  0  0  0  0  0  0  0  0  0
   -3.9600   -7.0890   -2.5540 H   0  0  0  0  0  0  0  0  0  0  0  0
   -4.3510   -6.7280   -0.5160 H   0  0  0  0  0  0  0  0  0  0  0  0
   -4.7660   -8.3980   -0.6790 H   0  0  0  0  0  0  0  0  0  0  0  0
   -7.0700   -7.8320   -0.7350 H   0  0  0  0  0  0  0  0  0  0  0  0
   -6.2990   -7.2340    0.7230 H   0  0  0  0  0  0  0  0  0  0  0  0
   -7.6560   -5.6020   -0.2240 H   0  0  0  0  0  0  0  0  0  0  0  0
   -5.9940   -5.1000   -0.3860 H   0  0  0  0  0  0  0  0  0  0  0  0
  1  2  1  0
  2  3  1  0
  2  4  1  0
  2  5  1  0
  5  6  1  0
  6  7  2  0
  6  8  1  0
  8  9  1  0
  9 10  1  0
 10 11  2  0
 10 12  1  0
 12 13  1  0
 13 14  1  0
 14 15  2  0
 14 16  1  0
 16 17  2  0
 17 18  1  0
 18 19  2  0
 19 20  1  0
 20 21  2  0
  8 22  1  0
 22 23  1  0
 23 24  1  0
 24 25  1  0
 25 26  1  0
 26 27  1  0
 21 16  1  0
 27 22  1  0
  1 28  1  0
  1 29  1  0
  1 30  1  0
  3 31  1  0
  3 32  1  0
  3 33  1  0
  4 34  1  0
  4 35  1  0
  4 36  1  0
  8 37  1  0
  9 38  1  0
 12 39  1  0
 12 40  1  0
 13 41  1  0
 17 42  1  0
 18 43  1  0
 20 44  1  0
 21 45  1  0
 22 46  1  0
 23 47  1  0
 23 48  1  0
 24 49  1  0
 24 50  1  0
 25 51  1  0
 25 52  1  0
 26 53  1  0
 26 54  1  0
 27 55  1  0
 27 56  1  0
A    1
 C1 
A    2
 C2 
A    3
 C3 
A    4
 C4 
A    5
 O1 
A    6
 C5 
A    7
 O2 
A    8
 C6 
A    9
 N1 
A   10
 C7 
A   11
 O3 
A   12
 C8 
A   13
 N2 
A   14
 C9 
A   15
 O4 
A   16
 C10
A   17
 C11
A   18
 C12
A   19
 N3 
A   20
 C13
A   21
 C14
A   22
 C15
A   23
 C16
A   24
 C17
A   25
 C18
A   26
 C19
A   27
 C20
A   28
 H1 
A   29
 H2 
A   30
 H3 
A   31
 H4 
A   32
 H5 
A   33
 H6 
A   34
 H7 
A   35
 H8 
A   36
 H9 
A   37
 H10
A   38
 H11
A   39
 H12
A   40
 H13
A   41
 H14
A   42
 H15
A   43
 H16
A   44
 H17
A   45
 H18
A   46
 H19
A   47
 H20
A   48
 H21
A   49
 H22
A   50
 H23
A   51
 H24
A   52
 H25
A   53
 H26
A   54
 H27
A   55
 H28
A   56
 H29
M  END
>  <ref_pdb>  (26) 
x0147_0A

>  <ref_mols>  (26) 
x1071_0A,x0980_0BS4

>  <original SMILES>  (26) 
[H]c1nc([H])c([H])c(C(=O)N([H])C([H])([H])C(=O)N([H])C([H])(C(=O)OC(C([H])([H])[H])(C([H])([H])[H])C([H])([H])[H])C2([H])C([H])([H])C([H])([H])C([H])([H])C([H])([H])C2([H])[H])c1[H]

>  <index>  (26) 
6355

>  <∆∆G>  (26) 
-7.126068

>  <comRMSD>  (26) 
0.604911

>  <N_constrained_atoms>  (26) 
23.0

>  <N_unconstrained_atoms>  (26) 
5.0

>  <LE>  (26) 
0.254502

>  <percent_hybrid>  (26) 
40.0

>  <max_hit_Tanimoto>  (26) 
0.197205

>  <largest_ring>  (26) 
6

>  <N_interactions_kept>  (26) 
2.0

>  <N_interactions_lost>  (26) 
1.0

>  <interaction_uniqueness_metric>  (26) 
0.125778

>  <N_HA>  (26) 
27

>  <N_rotatable_bonds>  (26) 
6

>  <N_interactions>  (26) 
4

>  <N_PAINS>  (26) 
0

>  <UFF_Gibbs>  (26) 
181.799399

>  <strain_per_HA>  (26) 
6.733286

>  <ad_hoc_penalty>  (26) 
-33.859825

>  <cluster>  (26) 
2414

>  <ranked>  (26) 
27.0

>  <merger_rank>  (26) 
2

>  <hydroph_interaction:LEU:127>  (26) 
1

>  <hbond:GLY:128>  (26) 
0

>  <hydroph_interaction:ALA:144>  (26) 
0

>  <hbond:GLY:164>  (26) 
0

>  <hbond:HIS:40>  (26) 
0

>  <pistack:HIS:40>  (26) 
0

>  <hydroph_interaction:LEU:125>  (26) 
0

>  <hydroph_interaction:PHE:170>  (26) 
1

>  <hydroph_interaction:HIS:40>  (26) 
0

>  <pication:HIS:40>  (26) 
0

>  <hbond:THR:142>  (26) 
0

>  <hbond:HIS:161>  (26) 
0

>  <hbond:GLY:166>  (26) 
0

>  <hbond:VAL:162>  (26) 
0

>  <hydroph_interaction:ASN:165>  (26) 
1

>  <hbond:ASN:126>  (26) 
0

>  <hbond:ARG:143>  (26) 
0

>  <hbond:GLU:71>  (26) 
0

>  <saltbridge:HIS:161>  (26) 
0

>  <hbond:ALA:144>  (26) 
1

>  <hbond:GLY:145>  (26) 
0

>  <hbond:GLN:146>  (26) 
0

>  <hbond:CYS:147>  (26) 
0

>  <halogenbond:ASN:126>  (26) 
0

>  <saltbridge:HIS:40>  (26) 
0

>  <hbond:LEU:127>  (26) 
0

>  <hbond:THR:130>  (26) 
0

>  <hydroph_interaction:GLU:71>  (26) 
0

>  <hydroph_interaction:THR:130>  (26) 
0

>  <saltbridge:ARG:143>  (26) 
0

>  <saltbridge:GLU:71>  (26) 
0

>  <hbond:GLY:129>  (26) 
0

>  <halogenbond:CYS:147>  (26) 
0

>  <hydroph_interaction:THR:39>  (26) 
0

>  <hbond:ASN:69>  (26) 
0

>  <hydroph_interaction:THR:132>  (26) 
0

>  <hbond:TYR:122>  (26) 
0

>  <hydroph_interaction:PHE:109>  (26) 
0

>  <hydroph_interaction:PHE:140>  (26) 
0

>  <hbond:PRO:141>  (26) 
0

$$$$
Z2027243387-x0130-0AS3
     RDKit          3D

 34 34  0  0  0  0  0  0  0  0999 V2000
   -6.2340   -5.1350   -1.1410 C   0  0  0  0  0  0  0  0  0  0  0  0
   -7.4050   -5.5730   -1.8900 C   0  0  0  0  0  0  0  0  0  0  0  0
   -7.1490   -5.4100   -3.6440 S   0  0  0  0  0  6  0  0  0  0  0  0
   -8.3380   -5.8740   -4.3230 O   0  0  0  0  0  0  0  0  0  0  0  0
   -6.6050   -4.0730   -3.8460 O   0  0  0  0  0  0  0  0  0  0  0  0
   -5.8870   -6.4760   -3.8790 N   0  0  0  0  0  0  0  0  0  0  0  0
   -5.9760   -7.8020   -3.3560 C   0  0  0  0  0  0  0  0  0  0  0  0
   -5.2430   -8.0300   -2.0330 C   0  0  0  0  0  0  0  0  0  0  0  0
   -5.8670   -8.9490   -0.9920 C   0  0  0  0  0  0  0  0  0  0  0  0
   -5.2130   -9.1540    0.1870 C   0  0  0  0  0  0  0  0  0  0  0  0
   -3.8740   -8.4660    0.4530 C   0  0  0  0  0  0  0  0  0  0  0  0
   -3.2620   -8.7840    1.7850 C   0  0  0  0  0  0  0  0  0  0  0  0
   -3.8560   -9.5470    2.5330 O   0  0  0  0  0  0  0  0  0  0  0  0
   -2.0410   -8.2280    2.1100 N   0  0  0  0  0  0  0  0  0  0  0  0
   -1.2940   -9.0140    2.9450 N   0  0  0  0  0  0  0  0  0  0  0  0
   -0.3820   -9.8620    2.3570 C   0  0  0  0  0  0  0  0  0  0  0  0
    0.0440  -10.8930    2.8710 O   0  0  0  0  0  0  0  0  0  0  0  0
   -3.3320   -7.6260   -0.5270 C   0  0  0  0  0  0  0  0  0  0  0  0
   -4.0120   -7.4200   -1.7450 C   0  0  0  0  0  0  0  0  0  0  0  0
   -5.3440   -5.3290   -1.7490 H   0  0  0  0  0  0  0  0  0  0  0  0
   -6.1280   -5.6910   -0.2060 H   0  0  0  0  0  0  0  0  0  0  0  0
   -6.3040   -4.0660   -0.9140 H   0  0  0  0  0  0  0  0  0  0  0  0
   -8.2770   -4.9770   -1.6010 H   0  0  0  0  0  0  0  0  0  0  0  0
   -7.6110   -6.6310   -1.6810 H   0  0  0  0  0  0  0  0  0  0  0  0
   -5.5470   -6.4240   -4.8440 H   0  0  0  0  0  0  0  0  0  0  0  0
   -7.0230   -8.0690   -3.1790 H   0  0  0  0  0  0  0  0  0  0  0  0
   -5.5760   -8.5180   -4.0870 H   0  0  0  0  0  0  0  0  0  0  0  0
   -6.8260   -9.4520   -1.1630 H   0  0  0  0  0  0  0  0  0  0  0  0
   -5.6080   -9.8060    0.9740 H   0  0  0  0  0  0  0  0  0  0  0  0
   -1.4580   -7.6930    1.4470 H   0  0  0  0  0  0  0  0  0  0  0  0
   -1.7200   -9.2380    3.8440 H   0  0  0  0  0  0  0  0  0  0  0  0
   -0.0760   -9.5110    1.3710 H   0  0  0  0  0  0  0  0  0  0  0  0
   -2.3830   -7.1330   -0.3530 H   0  0  0  0  0  0  0  0  0  0  0  0
   -3.5700   -6.7670   -2.4880 H   0  0  0  0  0  0  0  0  0  0  0  0
  1  2  1  0
  2  3  1  0
  3  4  2  0
  3  5  2  0
  3  6  1  0
  6  7  1  0
  7  8  1  0
  8  9  2  0
  9 10  1  0
 10 11  2  0
 11 12  1  0
 12 13  2  0
 12 14  1  0
 14 15  1  0
 15 16  1  0
 16 17  2  0
 11 18  1  0
 18 19  2  0
 19  8  1  0
  1 20  1  0
  1 21  1  0
  1 22  1  0
  2 23  1  0
  2 24  1  0
  6 25  1  0
  7 26  1  0
  7 27  1  0
  9 28  1  0
 10 29  1  0
 14 30  1  0
 15 31  1  0
 16 32  1  0
 18 33  1  0
 19 34  1  0
A    1
 C1 
A    2
 C2 
A    3
 S1 
A    4
 O1 
A    5
 O2 
A    6
 N1 
A    7
 C3 
A    8
 C4 
A    9
 C5 
A   10
 C6 
A   11
 C7 
A   12
 C8 
A   13
 O3 
A   14
 N2 
A   15
 N3 
A   16
 C9 
A   17
 O4 
A   18
 C10
A   19
 C11
A   20
 H1 
A   21
 H2 
A   22
 H3 
A   23
 H4 
A   24
 H5 
A   25
 H6 
A   26
 H7 
A   27
 H8 
A   28
 H9 
A   29
 H10
A   30
 H11
A   31
 H12
A   32
 H13
A   33
 H14
A   34
 H15
M  END
>  <ref_pdb>  (27) 
x0147_0A

>  <ref_mols>  (27) 
x0130_0AS3,x1140_0A

>  <original SMILES>  (27) 
[H]C(=O)N([H])N([H])C(=O)c1c([H])c([H])c(C([H])([H])N([H])S(=O)(=O)C([H])([H])C([H])([H])[H])c([H])c1[H]

>  <index>  (27) 
2046

>  <∆∆G>  (27) 
-7.742793

>  <comRMSD>  (27) 
0.702096

>  <N_constrained_atoms>  (27) 
22.0

>  <N_unconstrained_atoms>  (27) 
1.0

>  <LE>  (27) 
0.336643

>  <percent_hybrid>  (27) 
34.0

>  <max_hit_Tanimoto>  (27) 
0.369524

>  <largest_ring>  (27) 
6

>  <N_interactions_kept>  (27) 
1.5

>  <N_interactions_lost>  (27) 
5.0

>  <interaction_uniqueness_metric>  (27) 
0.299399

>  <N_HA>  (27) 
19

>  <N_rotatable_bonds>  (27) 
6

>  <N_interactions>  (27) 
10

>  <N_PAINS>  (27) 
0

>  <UFF_Gibbs>  (27) 
80.495087

>  <strain_per_HA>  (27) 
4.236561

>  <ad_hoc_penalty>  (27) 
-33.584902

>  <cluster>  (27) 
6889

>  <ranked>  (27) 
28.0

>  <merger_rank>  (27) 
1

>  <hydroph_interaction:LEU:127>  (27) 
2

>  <hbond:GLY:128>  (27) 
0

>  <hydroph_interaction:ALA:144>  (27) 
0

>  <hbond:GLY:164>  (27) 
1

>  <hbond:HIS:40>  (27) 
0

>  <pistack:HIS:40>  (27) 
1

>  <hydroph_interaction:LEU:125>  (27) 
0

>  <hydroph_interaction:PHE:170>  (27) 
0

>  <hydroph_interaction:HIS:40>  (27) 
1

>  <pication:HIS:40>  (27) 
0

>  <hbond:THR:142>  (27) 
0

>  <hbond:HIS:161>  (27) 
0

>  <hbond:GLY:166>  (27) 
0

>  <hbond:VAL:162>  (27) 
1

>  <hydroph_interaction:ASN:165>  (27) 
0

>  <hbond:ASN:126>  (27) 
0

>  <hbond:ARG:143>  (27) 
0

>  <hbond:GLU:71>  (27) 
1

>  <saltbridge:HIS:161>  (27) 
0

>  <hbond:ALA:144>  (27) 
0

>  <hbond:GLY:145>  (27) 
0

>  <hbond:GLN:146>  (27) 
0

>  <hbond:CYS:147>  (27) 
0

>  <halogenbond:ASN:126>  (27) 
0

>  <saltbridge:HIS:40>  (27) 
0

>  <hbond:LEU:127>  (27) 
0

>  <hbond:THR:130>  (27) 
2

>  <hydroph_interaction:GLU:71>  (27) 
0

>  <hydroph_interaction:THR:130>  (27) 
0

>  <saltbridge:ARG:143>  (27) 
0

>  <saltbridge:GLU:71>  (27) 
0

>  <hbond:GLY:129>  (27) 
0

>  <halogenbond:CYS:147>  (27) 
0

>  <hydroph_interaction:THR:39>  (27) 
0

>  <hbond:ASN:69>  (27) 
1

>  <hydroph_interaction:THR:132>  (27) 
0

>  <hbond:TYR:122>  (27) 
0

>  <hydroph_interaction:PHE:109>  (27) 
0

>  <hydroph_interaction:PHE:140>  (27) 
0

>  <hbond:PRO:141>  (27) 
0

$$$$
Z3381254294-x1084-0A
     RDKit          3D

 49 50  0  0  0  0  0  0  0  0999 V2000
   -9.6670   -4.0270   -7.5810 C   0  0  0  0  0  0  0  0  0  0  0  0
   -8.1660   -4.0820   -7.4530 C   0  0  0  0  0  0  0  0  0  0  0  0
   -7.4550   -4.0110   -8.7930 C   0  0  0  0  0  0  0  0  0  0  0  0
   -7.6860   -5.2910   -6.7120 C   0  0  0  0  0  0  0  0  0  0  0  0
   -7.0650   -6.3050   -7.6240 C   0  0  0  0  0  0  0  0  0  0  0  0
   -6.6860   -7.6480   -7.0090 C   0  0  0  0  0  0  0  0  0  0  0  0
   -7.6120   -8.0850   -5.9580 C   0  0  0  0  0  0  0  0  0  0  0  0
   -8.4260   -7.2380   -5.1610 C   0  0  0  0  0  0  0  0  0  0  0  0
   -7.7890   -7.0190   -3.8420 N   0  0  0  0  0  0  0  0  0  0  0  0
   -6.4790   -6.6200   -3.7020 C   0  0  0  0  0  0  0  0  0  0  0  0
   -6.1240   -5.2550   -3.7580 O   0  0  0  0  0  0  0  0  0  0  0  0
   -5.5530   -7.6600   -3.5450 C   0  0  0  0  0  0  0  0  0  0  0  0
   -4.9510   -7.7830   -2.1800 C   0  0  0  0  0  0  0  0  0  0  0  0
   -3.6600   -7.4730   -1.9230 C   0  0  0  0  0  0  0  0  0  0  0  0
   -3.1040   -7.6270   -0.6050 C   0  0  0  0  0  0  0  0  0  0  0  0
   -4.0220   -8.1450    0.4560 C   0  0  0  0  0  0  0  0  0  0  0  0
   -3.5410   -8.3350    1.7760 C   0  0  0  0  0  0  0  0  0  0  0  0
   -2.6550   -7.2190    2.0890 N   0  0  0  0  0  0  0  0  0  0  0  0
   -5.3370   -8.4380    0.1310 C   0  0  0  0  0  0  0  0  0  0  0  0
   -5.7850   -8.2570   -1.1660 C   0  0  0  0  0  0  0  0  0  0  0  0
   -8.8000   -5.9090   -5.8620 C   0  0  0  0  0  0  0  0  0  0  0  0
  -10.1140   -3.7350   -6.6240 H   0  0  0  0  0  0  0  0  0  0  0  0
  -10.0850   -4.9950   -7.8700 H   0  0  0  0  0  0  0  0  0  0  0  0
   -9.9640   -3.2900   -8.3360 H   0  0  0  0  0  0  0  0  0  0  0  0
   -7.8960   -3.2060   -6.8760 H   0  0  0  0  0  0  0  0  0  0  0  0
   -7.8190   -3.1730   -9.3630 H   0  0  0  0  0  0  0  0  0  0  0  0
   -6.3830   -3.8930   -8.6370 H   0  0  0  0  0  0  0  0  0  0  0  0
   -7.6020   -4.9300   -9.3600 H   0  0  0  0  0  0  0  0  0  0  0  0
   -6.9810   -4.9560   -5.9530 H   0  0  0  0  0  0  0  0  0  0  0  0
   -6.1840   -5.8750   -8.1090 H   0  0  0  0  0  0  0  0  0  0  0  0
   -7.7510   -6.4690   -8.4450 H   0  0  0  0  0  0  0  0  0  0  0  0
   -5.6300   -7.5720   -6.7230 H   0  0  0  0  0  0  0  0  0  0  0  0
   -6.7070   -8.4010   -7.8040 H   0  0  0  0  0  0  0  0  0  0  0  0
   -8.3110   -8.8010   -6.4020 H   0  0  0  0  0  0  0  0  0  0  0  0
   -7.0010   -8.6720   -5.2590 H   0  0  0  0  0  0  0  0  0  0  0  0
   -9.4050   -7.6600   -4.9420 H   0  0  0  0  0  0  0  0  0  0  0  0
   -8.3000   -7.2930   -3.0120 H   0  0  0  0  0  0  0  0  0  0  0  0
   -4.7900   -7.6000   -4.3050 H   0  0  0  0  0  0  0  0  0  0  0  0
   -6.0080   -8.6050   -3.8120 H   0  0  0  0  0  0  0  0  0  0  0  0
   -2.9720   -7.1060   -2.6750 H   0  0  0  0  0  0  0  0  0  0  0  0
   -2.0700   -7.3850   -0.3900 H   0  0  0  0  0  0  0  0  0  0  0  0
   -2.9500   -9.2320    1.9320 H   0  0  0  0  0  0  0  0  0  0  0  0
   -4.2930   -8.3380    2.5670 H   0  0  0  0  0  0  0  0  0  0  0  0
   -3.0680   -6.3510    1.7340 H   0  0  0  0  0  0  0  0  0  0  0  0
   -1.7580   -7.3230    1.5830 H   0  0  0  0  0  0  0  0  0  0  0  0
   -6.0220   -8.8120    0.8870 H   0  0  0  0  0  0  0  0  0  0  0  0
   -6.8220   -8.5000   -1.3890 H   0  0  0  0  0  0  0  0  0  0  0  0
   -9.6970   -6.0850   -6.4660 H   0  0  0  0  0  0  0  0  0  0  0  0
   -9.1010   -5.1700   -5.1110 H   0  0  0  0  0  0  0  0  0  0  0  0
  1  2  1  0
  2  3  1  0
  2  4  1  0
  4  5  1  0
  5  6  1  0
  6  7  1  0
  7  8  1  0
  8  9  1  0
  9 10  1  0
 10 11  2  0
 10 12  1  0
 12 13  1  0
 13 14  2  0
 14 15  1  0
 15 16  2  0
 16 17  1  0
 17 18  1  0
 16 19  1  0
 19 20  2  0
  8 21  1  0
 21  4  1  0
 20 13  1  0
  1 22  1  0
  1 23  1  0
  1 24  1  0
  2 25  1  0
  3 26  1  0
  3 27  1  0
  3 28  1  0
  4 29  1  0
  5 30  1  0
  5 31  1  0
  6 32  1  0
  6 33  1  0
  7 34  1  0
  7 35  1  0
  8 36  1  0
  9 37  1  0
 12 38  1  0
 12 39  1  0
 14 40  1  0
 15 41  1  0
 17 42  1  0
 17 43  1  0
 18 44  1  0
 18 45  1  0
 19 46  1  0
 20 47  1  0
 21 48  1  0
 21 49  1  0
A    1
 C1 
A    2
 C2 
A    3
 C3 
A    4
 C4 
A    5
 C5 
A    6
 C6 
A    7
 C7 
A    8
 C8 
A    9
 N1 
A   10
 C9 
A   11
 O1 
A   12
 C10
A   13
 C11
A   14
 C12
A   15
 C13
A   16
 C14
A   17
 C15
A   18
 N2 
A   19
 C16
A   20
 C17
A   21
 C18
A   22
 H1 
A   23
 H2 
A   24
 H3 
A   25
 H4 
A   26
 H5 
A   27
 H6 
A   28
 H7 
A   29
 H8 
A   30
 H9 
A   31
 H10
A   32
 H11
A   33
 H12
A   34
 H13
A   35
 H14
A   36
 H15
A   37
 H16
A   38
 H17
A   39
 H18
A   40
 H19
A   41
 H20
A   42
 H21
A   43
 H22
A   44
 H23
A   45
 H24
A   46
 H25
A   47
 H26
A   48
 H27
A   49
 H28
M  END
>  <ref_pdb>  (28) 
x0147_0A

>  <ref_mols>  (28) 
x1084_0A,x0771_0AS1

>  <original SMILES>  (28) 
[H]c1c([H])c(C([H])([H])N([H])[H])c([H])c([H])c1C([H])([H])C(=O)N([H])C1([H])C([H])([H])C([H])([H])C([H])([H])C([H])(C([H])(C([H])([H])[H])C([H])([H])[H])C1([H])[H]

>  <index>  (28) 
7079

>  <∆∆G>  (28) 
-8.144582

>  <comRMSD>  (28) 
0.84193

>  <N_constrained_atoms>  (28) 
21.0

>  <N_unconstrained_atoms>  (28) 
0.0

>  <LE>  (28) 
0.387837

>  <percent_hybrid>  (28) 
43.0

>  <max_hit_Tanimoto>  (28) 
0.164969

>  <largest_ring>  (28) 
6

>  <N_interactions_kept>  (28) 
2.0

>  <N_interactions_lost>  (28) 
2.5

>  <interaction_uniqueness_metric>  (28) 
0.173035

>  <N_HA>  (28) 
21

>  <N_rotatable_bonds>  (28) 
8

>  <N_interactions>  (28) 
7

>  <N_PAINS>  (28) 
0

>  <UFF_Gibbs>  (28) 
152.680205

>  <strain_per_HA>  (28) 
7.270451

>  <ad_hoc_penalty>  (28) 
-33.578134

>  <cluster>  (28) 
5649

>  <ranked>  (28) 
29.0

>  <merger_rank>  (28) 
1

>  <hydroph_interaction:LEU:127>  (28) 
1

>  <hbond:GLY:128>  (28) 
0

>  <hydroph_interaction:ALA:144>  (28) 
1

>  <hbond:GLY:164>  (28) 
1

>  <hbond:HIS:40>  (28) 
0

>  <pistack:HIS:40>  (28) 
1

>  <hydroph_interaction:LEU:125>  (28) 
0

>  <hydroph_interaction:PHE:170>  (28) 
0

>  <hydroph_interaction:HIS:40>  (28) 
1

>  <pication:HIS:40>  (28) 
0

>  <hbond:THR:142>  (28) 
0

>  <hbond:HIS:161>  (28) 
0

>  <hbond:GLY:166>  (28) 
0

>  <hbond:VAL:162>  (28) 
0

>  <hydroph_interaction:ASN:165>  (28) 
0

>  <hbond:ASN:126>  (28) 
0

>  <hbond:ARG:143>  (28) 
0

>  <hbond:GLU:71>  (28) 
0

>  <saltbridge:HIS:161>  (28) 
0

>  <hbond:ALA:144>  (28) 
0

>  <hbond:GLY:145>  (28) 
0

>  <hbond:GLN:146>  (28) 
0

>  <hbond:CYS:147>  (28) 
0

>  <halogenbond:ASN:126>  (28) 
0

>  <saltbridge:HIS:40>  (28) 
0

>  <hbond:LEU:127>  (28) 
1

>  <hbond:THR:130>  (28) 
1

>  <hydroph_interaction:GLU:71>  (28) 
0

>  <hydroph_interaction:THR:130>  (28) 
0

>  <saltbridge:ARG:143>  (28) 
0

>  <saltbridge:GLU:71>  (28) 
0

>  <hbond:GLY:129>  (28) 
0

>  <halogenbond:CYS:147>  (28) 
0

>  <hydroph_interaction:THR:39>  (28) 
0

>  <hbond:ASN:69>  (28) 
0

>  <hydroph_interaction:THR:132>  (28) 
0

>  <hbond:TYR:122>  (28) 
0

>  <hydroph_interaction:PHE:109>  (28) 
0

>  <hydroph_interaction:PHE:140>  (28) 
0

>  <hbond:PRO:141>  (28) 
0

$$$$
PV-002212510091-x0771-1AS1
     RDKit          3D

 36 38  0  0  0  0  0  0  0  0999 V2000
   -7.1120   -4.2870   -9.2530 N   0  0  0  0  0  0  0  0  0  0  0  0
   -7.9560   -4.4640   -8.2220 C   0  0  0  0  0  0  0  0  0  0  0  0
   -9.1020   -3.6400   -8.0350 O   0  0  0  0  0  0  0  0  0  0  0  0
   -7.5950   -5.5640   -7.2760 C   0  0  0  0  0  0  0  0  0  0  0  0
   -7.9540   -5.2540   -5.8690 C   0  0  0  0  0  0  0  0  0  0  0  0
   -7.5870   -6.3340   -4.8720 C   0  0  0  0  0  0  0  0  0  0  0  0
   -6.9040   -7.6030   -5.4090 C   0  0  0  0  0  0  0  0  0  0  0  0
   -6.5240   -8.6450   -4.3730 C   0  0  0  0  0  0  0  0  0  0  0  0
   -5.7780   -7.8320   -3.4120 N   0  0  0  0  0  0  0  0  0  0  0  0
   -5.3470   -8.1340   -2.1100 C   0  0  0  0  0  0  0  0  0  0  0  0
   -6.0340   -9.0410   -1.1030 C   0  0  0  0  0  0  0  0  0  0  0  0
   -5.4670   -9.2290    0.1890 C   0  0  0  0  0  0  0  0  0  0  0  0
   -4.2820   -8.5610    0.4890 C   0  0  0  0  0  0  0  0  0  0  0  0
   -3.5770   -8.5920    1.6520 C   0  0  0  0  0  0  0  0  0  0  0  0
   -2.4620   -7.7660    1.5290 C   0  0  0  0  0  0  0  0  0  0  0  0
   -2.4890   -7.2250    0.1730 O   0  0  0  0  0  0  0  0  0  0  0  0
   -3.6320   -7.7480   -0.3770 C   0  0  0  0  0  0  0  0  0  0  0  0
   -4.1560   -7.5060   -1.7250 C   0  0  0  0  0  0  0  0  0  0  0  0
   -6.6420   -7.7500   -6.7870 C   0  0  0  0  0  0  0  0  0  0  0  0
   -6.9790   -6.7440   -7.7020 C   0  0  0  0  0  0  0  0  0  0  0  0
   -6.4830   -5.0600   -9.4580 H   0  0  0  0  0  0  0  0  0  0  0  0
   -6.8470   -3.3790   -9.5800 H   0  0  0  0  0  0  0  0  0  0  0  0
   -8.4340   -4.3300   -5.5600 H   0  0  0  0  0  0  0  0  0  0  0  0
   -7.7990   -6.2030   -3.8140 H   0  0  0  0  0  0  0  0  0  0  0  0
   -7.4260   -9.0900   -3.9370 H   0  0  0  0  0  0  0  0  0  0  0  0
   -5.9020   -9.4350   -4.8160 H   0  0  0  0  0  0  0  0  0  0  0  0
   -5.9340   -6.8350   -3.5370 H   0  0  0  0  0  0  0  0  0  0  0  0
   -6.9580   -9.5560   -1.3440 H   0  0  0  0  0  0  0  0  0  0  0  0
   -5.9510   -9.8710    0.9150 H   0  0  0  0  0  0  0  0  0  0  0  0
   -4.2160   -8.2110    2.4560 H   0  0  0  0  0  0  0  0  0  0  0  0
   -3.2590   -9.6020    1.9130 H   0  0  0  0  0  0  0  0  0  0  0  0
   -1.5280   -8.3110    1.6960 H   0  0  0  0  0  0  0  0  0  0  0  0
   -2.5030   -6.9200    2.2250 H   0  0  0  0  0  0  0  0  0  0  0  0
   -3.6260   -6.8510   -2.4040 H   0  0  0  0  0  0  0  0  0  0  0  0
   -6.1620   -8.6520   -7.1500 H   0  0  0  0  0  0  0  0  0  0  0  0
   -6.7540   -6.8840   -8.7580 H   0  0  0  0  0  0  0  0  0  0  0  0
  1  2  1  0
  2  3  2  0
  2  4  1  0
  4  5  2  0
  5  6  1  0
  6  7  2  0
  7  8  1  0
  8  9  1  0
  9 10  1  0
 10 11  2  0
 11 12  1  0
 12 13  2  0
 13 14  1  0
 14 15  1  0
 15 16  1  0
 16 17  1  0
 17 18  2  0
  7 19  1  0
 19 20  2  0
 20  4  1  0
 18 10  1  0
 17 13  1  0
  1 21  1  0
  1 22  1  0
  5 23  1  0
  6 24  1  0
  8 25  1  0
  8 26  1  0
  9 27  1  0
 11 28  1  0
 12 29  1  0
 14 30  1  0
 14 31  1  0
 15 32  1  0
 15 33  1  0
 18 34  1  0
 19 35  1  0
 20 36  1  0
A    1
 N1 
A    2
 C1 
A    3
 O1 
A    4
 C2 
A    5
 C3 
A    6
 C4 
A    7
 C5 
A    8
 C6 
A    9
 N2 
A   10
 C7 
A   11
 C8 
A   12
 C9 
A   13
 C10
A   14
 C11
A   15
 C12
A   16
 O2 
A   17
 C13
A   18
 C14
A   19
 C15
A   20
 C16
A   21
 H1 
A   22
 H2 
A   23
 H3 
A   24
 H4 
A   25
 H5 
A   26
 H6 
A   27
 H7 
A   28
 H8 
A   29
 H9 
A   30
 H10
A   31
 H11
A   32
 H12
A   33
 H13
A   34
 H14
A   35
 H15
A   36
 H16
M  END
>  <ref_pdb>  (29) 
x0147_0A

>  <ref_mols>  (29) 
x0771_1AS1,x1140_0AS2

>  <original SMILES>  (29) 
[H]c1c([H])c(C([H])([H])N([H])c2c([H])c([H])c3c(c2[H])OC([H])([H])C3([H])[H])c([H])c([H])c1C(=O)N([H])[H]

>  <index>  (29) 
16773

>  <∆∆G>  (29) 
-5.803034

>  <comRMSD>  (29) 
0.31351

>  <N_constrained_atoms>  (29) 
19.0

>  <N_unconstrained_atoms>  (29) 
1.0

>  <LE>  (29) 
0.290152

>  <percent_hybrid>  (29) 
48.0

>  <max_hit_Tanimoto>  (29) 
0.215726

>  <largest_ring>  (29) 
6

>  <N_interactions_kept>  (29) 
2.0

>  <N_interactions_lost>  (29) 
1.5

>  <interaction_uniqueness_metric>  (29) 
0.155014

>  <N_HA>  (29) 
20

>  <N_rotatable_bonds>  (29) 
4

>  <N_interactions>  (29) 
5

>  <N_PAINS>  (29) 
0

>  <UFF_Gibbs>  (29) 
124.94785

>  <strain_per_HA>  (29) 
6.247361

>  <ad_hoc_penalty>  (29) 
-33.333803

>  <cluster>  (29) 
3086

>  <ranked>  (29) 
30.0

>  <merger_rank>  (29) 
1

>  <hydroph_interaction:LEU:127>  (29) 
1

>  <hbond:GLY:128>  (29) 
0

>  <hydroph_interaction:ALA:144>  (29) 
0

>  <hbond:GLY:164>  (29) 
0

>  <hbond:HIS:40>  (29) 
0

>  <pistack:HIS:40>  (29) 
1

>  <hydroph_interaction:LEU:125>  (29) 
0

>  <hydroph_interaction:PHE:170>  (29) 
0

>  <hydroph_interaction:HIS:40>  (29) 
1

>  <pication:HIS:40>  (29) 
0

>  <hbond:THR:142>  (29) 
0

>  <hbond:HIS:161>  (29) 
1

>  <hbond:GLY:166>  (29) 
0

>  <hbond:VAL:162>  (29) 
1

>  <hydroph_interaction:ASN:165>  (29) 
0

>  <hbond:ASN:126>  (29) 
0

>  <hbond:ARG:143>  (29) 
0

>  <hbond:GLU:71>  (29) 
0

>  <saltbridge:HIS:161>  (29) 
0

>  <hbond:ALA:144>  (29) 
0

>  <hbond:GLY:145>  (29) 
0

>  <hbond:GLN:146>  (29) 
0

>  <hbond:CYS:147>  (29) 
0

>  <halogenbond:ASN:126>  (29) 
0

>  <saltbridge:HIS:40>  (29) 
0

>  <hbond:LEU:127>  (29) 
0

>  <hbond:THR:130>  (29) 
0

>  <hydroph_interaction:GLU:71>  (29) 
0

>  <hydroph_interaction:THR:130>  (29) 
0

>  <saltbridge:ARG:143>  (29) 
0

>  <saltbridge:GLU:71>  (29) 
0

>  <hbond:GLY:129>  (29) 
0

>  <halogenbond:CYS:147>  (29) 
0

>  <hydroph_interaction:THR:39>  (29) 
0

>  <hbond:ASN:69>  (29) 
0

>  <hydroph_interaction:THR:132>  (29) 
0

>  <hbond:TYR:122>  (29) 
0

>  <hydroph_interaction:PHE:109>  (29) 
0

>  <hydroph_interaction:PHE:140>  (29) 
0

>  <hbond:PRO:141>  (29) 
0

$$$$
Z2920427818-x1084-0AS1
     RDKit          3D

 31 31  0  0  0  0  0  0  0  0999 V2000
   -9.7630   -2.8500   -5.0150 C   0  0  0  0  0  0  0  0  0  0  0  0
  -10.8120   -3.7720   -5.2690 O   0  0  0  0  0  0  0  0  0  0  0  0
  -10.9010   -4.0910   -6.5680 C   0  0  0  0  0  0  0  0  0  0  0  0
  -11.9170   -4.1750   -7.2400 O   0  0  0  0  0  0  0  0  0  0  0  0
   -9.5590   -4.3230   -7.1320 C   0  0  0  0  0  0  0  0  0  0  0  0
   -9.2050   -3.3750   -8.0650 C   0  0  0  0  0  0  0  0  0  0  0  0
   -8.0040   -3.4520   -8.6900 C   0  0  0  0  0  0  0  0  0  0  0  0
   -7.1120   -4.4670   -8.4280 C   0  0  0  0  0  0  0  0  0  0  0  0
   -7.4420   -5.4280   -7.4860 C   0  0  0  0  0  0  0  0  0  0  0  0
   -8.6730   -5.3700   -6.8070 C   0  0  0  0  0  0  0  0  0  0  0  0
   -8.9600   -6.4330   -5.7680 C   0  0  0  0  0  0  0  0  0  0  0  0
   -7.8600   -7.4880   -5.6110 C   0  0  0  0  0  0  0  0  0  0  0  0
   -6.7620   -7.0110   -4.7810 N   0  0  0  0  0  0  0  0  0  0  0  0
   -6.9870   -6.2440   -3.6570 C   0  0  0  0  0  0  0  0  0  0  0  0
   -6.8770   -4.7560   -3.8790 C   0  0  0  0  0  0  0  0  0  0  0  0
   -7.2660   -6.7080   -2.5520 O   0  0  0  0  0  0  0  0  0  0  0  0
   -9.9180   -2.4110   -4.0250 H   0  0  0  0  0  0  0  0  0  0  0  0
   -8.7960   -3.3640   -5.0180 H   0  0  0  0  0  0  0  0  0  0  0  0
   -9.7780   -2.0450   -5.7560 H   0  0  0  0  0  0  0  0  0  0  0  0
   -9.8840   -2.5610   -8.3080 H   0  0  0  0  0  0  0  0  0  0  0  0
   -7.7850   -2.6950   -9.3910 H   0  0  0  0  0  0  0  0  0  0  0  0
   -6.1660   -4.5110   -8.9470 H   0  0  0  0  0  0  0  0  0  0  0  0
   -6.7280   -6.2230   -7.2790 H   0  0  0  0  0  0  0  0  0  0  0  0
   -9.9280   -6.8940   -5.9500 H   0  0  0  0  0  0  0  0  0  0  0  0
   -9.0790   -5.9390   -4.7950 H   0  0  0  0  0  0  0  0  0  0  0  0
   -8.2370   -8.4080   -5.1550 H   0  0  0  0  0  0  0  0  0  0  0  0
   -7.4710   -7.7530   -6.6010 H   0  0  0  0  0  0  0  0  0  0  0  0
   -5.8930   -7.5390   -4.8150 H   0  0  0  0  0  0  0  0  0  0  0  0
   -7.6950   -4.2520   -3.3630 H   0  0  0  0  0  0  0  0  0  0  0  0
   -5.9220   -4.4050   -3.4830 H   0  0  0  0  0  0  0  0  0  0  0  0
   -6.9430   -4.5080   -4.9410 H   0  0  0  0  0  0  0  0  0  0  0  0
  1  2  1  0
  2  3  1  0
  3  4  2  0
  3  5  1  0
  5  6  2  0
  6  7  1  0
  7  8  2  0
  8  9  1  0
  9 10  2  0
 10 11  1  0
 11 12  1  0
 12 13  1  0
 13 14  1  0
 14 15  1  0
 14 16  2  0
 10  5  1  0
  1 17  1  0
  1 18  1  0
  1 19  1  0
  6 20  1  0
  7 21  1  0
  8 22  1  0
  9 23  1  0
 11 24  1  0
 11 25  1  0
 12 26  1  0
 12 27  1  0
 13 28  1  0
 15 29  1  0
 15 30  1  0
 15 31  1  0
A    1
 C1 
A    2
 O1 
A    3
 C2 
A    4
 O2 
A    5
 C3 
A    6
 C4 
A    7
 C5 
A    8
 C6 
A    9
 C7 
A   10
 C8 
A   11
 C9 
A   12
 C10
A   13
 N1 
A   14
 C11
A   15
 C12
A   16
 O3 
A   17
 H1 
A   18
 H2 
A   19
 H3 
A   20
 H4 
A   21
 H5 
A   22
 H6 
A   23
 H7 
A   24
 H8 
A   25
 H9 
A   26
 H10
A   27
 H11
A   28
 H12
A   29
 H13
A   30
 H14
A   31
 H15
M  END
>  <ref_pdb>  (30) 
x0147_0A

>  <ref_mols>  (30) 
x1084_0AS1,x0980_0BS4

>  <original SMILES>  (30) 
[H]c1c([H])c([H])c(C([H])([H])C([H])([H])N([H])C(=O)C([H])([H])[H])c(C(=O)OC([H])([H])[H])c1[H]

>  <index>  (30) 
12530

>  <∆∆G>  (30) 
-7.8083

>  <comRMSD>  (30) 
0.496242

>  <N_constrained_atoms>  (30) 
13.0

>  <N_unconstrained_atoms>  (30) 
3.0

>  <LE>  (30) 
0.488019

>  <percent_hybrid>  (30) 
31.0

>  <max_hit_Tanimoto>  (30) 
0.123832

>  <largest_ring>  (30) 
6

>  <N_interactions_kept>  (30) 
1.0

>  <N_interactions_lost>  (30) 
0.0

>  <interaction_uniqueness_metric>  (30) 
0.050319

>  <N_HA>  (30) 
16

>  <N_rotatable_bonds>  (30) 
6

>  <N_interactions>  (30) 
2

>  <N_PAINS>  (30) 
0

>  <UFF_Gibbs>  (30) 
73.520265

>  <strain_per_HA>  (30) 
4.594988

>  <ad_hoc_penalty>  (30) 
-33.326729

>  <cluster>  (30) 
4249

>  <ranked>  (30) 
31.0

>  <merger_rank>  (30) 
1

>  <hydroph_interaction:LEU:127>  (30) 
0

>  <hbond:GLY:128>  (30) 
0

>  <hydroph_interaction:ALA:144>  (30) 
1

>  <hbond:GLY:164>  (30) 
0

>  <hbond:HIS:40>  (30) 
0

>  <pistack:HIS:40>  (30) 
0

>  <hydroph_interaction:LEU:125>  (30) 
0

>  <hydroph_interaction:PHE:170>  (30) 
0

>  <hydroph_interaction:HIS:40>  (30) 
0

>  <pication:HIS:40>  (30) 
0

>  <hbond:THR:142>  (30) 
0

>  <hbond:HIS:161>  (30) 
0

>  <hbond:GLY:166>  (30) 
0

>  <hbond:VAL:162>  (30) 
1

>  <hydroph_interaction:ASN:165>  (30) 
0

>  <hbond:ASN:126>  (30) 
0

>  <hbond:ARG:143>  (30) 
0

>  <hbond:GLU:71>  (30) 
0

>  <saltbridge:HIS:161>  (30) 
0

>  <hbond:ALA:144>  (30) 
0

>  <hbond:GLY:145>  (30) 
0

>  <hbond:GLN:146>  (30) 
0

>  <hbond:CYS:147>  (30) 
0

>  <halogenbond:ASN:126>  (30) 
0

>  <saltbridge:HIS:40>  (30) 
0

>  <hbond:LEU:127>  (30) 
0

>  <hbond:THR:130>  (30) 
0

>  <hydroph_interaction:GLU:71>  (30) 
0

>  <hydroph_interaction:THR:130>  (30) 
0

>  <saltbridge:ARG:143>  (30) 
0

>  <saltbridge:GLU:71>  (30) 
0

>  <hbond:GLY:129>  (30) 
0

>  <halogenbond:CYS:147>  (30) 
0

>  <hydroph_interaction:THR:39>  (30) 
0

>  <hbond:ASN:69>  (30) 
0

>  <hydroph_interaction:THR:132>  (30) 
0

>  <hbond:TYR:122>  (30) 
0

>  <hydroph_interaction:PHE:109>  (30) 
0

>  <hydroph_interaction:PHE:140>  (30) 
0

>  <hbond:PRO:141>  (30) 
0

$$$$
Z4612006607-x1071-0A
     RDKit          3D

 42 43  0  0  0  0  0  0  0  0999 V2000
   -5.7720   -0.1030   -2.3840 C   0  0  0  0  0  0  0  0  0  0  0  0
   -6.8350   -0.7170   -1.1010 S   0  0  0  0  0  6  0  0  0  0  0  0
   -6.0190   -0.8560    0.0510 O   0  0  0  0  0  0  0  0  0  0  0  0
   -8.0160    0.1080   -1.0530 O   0  0  0  0  0  0  0  0  0  0  0  0
   -7.3410   -2.3640   -1.7400 C   0  0  0  0  0  0  0  0  0  0  0  0
   -6.1350   -3.2330   -2.1030 C   0  0  0  0  0  0  0  0  0  0  0  0
   -6.3920   -4.5260   -2.8490 C   0  0  0  0  0  0  0  0  0  0  0  0
   -6.7130   -4.4790   -4.0420 O   0  0  0  0  0  0  0  0  0  0  0  0
   -6.1780   -5.7750   -2.0380 N   0  0  0  0  0  0  0  0  0  0  0  0
   -6.9770   -6.0480   -0.8160 C   0  0  0  0  0  0  0  0  0  0  0  0
   -6.4950   -7.0510    0.0590 C   0  0  0  0  0  0  0  0  0  0  0  0
   -5.2090   -7.5470   -0.1900 C   0  0  0  0  0  0  0  0  0  0  0  0
   -4.1170   -6.8660    0.3370 C   0  0  0  0  0  0  0  0  0  0  0  0
   -3.0340   -7.6440    0.8970 C   0  0  0  0  0  0  0  0  0  0  0  0
   -3.4540   -8.3780    1.9770 C   0  0  0  0  0  0  0  0  0  0  0  0
   -4.8460   -8.6530    1.8170 O   0  0  0  0  0  0  0  0  0  0  0  0
   -5.1510   -8.8770    0.6290 C   0  0  0  0  0  0  0  0  0  0  0  0
   -4.8360   -7.7570   -1.7050 C   0  0  0  0  0  0  0  0  0  0  0  0
   -5.6110   -6.9340   -2.5880 C   0  0  0  0  0  0  0  0  0  0  0  0
   -6.3270    0.6340   -2.9700 H   0  0  0  0  0  0  0  0  0  0  0  0
   -4.8850    0.3690   -1.9500 H   0  0  0  0  0  0  0  0  0  0  0  0
   -5.4560   -0.9150   -3.0430 H   0  0  0  0  0  0  0  0  0  0  0  0
   -7.9930   -2.2120   -2.6090 H   0  0  0  0  0  0  0  0  0  0  0  0
   -7.9300   -2.8660   -0.9630 H   0  0  0  0  0  0  0  0  0  0  0  0
   -5.4960   -2.6170   -2.7330 H   0  0  0  0  0  0  0  0  0  0  0  0
   -5.5830   -3.4620   -1.2020 H   0  0  0  0  0  0  0  0  0  0  0  0
   -6.9940   -5.1140   -0.2690 H   0  0  0  0  0  0  0  0  0  0  0  0
   -7.9910   -6.2110   -1.1590 H   0  0  0  0  0  0  0  0  0  0  0  0
   -6.6680   -6.8460    1.1110 H   0  0  0  0  0  0  0  0  0  0  0  0
   -7.1540   -7.9080   -0.1210 H   0  0  0  0  0  0  0  0  0  0  0  0
   -3.7830   -6.2660   -0.4850 H   0  0  0  0  0  0  0  0  0  0  0  0
   -4.5550   -6.1590    1.0300 H   0  0  0  0  0  0  0  0  0  0  0  0
   -2.6980   -8.3450    0.1270 H   0  0  0  0  0  0  0  0  0  0  0  0
   -2.1380   -7.0870    1.1940 H   0  0  0  0  0  0  0  0  0  0  0  0
   -2.9890   -9.3430    2.1600 H   0  0  0  0  0  0  0  0  0  0  0  0
   -3.3370   -7.7680    2.8830 H   0  0  0  0  0  0  0  0  0  0  0  0
   -4.4000   -9.5530    0.2180 H   0  0  0  0  0  0  0  0  0  0  0  0
   -6.1060   -9.3970    0.6220 H   0  0  0  0  0  0  0  0  0  0  0  0
   -3.7640   -7.5880   -1.7650 H   0  0  0  0  0  0  0  0  0  0  0  0
   -4.9200   -8.8350   -1.8950 H   0  0  0  0  0  0  0  0  0  0  0  0
   -6.4160   -7.5310   -3.0360 H   0  0  0  0  0  0  0  0  0  0  0  0
   -5.0300   -6.6070   -3.4510 H   0  0  0  0  0  0  0  0  0  0  0  0
  1  2  1  0
  2  3  2  0
  2  4  2  0
  2  5  1  0
  5  6  1  0
  6  7  1  0
  7  8  2  0
  7  9  1  0
  9 10  1  0
 10 11  1  0
 11 12  1  0
 12 13  1  0
 13 14  1  0
 14 15  1  0
 15 16  1  0
 16 17  1  0
 12 18  1  0
 18 19  1  0
 19  9  1  0
 17 12  1  0
  1 20  1  0
  1 21  1  0
  1 22  1  0
  5 23  1  0
  5 24  1  0
  6 25  1  0
  6 26  1  0
 10 27  1  0
 10 28  1  0
 11 29  1  0
 11 30  1  0
 13 31  1  0
 13 32  1  0
 14 33  1  0
 14 34  1  0
 15 35  1  0
 15 36  1  0
 17 37  1  0
 17 38  1  0
 18 39  1  0
 18 40  1  0
 19 41  1  0
 19 42  1  0
A    1
 C1 
A    2
 S1 
A    3
 O1 
A    4
 O2 
A    5
 C2 
A    6
 C3 
A    7
 C4 
A    8
 O3 
A    9
 N1 
A   10
 C5 
A   11
 C6 
A   12
 C7 
A   13
 C8 
A   14
 C9 
A   15
 C10
A   16
 O4 
A   17
 C11
A   18
 C12
A   19
 C13
A   20
 H1 
A   21
 H2 
A   22
 H3 
A   23
 H4 
A   24
 H5 
A   25
 H6 
A   26
 H7 
A   27
 H8 
A   28
 H9 
A   29
 H10
A   30
 H11
A   31
 H12
A   32
 H13
A   33
 H14
A   34
 H15
A   35
 H16
A   36
 H17
A   37
 H18
A   38
 H19
A   39
 H20
A   40
 H21
A   41
 H22
A   42
 H23
M  END
>  <ref_pdb>  (31) 
x0147_0A

>  <ref_mols>  (31) 
x1071_0A,x1083_0A

>  <original SMILES>  (31) 
[H]C1([H])OC([H])([H])C2(C([H])([H])C([H])([H])N(C(=O)C([H])([H])C([H])([H])S(=O)(=O)C([H])([H])[H])C([H])([H])C2([H])[H])C([H])([H])C1([H])[H]

>  <index>  (31) 
14417

>  <∆∆G>  (31) 
-7.663424

>  <comRMSD>  (31) 
0.885817

>  <N_constrained_atoms>  (31) 
22.0

>  <N_unconstrained_atoms>  (31) 
0.0

>  <LE>  (31) 
0.348337

>  <percent_hybrid>  (31) 
43.0

>  <max_hit_Tanimoto>  (31) 
0.263374

>  <largest_ring>  (31) 
6

>  <N_interactions_kept>  (31) 
4.0

>  <N_interactions_lost>  (31) 
1.0

>  <interaction_uniqueness_metric>  (31) 
0.024264

>  <N_HA>  (31) 
19

>  <N_rotatable_bonds>  (31) 
4

>  <N_interactions>  (31) 
3

>  <N_PAINS>  (31) 
0

>  <UFF_Gibbs>  (31) 
186.255774

>  <strain_per_HA>  (31) 
9.802884

>  <ad_hoc_penalty>  (31) 
-33.262892

>  <cluster>  (31) 
3742

>  <ranked>  (31) 
32.0

>  <merger_rank>  (31) 
3

>  <hydroph_interaction:LEU:127>  (31) 
2

>  <hbond:GLY:128>  (31) 
0

>  <hydroph_interaction:ALA:144>  (31) 
0

>  <hbond:GLY:164>  (31) 
1

>  <hbond:HIS:40>  (31) 
0

>  <pistack:HIS:40>  (31) 
0

>  <hydroph_interaction:LEU:125>  (31) 
0

>  <hydroph_interaction:PHE:170>  (31) 
0

>  <hydroph_interaction:HIS:40>  (31) 
0

>  <pication:HIS:40>  (31) 
0

>  <hbond:THR:142>  (31) 
0

>  <hbond:HIS:161>  (31) 
0

>  <hbond:GLY:166>  (31) 
0

>  <hbond:VAL:162>  (31) 
0

>  <hydroph_interaction:ASN:165>  (31) 
0

>  <hbond:ASN:126>  (31) 
0

>  <hbond:ARG:143>  (31) 
0

>  <hbond:GLU:71>  (31) 
0

>  <saltbridge:HIS:161>  (31) 
0

>  <hbond:ALA:144>  (31) 
0

>  <hbond:GLY:145>  (31) 
0

>  <hbond:GLN:146>  (31) 
0

>  <hbond:CYS:147>  (31) 
0

>  <halogenbond:ASN:126>  (31) 
0

>  <saltbridge:HIS:40>  (31) 
0

>  <hbond:LEU:127>  (31) 
0

>  <hbond:THR:130>  (31) 
0

>  <hydroph_interaction:GLU:71>  (31) 
0

>  <hydroph_interaction:THR:130>  (31) 
0

>  <saltbridge:ARG:143>  (31) 
0

>  <saltbridge:GLU:71>  (31) 
0

>  <hbond:GLY:129>  (31) 
0

>  <halogenbond:CYS:147>  (31) 
0

>  <hydroph_interaction:THR:39>  (31) 
0

>  <hbond:ASN:69>  (31) 
0

>  <hydroph_interaction:THR:132>  (31) 
0

>  <hbond:TYR:122>  (31) 
0

>  <hydroph_interaction:PHE:109>  (31) 
0

>  <hydroph_interaction:PHE:140>  (31) 
0

>  <hbond:PRO:141>  (31) 
0

$$$$
Z2782617650-x1071-0A
     RDKit          3D

 42 43  0  0  0  0  0  0  0  0999 V2000
   -5.8220   -0.0770   -2.3730 C   0  0  0  0  0  0  0  0  0  0  0  0
   -6.8870   -0.7340   -1.0800 S   0  0  0  0  0  6  0  0  0  0  0  0
   -6.0310   -0.9030    0.0400 O   0  0  0  0  0  0  0  0  0  0  0  0
   -8.0530    0.1100   -1.0020 O   0  0  0  0  0  0  0  0  0  0  0  0
   -7.4270   -2.3590   -1.7640 C   0  0  0  0  0  0  0  0  0  0  0  0
   -6.2480   -3.2090   -2.2270 C   0  0  0  0  0  0  0  0  0  0  0  0
   -6.5610   -4.6230   -2.7230 C   0  0  0  0  0  0  0  0  0  0  0  0
   -7.2710   -4.8050   -3.7150 O   0  0  0  0  0  0  0  0  0  0  0  0
   -5.9300   -5.7200   -1.9130 N   0  0  0  0  0  0  0  0  0  0  0  0
   -6.7150   -6.1130   -0.7510 C   0  0  0  0  0  0  0  0  0  0  0  0
   -5.7490   -6.7230    0.2880 C   0  0  0  0  0  0  0  0  0  0  0  0
   -4.9560   -7.7870   -0.2280 C   0  0  0  0  0  0  0  0  0  0  0  0
   -5.1970   -8.9630    0.5160 C   0  0  0  0  0  0  0  0  0  0  0  0
   -4.8500   -8.9810    1.8880 C   0  0  0  0  0  0  0  0  0  0  0  0
   -3.0770   -8.6360    2.0890 S   0  0  0  0  0  0  0  0  0  0  0  0
   -3.1080   -7.1630    1.0360 C   0  0  0  0  0  0  0  0  0  0  0  0
   -3.5800   -7.5440   -0.2270 C   0  0  0  0  0  0  0  0  0  0  0  0
   -5.2630   -8.0650   -1.7640 C   0  0  0  0  0  0  0  0  0  0  0  0
   -5.4370   -6.9320   -2.6150 C   0  0  0  0  0  0  0  0  0  0  0  0
   -5.4930   -0.8930   -3.0200 H   0  0  0  0  0  0  0  0  0  0  0  0
   -4.9580    0.3780   -1.8820 H   0  0  0  0  0  0  0  0  0  0  0  0
   -6.3690    0.6740   -2.9340 H   0  0  0  0  0  0  0  0  0  0  0  0
   -7.9950   -2.8780   -0.9840 H   0  0  0  0  0  0  0  0  0  0  0  0
   -8.0890   -2.1480   -2.6090 H   0  0  0  0  0  0  0  0  0  0  0  0
   -5.5770   -3.2880   -1.3770 H   0  0  0  0  0  0  0  0  0  0  0  0
   -5.7380   -2.6640   -3.0290 H   0  0  0  0  0  0  0  0  0  0  0  0
   -7.2410   -5.2490   -0.3420 H   0  0  0  0  0  0  0  0  0  0  0  0
   -7.4770   -6.8550   -1.0150 H   0  0  0  0  0  0  0  0  0  0  0  0
   -6.2880   -7.0610    1.1820 H   0  0  0  0  0  0  0  0  0  0  0  0
   -5.0300   -5.9620    0.5910 H   0  0  0  0  0  0  0  0  0  0  0  0
   -6.2610   -9.2200    0.4480 H   0  0  0  0  0  0  0  0  0  0  0  0
   -4.6720   -9.7850    0.0220 H   0  0  0  0  0  0  0  0  0  0  0  0
   -5.0110  -10.0020    2.2540 H   0  0  0  0  0  0  0  0  0  0  0  0
   -5.3940   -8.3360    2.5720 H   0  0  0  0  0  0  0  0  0  0  0  0
   -3.7340   -6.4730    1.5720 H   0  0  0  0  0  0  0  0  0  0  0  0
   -2.1020   -6.7600    1.0810 H   0  0  0  0  0  0  0  0  0  0  0  0
   -3.3780   -6.8840   -1.0610 H   0  0  0  0  0  0  0  0  0  0  0  0
   -3.0730   -8.4720   -0.4840 H   0  0  0  0  0  0  0  0  0  0  0  0
   -6.1710   -8.6750   -1.8320 H   0  0  0  0  0  0  0  0  0  0  0  0
   -4.4320   -8.6270   -2.2040 H   0  0  0  0  0  0  0  0  0  0  0  0
   -6.1300   -7.1670   -3.4220 H   0  0  0  0  0  0  0  0  0  0  0  0
   -4.4870   -6.6510   -3.0760 H   0  0  0  0  0  0  0  0  0  0  0  0
  1  2  1  0
  2  3  2  0
  2  4  2  0
  2  5  1  0
  5  6  1  0
  6  7  1  0
  7  8  2  0
  7  9  1  0
  9 10  1  0
 10 11  1  0
 11 12  1  0
 12 13  1  0
 13 14  1  0
 14 15  1  0
 15 16  1  0
 16 17  1  0
 12 18  1  0
 18 19  1  0
 19  9  1  0
 17 12  1  0
  1 20  1  0
  1 21  1  0
  1 22  1  0
  5 23  1  0
  5 24  1  0
  6 25  1  0
  6 26  1  0
 10 27  1  0
 10 28  1  0
 11 29  1  0
 11 30  1  0
 13 31  1  0
 13 32  1  0
 14 33  1  0
 14 34  1  0
 16 35  1  0
 16 36  1  0
 17 37  1  0
 17 38  1  0
 18 39  1  0
 18 40  1  0
 19 41  1  0
 19 42  1  0
A    1
 C1 
A    2
 S1 
A    3
 O1 
A    4
 O2 
A    5
 C2 
A    6
 C3 
A    7
 C4 
A    8
 O3 
A    9
 N1 
A   10
 C5 
A   11
 C6 
A   12
 C7 
A   13
 C8 
A   14
 C9 
A   15
 S2 
A   16
 C10
A   17
 C11
A   18
 C12
A   19
 C13
A   20
 H1 
A   21
 H2 
A   22
 H3 
A   23
 H4 
A   24
 H5 
A   25
 H6 
A   26
 H7 
A   27
 H8 
A   28
 H9 
A   29
 H10
A   30
 H11
A   31
 H12
A   32
 H13
A   33
 H14
A   34
 H15
A   35
 H16
A   36
 H17
A   37
 H18
A   38
 H19
A   39
 H20
A   40
 H21
A   41
 H22
A   42
 H23
M  END
>  <ref_pdb>  (32) 
x0147_0A

>  <ref_mols>  (32) 
x1071_0A,x1083_0A

>  <original SMILES>  (32) 
[H]C1([H])SC([H])([H])C([H])([H])C2(C1([H])[H])C([H])([H])C([H])([H])N(C(=O)C([H])([H])C([H])([H])S(=O)(=O)C([H])([H])[H])C([H])([H])C2([H])[H]

>  <index>  (32) 
14420

>  <∆∆G>  (32) 
-7.451229

>  <comRMSD>  (32) 
0.866205

>  <N_constrained_atoms>  (32) 
21.0

>  <N_unconstrained_atoms>  (32) 
0.0

>  <LE>  (32) 
0.35482

>  <percent_hybrid>  (32) 
39.0

>  <max_hit_Tanimoto>  (32) 
0.310096

>  <largest_ring>  (32) 
6

>  <N_interactions_kept>  (32) 
4.0

>  <N_interactions_lost>  (32) 
1.0

>  <interaction_uniqueness_metric>  (32) 
0.024264

>  <N_HA>  (32) 
19

>  <N_rotatable_bonds>  (32) 
4

>  <N_interactions>  (32) 
3

>  <N_PAINS>  (32) 
0

>  <UFF_Gibbs>  (32) 
159.288589

>  <strain_per_HA>  (32) 
8.383566

>  <ad_hoc_penalty>  (32) 
-33.167955

>  <cluster>  (32) 
1885

>  <ranked>  (32) 
33.0

>  <merger_rank>  (32) 
4

>  <hydroph_interaction:LEU:127>  (32) 
2

>  <hbond:GLY:128>  (32) 
0

>  <hydroph_interaction:ALA:144>  (32) 
0

>  <hbond:GLY:164>  (32) 
1

>  <hbond:HIS:40>  (32) 
0

>  <pistack:HIS:40>  (32) 
0

>  <hydroph_interaction:LEU:125>  (32) 
0

>  <hydroph_interaction:PHE:170>  (32) 
0

>  <hydroph_interaction:HIS:40>  (32) 
0

>  <pication:HIS:40>  (32) 
0

>  <hbond:THR:142>  (32) 
0

>  <hbond:HIS:161>  (32) 
0

>  <hbond:GLY:166>  (32) 
0

>  <hbond:VAL:162>  (32) 
0

>  <hydroph_interaction:ASN:165>  (32) 
0

>  <hbond:ASN:126>  (32) 
0

>  <hbond:ARG:143>  (32) 
0

>  <hbond:GLU:71>  (32) 
0

>  <saltbridge:HIS:161>  (32) 
0

>  <hbond:ALA:144>  (32) 
0

>  <hbond:GLY:145>  (32) 
0

>  <hbond:GLN:146>  (32) 
0

>  <hbond:CYS:147>  (32) 
0

>  <halogenbond:ASN:126>  (32) 
0

>  <saltbridge:HIS:40>  (32) 
0

>  <hbond:LEU:127>  (32) 
0

>  <hbond:THR:130>  (32) 
0

>  <hydroph_interaction:GLU:71>  (32) 
0

>  <hydroph_interaction:THR:130>  (32) 
0

>  <saltbridge:ARG:143>  (32) 
0

>  <saltbridge:GLU:71>  (32) 
0

>  <hbond:GLY:129>  (32) 
0

>  <halogenbond:CYS:147>  (32) 
0

>  <hydroph_interaction:THR:39>  (32) 
0

>  <hbond:ASN:69>  (32) 
0

>  <hydroph_interaction:THR:132>  (32) 
0

>  <hbond:TYR:122>  (32) 
0

>  <hydroph_interaction:PHE:109>  (32) 
0

>  <hydroph_interaction:PHE:140>  (32) 
0

>  <hbond:PRO:141>  (32) 
0

$$$$
Z4265670632-x1071-0AS5
     RDKit          3D

 42 43  0  0  0  0  0  0  0  0999 V2000
   -5.5980    0.3600   -1.3750 C   0  0  0  0  0  0  0  0  0  0  0  0
   -6.2810   -0.5680   -1.6710 C   0  0  0  0  0  0  0  0  0  0  0  0
   -6.7250   -1.3310   -0.5470 O   0  0  0  0  0  0  0  0  0  0  0  0
   -7.8430   -2.1310   -0.9490 C   0  0  0  0  0  0  0  0  0  0  0  0
   -7.3520   -3.2030   -1.9190 C   0  0  0  0  0  0  0  0  0  0  0  0
   -7.0170   -4.5190   -1.2150 C   0  0  0  0  0  0  0  0  0  0  0  0
   -7.2160   -5.7190   -1.8910 C   0  0  0  0  0  0  0  0  0  0  0  0
   -6.9120   -5.5090   -3.6270 S   0  0  0  0  0  6  0  0  0  0  0  0
   -8.0820   -5.9900   -4.3340 O   0  0  0  0  0  0  0  0  0  0  0  0
   -6.4010   -4.1650   -3.8520 O   0  0  0  0  0  0  0  0  0  0  0  0
   -5.7140   -6.6640   -3.8920 N   0  0  0  0  0  0  0  0  0  0  0  0
   -5.8690   -8.0410   -3.4050 C   0  0  0  0  0  0  0  0  0  0  0  0
   -5.3090   -8.2040   -1.9820 C   0  0  0  0  0  0  0  0  0  0  0  0
   -6.0020   -8.9660   -1.0190 C   0  0  0  0  0  0  0  0  0  0  0  0
   -5.4410   -9.1130    0.3640 C   0  0  0  0  0  0  0  0  0  0  0  0
   -4.2570   -8.4720    0.5830 C   0  0  0  0  0  0  0  0  0  0  0  0
   -3.5240   -8.4200    1.6980 C   0  0  0  0  0  0  0  0  0  0  0  0
   -2.3990   -7.6730    1.5090 C   0  0  0  0  0  0  0  0  0  0  0  0
   -2.3950   -7.1910    0.1400 O   0  0  0  0  0  0  0  0  0  0  0  0
   -3.5790   -7.7260   -0.3690 C   0  0  0  0  0  0  0  0  0  0  0  0
   -4.0870   -7.5780   -1.6570 C   0  0  0  0  0  0  0  0  0  0  0  0
   -5.2870    1.3530   -1.1840 H   0  0  0  0  0  0  0  0  0  0  0  0
   -5.2610   -0.0320   -0.4110 H   0  0  0  0  0  0  0  0  0  0  0  0
   -4.7660    0.1370   -2.0480 H   0  0  0  0  0  0  0  0  0  0  0  0
   -7.1880   -0.1790   -2.1480 H   0  0  0  0  0  0  0  0  0  0  0  0
   -5.7930   -1.1980   -2.4170 H   0  0  0  0  0  0  0  0  0  0  0  0
   -8.3380   -2.5870   -0.0900 H   0  0  0  0  0  0  0  0  0  0  0  0
   -8.5690   -1.4940   -1.4680 H   0  0  0  0  0  0  0  0  0  0  0  0
   -8.1230   -3.3850   -2.6790 H   0  0  0  0  0  0  0  0  0  0  0  0
   -6.4700   -2.8250   -2.4480 H   0  0  0  0  0  0  0  0  0  0  0  0
   -7.6100   -4.5420   -0.3020 H   0  0  0  0  0  0  0  0  0  0  0  0
   -5.9750   -4.5010   -0.8870 H   0  0  0  0  0  0  0  0  0  0  0  0
   -6.5480   -6.4980   -1.5140 H   0  0  0  0  0  0  0  0  0  0  0  0
   -8.2410   -6.0850   -1.7510 H   0  0  0  0  0  0  0  0  0  0  0  0
   -4.7820   -6.3470   -4.2040 H   0  0  0  0  0  0  0  0  0  0  0  0
   -6.9200   -8.3370   -3.4040 H   0  0  0  0  0  0  0  0  0  0  0  0
   -5.3340   -8.7180   -4.0830 H   0  0  0  0  0  0  0  0  0  0  0  0
   -6.9440   -9.4500   -1.2660 H   0  0  0  0  0  0  0  0  0  0  0  0
   -5.9380   -9.6880    1.1370 H   0  0  0  0  0  0  0  0  0  0  0  0
   -3.8040   -8.9190    2.6340 H   0  0  0  0  0  0  0  0  0  0  0  0
   -1.5820   -7.4130    2.1760 H   0  0  0  0  0  0  0  0  0  0  0  0
   -3.4890   -6.9740   -2.3450 H   0  0  0  0  0  0  0  0  0  0  0  0
  1  2  1  0
  2  3  1  0
  3  4  1  0
  4  5  1  0
  5  6  1  0
  6  7  1  0
  7  8  1  0
  8  9  2  0
  8 10  2  0
  8 11  1  0
 11 12  1  0
 12 13  1  0
 13 14  2  0
 14 15  1  0
 15 16  2  0
 16 17  1  0
 17 18  2  0
 18 19  1  0
 19 20  1  0
 20 21  2  0
 21 13  1  0
 20 16  1  0
  1 22  1  0
  1 23  1  0
  1 24  1  0
  2 25  1  0
  2 26  1  0
  4 27  1  0
  4 28  1  0
  5 29  1  0
  5 30  1  0
  6 31  1  0
  6 32  1  0
  7 33  1  0
  7 34  1  0
 11 35  1  0
 12 36  1  0
 12 37  1  0
 14 38  1  0
 15 39  1  0
 17 40  1  0
 18 41  1  0
 21 42  1  0
A    1
 C1 
A    2
 C2 
A    3
 O1 
A    4
 C3 
A    5
 C4 
A    6
 C5 
A    7
 C6 
A    8
 S1 
A    9
 O2 
A   10
 O3 
A   11
 N1 
A   12
 C7 
A   13
 C8 
A   14
 C9 
A   15
 C10
A   16
 C11
A   17
 C12
A   18
 C13
A   19
 O4 
A   20
 C14
A   21
 C15
A   22
 H1 
A   23
 H2 
A   24
 H3 
A   25
 H4 
A   26
 H5 
A   27
 H6 
A   28
 H7 
A   29
 H8 
A   30
 H9 
A   31
 H10
A   32
 H11
A   33
 H12
A   34
 H13
A   35
 H14
A   36
 H15
A   37
 H16
A   38
 H17
A   39
 H18
A   40
 H19
A   41
 H20
A   42
 H21
M  END
>  <ref_pdb>  (33) 
x0147_0A

>  <ref_mols>  (33) 
x1071_0AS5,x1140_0A

>  <original SMILES>  (33) 
[H]c1oc2c([H])c(C([H])([H])N([H])S(=O)(=O)C([H])([H])C([H])([H])C([H])([H])C([H])([H])OC([H])([H])C([H])([H])[H])c([H])c([H])c2c1[H]

>  <index>  (33) 
4624

>  <∆∆G>  (33) 
-9.508946

>  <comRMSD>  (33) 
0.596452

>  <N_constrained_atoms>  (33) 
20.0

>  <N_unconstrained_atoms>  (33) 
2.0

>  <LE>  (33) 
0.432225

>  <percent_hybrid>  (33) 
20.0

>  <max_hit_Tanimoto>  (33) 
0.333333

>  <largest_ring>  (33) 
6

>  <N_interactions_kept>  (33) 
2.0

>  <N_interactions_lost>  (33) 
2.5

>  <interaction_uniqueness_metric>  (33) 
0.145538

>  <N_HA>  (33) 
21

>  <N_rotatable_bonds>  (33) 
10

>  <N_interactions>  (33) 
8

>  <N_PAINS>  (33) 
0

>  <UFF_Gibbs>  (33) 
256.589523

>  <strain_per_HA>  (33) 
12.218491

>  <ad_hoc_penalty>  (33) 
-33.07034

>  <cluster>  (33) 
58

>  <ranked>  (33) 
34.0

>  <merger_rank>  (33) 
1

>  <hydroph_interaction:LEU:127>  (33) 
1

>  <hbond:GLY:128>  (33) 
1

>  <hydroph_interaction:ALA:144>  (33) 
0

>  <hbond:GLY:164>  (33) 
1

>  <hbond:HIS:40>  (33) 
0

>  <pistack:HIS:40>  (33) 
1

>  <hydroph_interaction:LEU:125>  (33) 
1

>  <hydroph_interaction:PHE:170>  (33) 
1

>  <hydroph_interaction:HIS:40>  (33) 
1

>  <pication:HIS:40>  (33) 
0

>  <hbond:THR:142>  (33) 
0

>  <hbond:HIS:161>  (33) 
0

>  <hbond:GLY:166>  (33) 
0

>  <hbond:VAL:162>  (33) 
1

>  <hydroph_interaction:ASN:165>  (33) 
0

>  <hbond:ASN:126>  (33) 
0

>  <hbond:ARG:143>  (33) 
0

>  <hbond:GLU:71>  (33) 
0

>  <saltbridge:HIS:161>  (33) 
0

>  <hbond:ALA:144>  (33) 
0

>  <hbond:GLY:145>  (33) 
0

>  <hbond:GLN:146>  (33) 
0

>  <hbond:CYS:147>  (33) 
0

>  <halogenbond:ASN:126>  (33) 
0

>  <saltbridge:HIS:40>  (33) 
0

>  <hbond:LEU:127>  (33) 
0

>  <hbond:THR:130>  (33) 
0

>  <hydroph_interaction:GLU:71>  (33) 
0

>  <hydroph_interaction:THR:130>  (33) 
0

>  <saltbridge:ARG:143>  (33) 
0

>  <saltbridge:GLU:71>  (33) 
0

>  <hbond:GLY:129>  (33) 
0

>  <halogenbond:CYS:147>  (33) 
0

>  <hydroph_interaction:THR:39>  (33) 
0

>  <hbond:ASN:69>  (33) 
0

>  <hydroph_interaction:THR:132>  (33) 
0

>  <hbond:TYR:122>  (33) 
0

>  <hydroph_interaction:PHE:109>  (33) 
0

>  <hydroph_interaction:PHE:140>  (33) 
0

>  <hbond:PRO:141>  (33) 
0

$$$$
Z1031472614-x1071-0A
     RDKit          3D

 51 52  0  0  0  0  0  0  0  0999 V2000
   -8.0770    0.4470   -1.3990 C   0  0  0  0  0  0  0  0  0  0  0  0
   -6.9500   -0.5410   -1.1090 C   0  0  0  0  0  0  0  0  0  0  0  0
   -6.4150   -0.2220    0.2750 C   0  0  0  0  0  0  0  0  0  0  0  0
   -5.8220   -0.2260   -2.1080 C   0  0  0  0  0  0  0  0  0  0  0  0
   -7.5470   -2.2380   -1.3350 S   0  0  0  0  0  0  0  0  0  0  0  0
   -6.2100   -3.1970   -2.0980 C   0  0  0  0  0  0  0  0  0  0  0  0
   -6.5480   -4.4420   -2.8940 C   0  0  0  0  0  0  0  0  0  0  0  0
   -6.8260   -4.4030   -4.0840 O   0  0  0  0  0  0  0  0  0  0  0  0
   -6.4800   -5.6540   -2.1880 N   0  0  0  0  0  0  0  0  0  0  0  0
   -6.5470   -5.6950   -0.7370 C   0  0  0  0  0  0  0  0  0  0  0  0
   -6.5840   -7.0340   -0.2420 C   0  0  0  0  0  0  0  0  0  0  0  0
   -5.3540   -7.9290   -0.4900 C   0  0  0  0  0  0  0  0  0  0  0  0
   -4.3230   -8.1140    0.4780 N   0  0  0  0  0  0  0  0  0  0  0  0
   -3.0540   -7.4520    0.2590 C   0  0  0  0  0  0  0  0  0  0  0  0
   -2.5530   -7.1810    1.5170 C   0  0  0  0  0  0  0  0  0  0  0  0
   -3.5560   -7.2820    2.4570 C   0  0  0  0  0  0  0  0  0  0  0  0
   -4.6410   -7.9410    1.9150 C   0  0  0  0  0  0  0  0  0  0  0  0
   -4.7720   -9.1250    2.6500 C   0  0  0  0  0  0  0  0  0  0  0  0
   -5.6470   -9.9900    2.2180 N   0  0  0  0  0  0  0  0  0  0  0  0
   -4.1100   -9.3610    3.6630 O   0  0  0  0  0  0  0  0  0  0  0  0
   -4.8080   -7.3560   -1.8390 C   0  0  0  0  0  0  0  0  0  0  0  0
   -5.7840   -6.8360   -2.7210 C   0  0  0  0  0  0  0  0  0  0  0  0
   -8.5890    0.1990   -2.3350 H   0  0  0  0  0  0  0  0  0  0  0  0
   -8.8370    0.4460   -0.6090 H   0  0  0  0  0  0  0  0  0  0  0  0
   -7.6890    1.4680   -1.4960 H   0  0  0  0  0  0  0  0  0  0  0  0
   -6.7870   -0.7730    1.1320 H   0  0  0  0  0  0  0  0  0  0  0  0
   -6.6510    0.8230    0.5020 H   0  0  0  0  0  0  0  0  0  0  0  0
   -5.3290   -0.2760    0.2710 H   0  0  0  0  0  0  0  0  0  0  0  0
   -4.8780   -0.0430   -1.5850 H   0  0  0  0  0  0  0  0  0  0  0  0
   -5.6550   -1.0380   -2.8190 H   0  0  0  0  0  0  0  0  0  0  0  0
   -6.0450    0.6820   -2.6760 H   0  0  0  0  0  0  0  0  0  0  0  0
   -5.7080   -2.5300   -2.8000 H   0  0  0  0  0  0  0  0  0  0  0  0
   -5.5260   -3.4840   -1.3120 H   0  0  0  0  0  0  0  0  0  0  0  0
   -5.7160   -5.0750   -0.4080 H   0  0  0  0  0  0  0  0  0  0  0  0
   -7.4780   -5.2040   -0.4380 H   0  0  0  0  0  0  0  0  0  0  0  0
   -7.4290   -7.6150   -0.6010 H   0  0  0  0  0  0  0  0  0  0  0  0
   -6.7110   -7.0700    0.8460 H   0  0  0  0  0  0  0  0  0  0  0  0
   -5.5990   -8.9570   -0.7530 H   0  0  0  0  0  0  0  0  0  0  0  0
   -2.4350   -8.0310   -0.4130 H   0  0  0  0  0  0  0  0  0  0  0  0
   -3.2390   -6.5100   -0.2440 H   0  0  0  0  0  0  0  0  0  0  0  0
   -1.7330   -7.8360    1.7820 H   0  0  0  0  0  0  0  0  0  0  0  0
   -2.0640   -6.2090    1.5650 H   0  0  0  0  0  0  0  0  0  0  0  0
   -3.8260   -6.3730    2.9610 H   0  0  0  0  0  0  0  0  0  0  0  0
   -3.0850   -7.8210    3.2870 H   0  0  0  0  0  0  0  0  0  0  0  0
   -5.5480   -7.3410    1.9400 H   0  0  0  0  0  0  0  0  0  0  0  0
   -6.5670   -9.9470    2.6400 H   0  0  0  0  0  0  0  0  0  0  0  0
   -5.2880  -10.9030    1.9560 H   0  0  0  0  0  0  0  0  0  0  0  0
   -4.0320   -6.6090   -1.6740 H   0  0  0  0  0  0  0  0  0  0  0  0
   -4.2990   -8.1760   -2.3630 H   0  0  0  0  0  0  0  0  0  0  0  0
   -5.2890   -6.5950   -3.6650 H   0  0  0  0  0  0  0  0  0  0  0  0
   -6.5530   -7.5780   -2.9510 H   0  0  0  0  0  0  0  0  0  0  0  0
  1  2  1  0
  2  3  1  0
  2  4  1  0
  2  5  1  0
  5  6  1  0
  6  7  1  0
  7  8  2  0
  7  9  1  0
  9 10  1  0
 10 11  1  0
 11 12  1  0
 12 13  1  0
 13 14  1  0
 14 15  1  0
 15 16  1  0
 16 17  1  0
 17 18  1  0
 18 19  1  0
 18 20  2  0
 12 21  1  0
 21 22  1  0
 22  9  1  0
 17 13  1  0
  1 23  1  0
  1 24  1  0
  1 25  1  0
  3 26  1  0
  3 27  1  0
  3 28  1  0
  4 29  1  0
  4 30  1  0
  4 31  1  0
  6 32  1  0
  6 33  1  0
 10 34  1  0
 10 35  1  0
 11 36  1  0
 11 37  1  0
 12 38  1  0
 14 39  1  0
 14 40  1  0
 15 41  1  0
 15 42  1  0
 16 43  1  0
 16 44  1  0
 17 45  1  0
 19 46  1  0
 19 47  1  0
 21 48  1  0
 21 49  1  0
 22 50  1  0
 22 51  1  0
A    1
 C1 
A    2
 C2 
A    3
 C3 
A    4
 C4 
A    5
 S1 
A    6
 C5 
A    7
 C6 
A    8
 O1 
A    9
 N1 
A   10
 C7 
A   11
 C8 
A   12
 C9 
A   13
 N2 
A   14
 C10
A   15
 C11
A   16
 C12
A   17
 C13
A   18
 C14
A   19
 N3 
A   20
 O2 
A   21
 C15
A   22
 C16
A   23
 H1 
A   24
 H2 
A   25
 H3 
A   26
 H4 
A   27
 H5 
A   28
 H6 
A   29
 H7 
A   30
 H8 
A   31
 H9 
A   32
 H10
A   33
 H11
A   34
 H12
A   35
 H13
A   36
 H14
A   37
 H15
A   38
 H16
A   39
 H17
A   40
 H18
A   41
 H19
A   42
 H20
A   43
 H21
A   44
 H22
A   45
 H23
A   46
 H24
A   47
 H25
A   48
 H26
A   49
 H27
A   50
 H28
A   51
 H29
M  END
>  <ref_pdb>  (34) 
x0147_0A

>  <ref_mols>  (34) 
x1071_0A,x1247_0AS4

>  <original SMILES>  (34) 
[H]N([H])C(=O)C1([H])N(C2([H])C([H])([H])C([H])([H])N(C(=O)C([H])([H])SC(C([H])([H])[H])(C([H])([H])[H])C([H])([H])[H])C([H])([H])C2([H])[H])C([H])([H])C([H])([H])C1([H])[H]

>  <index>  (34) 
10067

>  <∆∆G>  (34) 
-7.663455

>  <comRMSD>  (34) 
0.596396

>  <N_constrained_atoms>  (34) 
22.0

>  <N_unconstrained_atoms>  (34) 
0.0

>  <LE>  (34) 
0.348339

>  <percent_hybrid>  (34) 
37.0

>  <max_hit_Tanimoto>  (34) 
0.320197

>  <largest_ring>  (34) 
6

>  <N_interactions_kept>  (34) 
1.0

>  <N_interactions_lost>  (34) 
2.0

>  <interaction_uniqueness_metric>  (34) 
0.169217

>  <N_HA>  (34) 
22

>  <N_rotatable_bonds>  (34) 
4

>  <N_interactions>  (34) 
6

>  <N_PAINS>  (34) 
0

>  <UFF_Gibbs>  (34) 
395.990557

>  <strain_per_HA>  (34) 
17.999489

>  <ad_hoc_penalty>  (34) 
-33.022315

>  <cluster>  (34) 
4939

>  <ranked>  (34) 
35.0

>  <merger_rank>  (34) 
2

>  <hydroph_interaction:LEU:127>  (34) 
1

>  <hbond:GLY:128>  (34) 
0

>  <hydroph_interaction:ALA:144>  (34) 
0

>  <hbond:GLY:164>  (34) 
1

>  <hbond:HIS:40>  (34) 
0

>  <pistack:HIS:40>  (34) 
0

>  <hydroph_interaction:LEU:125>  (34) 
0

>  <hydroph_interaction:PHE:170>  (34) 
1

>  <hydroph_interaction:HIS:40>  (34) 
0

>  <pication:HIS:40>  (34) 
0

>  <hbond:THR:142>  (34) 
0

>  <hbond:HIS:161>  (34) 
0

>  <hbond:GLY:166>  (34) 
0

>  <hbond:VAL:162>  (34) 
0

>  <hydroph_interaction:ASN:165>  (34) 
1

>  <hbond:ASN:126>  (34) 
0

>  <hbond:ARG:143>  (34) 
0

>  <hbond:GLU:71>  (34) 
0

>  <saltbridge:HIS:161>  (34) 
0

>  <hbond:ALA:144>  (34) 
0

>  <hbond:GLY:145>  (34) 
0

>  <hbond:GLN:146>  (34) 
0

>  <hbond:CYS:147>  (34) 
0

>  <halogenbond:ASN:126>  (34) 
0

>  <saltbridge:HIS:40>  (34) 
0

>  <hbond:LEU:127>  (34) 
0

>  <hbond:THR:130>  (34) 
1

>  <hydroph_interaction:GLU:71>  (34) 
0

>  <hydroph_interaction:THR:130>  (34) 
0

>  <saltbridge:ARG:143>  (34) 
0

>  <saltbridge:GLU:71>  (34) 
1

>  <hbond:GLY:129>  (34) 
0

>  <halogenbond:CYS:147>  (34) 
0

>  <hydroph_interaction:THR:39>  (34) 
0

>  <hbond:ASN:69>  (34) 
0

>  <hydroph_interaction:THR:132>  (34) 
0

>  <hbond:TYR:122>  (34) 
0

>  <hydroph_interaction:PHE:109>  (34) 
0

>  <hydroph_interaction:PHE:140>  (34) 
0

>  <hbond:PRO:141>  (34) 
0

$$$$
Z1322688279-x1071-0AS2
     RDKit          3D

 41 42  0  0  0  0  0  0  0  0999 V2000
   -6.5680   -5.2760   -0.8460 C   0  0  0  0  0  0  0  0  0  0  0  0
   -6.9230   -4.1930   -1.7500 C   0  0  0  0  0  0  0  0  0  0  0  0
   -6.9140   -2.7910   -2.4390 C   0  0  0  0  0  0  0  0  0  0  0  0
   -6.6150   -1.1800   -1.5780 S   0  0  0  0  0  6  0  0  0  0  0  0
   -8.1800   -0.3500   -1.6170 C   0  0  0  0  0  0  0  0  0  0  0  0
   -6.3300   -1.2530   -0.1760 O   0  0  0  0  0  0  0  0  0  0  0  0
   -5.7050   -0.4040   -2.3910 O   0  0  0  0  0  0  0  0  0  0  0  0
   -7.0130   -5.1070   -3.0240 C   0  0  0  0  0  0  0  0  0  0  0  0
   -8.0320   -5.1320   -3.7290 O   0  0  0  0  0  0  0  0  0  0  0  0
   -5.9730   -5.8980   -3.3250 N   0  0  0  0  0  0  0  0  0  0  0  0
   -6.0400   -7.3770   -3.1580 C   0  0  0  0  0  0  0  0  0  0  0  0
   -5.4740   -7.8240   -1.8860 C   0  0  0  0  0  0  0  0  0  0  0  0
   -6.1270   -8.7800   -1.0600 C   0  0  0  0  0  0  0  0  0  0  0  0
   -5.6180   -9.2100    0.1680 C   0  0  0  0  0  0  0  0  0  0  0  0
   -4.4330   -8.6950    0.6190 C   0  0  0  0  0  0  0  0  0  0  0  0
   -3.6830   -8.8990    1.7570 C   0  0  0  0  0  0  0  0  0  0  0  0
   -2.5060   -8.1300    1.7230 C   0  0  0  0  0  0  0  0  0  0  0  0
   -2.5820   -7.3290    0.4230 C   0  0  0  0  0  0  0  0  0  0  0  0
   -3.7290   -7.6900   -0.2390 C   0  0  0  0  0  0  0  0  0  0  0  0
   -4.2410   -7.2720   -1.4660 C   0  0  0  0  0  0  0  0  0  0  0  0
   -7.3210   -5.3780   -0.0680 H   0  0  0  0  0  0  0  0  0  0  0  0
   -5.5980   -5.1040   -0.3860 H   0  0  0  0  0  0  0  0  0  0  0  0
   -6.5140   -6.2150   -1.3920 H   0  0  0  0  0  0  0  0  0  0  0  0
   -7.9800   -4.1600   -1.4620 H   0  0  0  0  0  0  0  0  0  0  0  0
   -7.8960   -2.6680   -2.9110 H   0  0  0  0  0  0  0  0  0  0  0  0
   -6.1920   -2.8270   -3.2660 H   0  0  0  0  0  0  0  0  0  0  0  0
   -8.0620    0.6640   -1.9890 H   0  0  0  0  0  0  0  0  0  0  0  0
   -8.8590   -0.8800   -2.2960 H   0  0  0  0  0  0  0  0  0  0  0  0
   -8.6240   -0.3570   -0.6160 H   0  0  0  0  0  0  0  0  0  0  0  0
   -5.3220   -5.5760   -4.0410 H   0  0  0  0  0  0  0  0  0  0  0  0
   -7.0740   -7.7240   -3.2600 H   0  0  0  0  0  0  0  0  0  0  0  0
   -5.4720   -7.8180   -3.9920 H   0  0  0  0  0  0  0  0  0  0  0  0
   -7.0780   -9.1880   -1.4180 H   0  0  0  0  0  0  0  0  0  0  0  0
   -6.1580   -9.9510    0.7720 H   0  0  0  0  0  0  0  0  0  0  0  0
   -4.2750   -8.4680    2.5700 H   0  0  0  0  0  0  0  0  0  0  0  0
   -3.3840   -9.8480    2.1770 H   0  0  0  0  0  0  0  0  0  0  0  0
   -2.3200   -7.5310    2.6240 H   0  0  0  0  0  0  0  0  0  0  0  0
   -1.5790   -8.7110    1.6440 H   0  0  0  0  0  0  0  0  0  0  0  0
   -1.7060   -7.6060   -0.1430 H   0  0  0  0  0  0  0  0  0  0  0  0
   -2.3830   -6.2830    0.6180 H   0  0  0  0  0  0  0  0  0  0  0  0
   -3.7210   -6.5460   -2.0760 H   0  0  0  0  0  0  0  0  0  0  0  0
  1  2  1  0
  2  3  1  0
  3  4  1  0
  4  5  1  0
  4  6  2  0
  4  7  2  0
  2  8  1  0
  8  9  2  0
  8 10  1  0
 10 11  1  0
 11 12  1  0
 12 13  2  0
 13 14  1  0
 14 15  2  0
 15 16  1  0
 16 17  1  0
 17 18  1  0
 18 19  1  0
 19 20  2  0
 20 12  1  0
 19 15  1  0
  1 21  1  0
  1 22  1  0
  1 23  1  0
  2 24  1  0
  3 25  1  0
  3 26  1  0
  5 27  1  0
  5 28  1  0
  5 29  1  0
 10 30  1  0
 11 31  1  0
 11 32  1  0
 13 33  1  0
 14 34  1  0
 16 35  1  0
 16 36  1  0
 17 37  1  0
 17 38  1  0
 18 39  1  0
 18 40  1  0
 20 41  1  0
A    1
 C1 
A    2
 C2 
A    3
 C3 
A    4
 S1 
A    5
 C4 
A    6
 O1 
A    7
 O2 
A    8
 C5 
A    9
 O3 
A   10
 N1 
A   11
 C6 
A   12
 C7 
A   13
 C8 
A   14
 C9 
A   15
 C10
A   16
 C11
A   17
 C12
A   18
 C13
A   19
 C14
A   20
 C15
A   21
 H1 
A   22
 H2 
A   23
 H3 
A   24
 H4 
A   25
 H5 
A   26
 H6 
A   27
 H7 
A   28
 H8 
A   29
 H9 
A   30
 H10
A   31
 H11
A   32
 H12
A   33
 H13
A   34
 H14
A   35
 H15
A   36
 H16
A   37
 H17
A   38
 H18
A   39
 H19
A   40
 H20
A   41
 H21
M  END
>  <ref_pdb>  (35) 
x0147_0A

>  <ref_mols>  (35) 
x1071_0AS2,x1140_0A

>  <original SMILES>  (35) 
[H]c1c([H])c2c(c([H])c1C([H])([H])N([H])C(=O)C([H])(C([H])([H])[H])C([H])([H])S(=O)(=O)C([H])([H])[H])C([H])([H])C([H])([H])C2([H])[H]

>  <index>  (35) 
6547

>  <∆∆G>  (35) 
-7.831986

>  <comRMSD>  (35) 
0.823945

>  <N_constrained_atoms>  (35) 
21.0

>  <N_unconstrained_atoms>  (35) 
0.0

>  <LE>  (35) 
0.372952

>  <percent_hybrid>  (35) 
30.0

>  <max_hit_Tanimoto>  (35) 
0.179063

>  <largest_ring>  (35) 
6

>  <N_interactions_kept>  (35) 
4.0

>  <N_interactions_lost>  (35) 
1.5

>  <interaction_uniqueness_metric>  (35) 
0.07582

>  <N_HA>  (35) 
20

>  <N_rotatable_bonds>  (35) 
7

>  <N_interactions>  (35) 
6

>  <N_PAINS>  (35) 
0

>  <UFF_Gibbs>  (35) 
246.984875

>  <strain_per_HA>  (35) 
12.349182

>  <ad_hoc_penalty>  (35) 
-33.006204

>  <cluster>  (35) 
2398

>  <ranked>  (35) 
36.0

>  <merger_rank>  (35) 
1

>  <hydroph_interaction:LEU:127>  (35) 
3

>  <hbond:GLY:128>  (35) 
0

>  <hydroph_interaction:ALA:144>  (35) 
0

>  <hbond:GLY:164>  (35) 
0

>  <hbond:HIS:40>  (35) 
0

>  <pistack:HIS:40>  (35) 
1

>  <hydroph_interaction:LEU:125>  (35) 
0

>  <hydroph_interaction:PHE:170>  (35) 
0

>  <hydroph_interaction:HIS:40>  (35) 
1

>  <pication:HIS:40>  (35) 
0

>  <hbond:THR:142>  (35) 
0

>  <hbond:HIS:161>  (35) 
0

>  <hbond:GLY:166>  (35) 
0

>  <hbond:VAL:162>  (35) 
1

>  <hydroph_interaction:ASN:165>  (35) 
0

>  <hbond:ASN:126>  (35) 
0

>  <hbond:ARG:143>  (35) 
0

>  <hbond:GLU:71>  (35) 
0

>  <saltbridge:HIS:161>  (35) 
0

>  <hbond:ALA:144>  (35) 
0

>  <hbond:GLY:145>  (35) 
0

>  <hbond:GLN:146>  (35) 
0

>  <hbond:CYS:147>  (35) 
0

>  <halogenbond:ASN:126>  (35) 
0

>  <saltbridge:HIS:40>  (35) 
0

>  <hbond:LEU:127>  (35) 
0

>  <hbond:THR:130>  (35) 
0

>  <hydroph_interaction:GLU:71>  (35) 
0

>  <hydroph_interaction:THR:130>  (35) 
0

>  <saltbridge:ARG:143>  (35) 
0

>  <saltbridge:GLU:71>  (35) 
0

>  <hbond:GLY:129>  (35) 
0

>  <halogenbond:CYS:147>  (35) 
0

>  <hydroph_interaction:THR:39>  (35) 
0

>  <hbond:ASN:69>  (35) 
0

>  <hydroph_interaction:THR:132>  (35) 
0

>  <hbond:TYR:122>  (35) 
0

>  <hydroph_interaction:PHE:109>  (35) 
0

>  <hydroph_interaction:PHE:140>  (35) 
0

>  <hbond:PRO:141>  (35) 
0

$$$$
Z1583251380-x1084-0AS3
     RDKit          3D

 48 49  0  0  0  0  0  0  0  0999 V2000
  -13.9750   -0.5510   -3.5770 C   0  0  0  0  0  0  0  0  0  0  0  0
  -13.4410   -1.9580   -3.7990 C   0  0  0  0  0  0  0  0  0  0  0  0
  -14.2940   -3.1110   -3.2710 C   0  0  0  0  0  0  0  0  0  0  0  0
  -13.7680   -4.5320   -3.4930 C   0  0  0  0  0  0  0  0  0  0  0  0
  -12.4380   -4.6170   -4.2250 C   0  0  0  0  0  0  0  0  0  0  0  0
  -11.8340   -6.0010   -4.4990 C   0  0  0  0  0  0  0  0  0  0  0  0
  -11.7440   -3.4720   -4.6610 C   0  0  0  0  0  0  0  0  0  0  0  0
  -10.5350   -3.6640   -5.3290 N   0  0  0  0  0  0  0  0  0  0  0  0
  -10.4760   -3.9650   -6.6720 C   0  0  0  0  0  0  0  0  0  0  0  0
  -11.3960   -3.8670   -7.4820 O   0  0  0  0  0  0  0  0  0  0  0  0
   -9.2740   -4.4340   -7.1540 C   0  0  0  0  0  0  0  0  0  0  0  0
   -8.8180   -3.7950   -8.2680 C   0  0  0  0  0  0  0  0  0  0  0  0
   -7.5720   -4.2180   -8.9080 C   0  0  0  0  0  0  0  0  0  0  0  0
   -6.7650   -5.1950   -8.5390 C   0  0  0  0  0  0  0  0  0  0  0  0
   -7.2150   -5.9210   -7.2980 C   0  0  0  0  0  0  0  0  0  0  0  0
   -8.5010   -5.4880   -6.6250 C   0  0  0  0  0  0  0  0  0  0  0  0
   -8.8450   -6.2150   -5.4520 C   0  0  0  0  0  0  0  0  0  0  0  0
   -7.6090   -6.7850   -4.9430 O   0  0  0  0  0  0  0  0  0  0  0  0
   -6.9900   -6.1990   -3.7710 C   0  0  0  0  0  0  0  0  0  0  0  0
   -6.9980   -4.8340   -3.9800 C   0  0  0  0  0  0  0  0  0  0  0  0
   -7.7950   -6.4950   -2.5040 C   0  0  0  0  0  0  0  0  0  0  0  0
   -5.5380   -6.6730   -3.5780 C   0  0  0  0  0  0  0  0  0  0  0  0
  -12.2370   -2.1850   -4.4510 C   0  0  0  0  0  0  0  0  0  0  0  0
  -13.7240    0.0860   -4.4360 H   0  0  0  0  0  0  0  0  0  0  0  0
  -13.5500   -0.0920   -2.6800 H   0  0  0  0  0  0  0  0  0  0  0  0
  -15.0640   -0.5640   -3.4670 H   0  0  0  0  0  0  0  0  0  0  0  0
  -15.2370   -2.9470   -2.7560 H   0  0  0  0  0  0  0  0  0  0  0  0
  -14.3720   -5.3620   -3.1190 H   0  0  0  0  0  0  0  0  0  0  0  0
  -12.6210   -6.7610   -4.5350 H   0  0  0  0  0  0  0  0  0  0  0  0
  -11.1490   -6.2920   -3.6950 H   0  0  0  0  0  0  0  0  0  0  0  0
  -11.2840   -6.0380   -5.4450 H   0  0  0  0  0  0  0  0  0  0  0  0
   -9.7480   -3.9640   -4.7690 H   0  0  0  0  0  0  0  0  0  0  0  0
   -9.3790   -2.9750   -8.6920 H   0  0  0  0  0  0  0  0  0  0  0  0
   -7.2860   -3.6880   -9.7710 H   0  0  0  0  0  0  0  0  0  0  0  0
   -5.8680   -5.4640   -9.0560 H   0  0  0  0  0  0  0  0  0  0  0  0
   -6.6200   -6.7390   -6.9010 H   0  0  0  0  0  0  0  0  0  0  0  0
   -9.5380   -7.0490   -5.5640 H   0  0  0  0  0  0  0  0  0  0  0  0
   -9.2400   -5.5610   -4.6850 H   0  0  0  0  0  0  0  0  0  0  0  0
   -7.8790   -4.3740   -3.5200 H   0  0  0  0  0  0  0  0  0  0  0  0
   -6.1000   -4.3660   -3.5620 H   0  0  0  0  0  0  0  0  0  0  0  0
   -7.0270   -4.5870   -5.0450 H   0  0  0  0  0  0  0  0  0  0  0  0
   -8.8130   -6.1000   -2.5950 H   0  0  0  0  0  0  0  0  0  0  0  0
   -7.8570   -7.5740   -2.3200 H   0  0  0  0  0  0  0  0  0  0  0  0
   -7.3470   -6.0080   -1.6300 H   0  0  0  0  0  0  0  0  0  0  0  0
   -4.8600   -5.8370   -3.3770 H   0  0  0  0  0  0  0  0  0  0  0  0
   -5.4670   -7.3730   -2.7570 H   0  0  0  0  0  0  0  0  0  0  0  0
   -5.1680   -7.1930   -4.4650 H   0  0  0  0  0  0  0  0  0  0  0  0
  -11.6780   -1.3110   -4.8020 H   0  0  0  0  0  0  0  0  0  0  0  0
  1  2  1  0
  2  3  2  0
  3  4  1  0
  4  5  2  0
  5  6  1  0
  5  7  1  0
  7  8  1  0
  8  9  1  0
  9 10  2  0
  9 11  1  0
 11 12  2  0
 12 13  1  0
 13 14  2  0
 14 15  1  0
 15 16  2  0
 16 17  1  0
 17 18  1  0
 18 19  1  0
 19 20  1  0
 19 21  1  0
 19 22  1  0
  7 23  2  0
 23  2  1  0
 16 11  1  0
  1 24  1  0
  1 25  1  0
  1 26  1  0
  3 27  1  0
  4 28  1  0
  6 29  1  0
  6 30  1  0
  6 31  1  0
  8 32  1  0
 12 33  1  0
 13 34  1  0
 14 35  1  0
 15 36  1  0
 17 37  1  0
 17 38  1  0
 20 39  1  0
 20 40  1  0
 20 41  1  0
 21 42  1  0
 21 43  1  0
 21 44  1  0
 22 45  1  0
 22 46  1  0
 22 47  1  0
 23 48  1  0
A    1
 C1 
A    2
 C2 
A    3
 C3 
A    4
 C4 
A    5
 C5 
A    6
 C6 
A    7
 C7 
A    8
 N1 
A    9
 C8 
A   10
 O1 
A   11
 C9 
A   12
 C10
A   13
 C11
A   14
 C12
A   15
 C13
A   16
 C14
A   17
 C15
A   18
 O2 
A   19
 C16
A   20
 C17
A   21
 C18
A   22
 C19
A   23
 C20
A   24
 H1 
A   25
 H2 
A   26
 H3 
A   27
 H4 
A   28
 H5 
A   29
 H6 
A   30
 H7 
A   31
 H8 
A   32
 H9 
A   33
 H10
A   34
 H11
A   35
 H12
A   36
 H13
A   37
 H14
A   38
 H15
A   39
 H16
A   40
 H17
A   41
 H18
A   42
 H19
A   43
 H20
A   44
 H21
A   45
 H22
A   46
 H23
A   47
 H24
A   48
 H25
M  END
>  <ref_pdb>  (36) 
x0147_0A

>  <ref_mols>  (36) 
x1084_0AS3,x0980_0B

>  <original SMILES>  (36) 
[H]c1c([H])c([H])c(C([H])([H])OC(C([H])([H])[H])(C([H])([H])[H])C([H])([H])[H])c(C(=O)N([H])c2c([H])c(C([H])([H])[H])c([H])c([H])c2C([H])([H])[H])c1[H]

>  <index>  (36) 
3643

>  <∆∆G>  (36) 
-8.274091

>  <comRMSD>  (36) 
0.529825

>  <N_constrained_atoms>  (36) 
22.0

>  <N_unconstrained_atoms>  (36) 
1.0

>  <LE>  (36) 
0.359743

>  <percent_hybrid>  (36) 
23.0

>  <max_hit_Tanimoto>  (36) 
0.479104

>  <largest_ring>  (36) 
6

>  <N_interactions_kept>  (36) 
2.5

>  <N_interactions_lost>  (36) 
0.0

>  <interaction_uniqueness_metric>  (36) 
0.010368

>  <N_HA>  (36) 
23

>  <N_rotatable_bonds>  (36) 
6

>  <N_interactions>  (36) 
1

>  <N_PAINS>  (36) 
0

>  <UFF_Gibbs>  (36) 
157.914018

>  <strain_per_HA>  (36) 
6.865797

>  <ad_hoc_penalty>  (36) 
-32.941132

>  <cluster>  (36) 
602

>  <ranked>  (36) 
37.0

>  <merger_rank>  (36) 
2

>  <hydroph_interaction:LEU:127>  (36) 
0

>  <hbond:GLY:128>  (36) 
0

>  <hydroph_interaction:ALA:144>  (36) 
0

>  <hbond:GLY:164>  (36) 
1

>  <hbond:HIS:40>  (36) 
0

>  <pistack:HIS:40>  (36) 
0

>  <hydroph_interaction:LEU:125>  (36) 
0

>  <hydroph_interaction:PHE:170>  (36) 
0

>  <hydroph_interaction:HIS:40>  (36) 
0

>  <pication:HIS:40>  (36) 
0

>  <hbond:THR:142>  (36) 
0

>  <hbond:HIS:161>  (36) 
0

>  <hbond:GLY:166>  (36) 
0

>  <hbond:VAL:162>  (36) 
0

>  <hydroph_interaction:ASN:165>  (36) 
0

>  <hbond:ASN:126>  (36) 
0

>  <hbond:ARG:143>  (36) 
0

>  <hbond:GLU:71>  (36) 
0

>  <saltbridge:HIS:161>  (36) 
0

>  <hbond:ALA:144>  (36) 
0

>  <hbond:GLY:145>  (36) 
0

>  <hbond:GLN:146>  (36) 
0

>  <hbond:CYS:147>  (36) 
0

>  <halogenbond:ASN:126>  (36) 
0

>  <saltbridge:HIS:40>  (36) 
0

>  <hbond:LEU:127>  (36) 
0

>  <hbond:THR:130>  (36) 
0

>  <hydroph_interaction:GLU:71>  (36) 
0

>  <hydroph_interaction:THR:130>  (36) 
0

>  <saltbridge:ARG:143>  (36) 
0

>  <saltbridge:GLU:71>  (36) 
0

>  <hbond:GLY:129>  (36) 
0

>  <halogenbond:CYS:147>  (36) 
0

>  <hydroph_interaction:THR:39>  (36) 
0

>  <hbond:ASN:69>  (36) 
0

>  <hydroph_interaction:THR:132>  (36) 
0

>  <hbond:TYR:122>  (36) 
0

>  <hydroph_interaction:PHE:109>  (36) 
0

>  <hydroph_interaction:PHE:140>  (36) 
0

>  <hbond:PRO:141>  (36) 
0

$$$$
Z4224270063-x1084-0AS1
     RDKit          3D

 41 42  0  0  0  0  0  0  0  0999 V2000
   -6.1010   -6.7450   -8.9860 C   0  0  0  0  0  0  0  0  0  0  0  0
   -6.9560   -6.5860   -7.7570 C   0  0  0  0  0  0  0  0  0  0  0  0
   -6.7470   -7.6040   -6.6880 C   0  0  0  0  0  0  0  0  0  0  0  0
   -6.3480   -7.4560   -5.2100 C   0  0  0  0  0  0  0  0  0  0  0  0
   -7.4400   -6.7940   -4.5740 O   0  0  0  0  0  0  0  0  0  0  0  0
   -7.1350   -6.1150   -3.4390 C   0  0  0  0  0  0  0  0  0  0  0  0
   -6.8900   -4.6370   -3.7690 C   0  0  0  0  0  0  0  0  0  0  0  0
   -7.0810   -6.6000   -2.3190 O   0  0  0  0  0  0  0  0  0  0  0  0
   -7.9680   -5.4940   -7.6530 C   0  0  0  0  0  0  0  0  0  0  0  0
   -7.7240   -4.2130   -8.1740 C   0  0  0  0  0  0  0  0  0  0  0  0
   -8.6960   -3.2120   -8.0740 C   0  0  0  0  0  0  0  0  0  0  0  0
   -9.9150   -3.4780   -7.4640 C   0  0  0  0  0  0  0  0  0  0  0  0
  -10.8140   -2.4580   -7.4060 O   0  0  0  0  0  0  0  0  0  0  0  0
  -11.7420   -2.5830   -6.3170 C   0  0  0  0  0  0  0  0  0  0  0  0
  -12.7130   -1.5780   -6.4050 C   0  0  0  0  0  0  0  0  0  0  0  0
  -10.9010   -2.3530   -5.0510 C   0  0  0  0  0  0  0  0  0  0  0  0
  -12.3600   -3.9830   -6.2540 C   0  0  0  0  0  0  0  0  0  0  0  0
  -11.4050   -4.9980   -6.3460 C   0  0  0  0  0  0  0  0  0  0  0  0
  -11.6560   -6.1170   -5.9120 O   0  0  0  0  0  0  0  0  0  0  0  0
  -10.1650   -4.7390   -6.9510 C   0  0  0  0  0  0  0  0  0  0  0  0
   -9.1960   -5.7370   -7.0380 C   0  0  0  0  0  0  0  0  0  0  0  0
   -6.2060   -6.0530   -9.8250 H   0  0  0  0  0  0  0  0  0  0  0  0
   -5.3710   -7.5520   -9.0650 H   0  0  0  0  0  0  0  0  0  0  0  0
   -7.6840   -8.1750   -6.6570 H   0  0  0  0  0  0  0  0  0  0  0  0
   -6.0040   -8.2920   -7.0970 H   0  0  0  0  0  0  0  0  0  0  0  0
   -5.4440   -6.8480   -5.1190 H   0  0  0  0  0  0  0  0  0  0  0  0
   -6.1630   -8.3630   -4.6380 H   0  0  0  0  0  0  0  0  0  0  0  0
   -6.9620   -4.4440   -4.8450 H   0  0  0  0  0  0  0  0  0  0  0  0
   -7.6480   -4.0120   -3.2810 H   0  0  0  0  0  0  0  0  0  0  0  0
   -5.9030   -4.3350   -3.4110 H   0  0  0  0  0  0  0  0  0  0  0  0
   -6.7810   -3.9800   -8.6620 H   0  0  0  0  0  0  0  0  0  0  0  0
   -8.4950   -2.2240   -8.4800 H   0  0  0  0  0  0  0  0  0  0  0  0
  -12.9620   -1.3720   -7.4520 H   0  0  0  0  0  0  0  0  0  0  0  0
  -12.3650   -0.6290   -5.9820 H   0  0  0  0  0  0  0  0  0  0  0  0
  -13.6320   -1.8620   -5.8810 H   0  0  0  0  0  0  0  0  0  0  0  0
  -11.0500   -3.1640   -4.3280 H   0  0  0  0  0  0  0  0  0  0  0  0
  -11.1490   -1.4030   -4.5660 H   0  0  0  0  0  0  0  0  0  0  0  0
   -9.8300   -2.3470   -5.2900 H   0  0  0  0  0  0  0  0  0  0  0  0
  -12.9160   -4.1100   -5.3190 H   0  0  0  0  0  0  0  0  0  0  0  0
  -13.0570   -4.1380   -7.0900 H   0  0  0  0  0  0  0  0  0  0  0  0
   -9.4060   -6.7170   -6.6260 H   0  0  0  0  0  0  0  0  0  0  0  0
  1  2  2  3
  2  3  1  0
  3  4  1  0
  4  5  1  0
  5  6  1  0
  6  7  1  0
  6  8  2  0
  2  9  1  0
  9 10  2  0
 10 11  1  0
 11 12  2  0
 12 13  1  0
 13 14  1  0
 14 15  1  0
 14 16  1  0
 14 17  1  0
 17 18  1  0
 18 19  2  0
 18 20  1  0
 20 21  2  0
 21  9  1  0
 20 12  1  0
  1 22  1  0
  1 23  1  0
  3 24  1  0
  3 25  1  0
  4 26  1  0
  4 27  1  0
  7 28  1  0
  7 29  1  0
  7 30  1  0
 10 31  1  0
 11 32  1  0
 15 33  1  0
 15 34  1  0
 15 35  1  0
 16 36  1  0
 16 37  1  0
 16 38  1  0
 17 39  1  0
 17 40  1  0
 21 41  1  0
A    1
 C1 
A    2
 C2 
A    3
 C3 
A    4
 C4 
A    5
 O1 
A    6
 C5 
A    7
 C6 
A    8
 O2 
A    9
 C7 
A   10
 C8 
A   11
 C9 
A   12
 C10
A   13
 O3 
A   14
 C11
A   15
 C12
A   16
 C13
A   17
 C14
A   18
 C15
A   19
 O4 
A   20
 C16
A   21
 C17
A   22
 H1 
A   23
 H2 
A   24
 H3 
A   25
 H4 
A   26
 H5 
A   27
 H6 
A   28
 H7 
A   29
 H8 
A   30
 H9 
A   31
 H10
A   32
 H11
A   33
 H12
A   34
 H13
A   35
 H14
A   36
 H15
A   37
 H16
A   38
 H17
A   39
 H18
A   40
 H19
A   41
 H20
M  END
>  <ref_pdb>  (37) 
x0147_0A

>  <ref_mols>  (37) 
x1084_0AS1,x1604_0A

>  <original SMILES>  (37) 
[H]C([H])=C(c1c([H])c([H])c2c(c1[H])C(=O)C([H])([H])C(C([H])([H])[H])(C([H])([H])[H])O2)C([H])([H])C([H])([H])OC(=O)C([H])([H])[H]

>  <index>  (37) 
1081

>  <∆∆G>  (37) 
-8.341145

>  <comRMSD>  (37) 
0.348837

>  <N_constrained_atoms>  (37) 
19.0

>  <N_unconstrained_atoms>  (37) 
3.0

>  <LE>  (37) 
0.379143

>  <percent_hybrid>  (37) 
22.0

>  <max_hit_Tanimoto>  (37) 
0.355019

>  <largest_ring>  (37) 
6

>  <N_interactions_kept>  (37) 
2.0

>  <N_interactions_lost>  (37) 
0.5

>  <interaction_uniqueness_metric>  (37) 
0.088354

>  <N_HA>  (37) 
21

>  <N_rotatable_bonds>  (37) 
7

>  <N_interactions>  (37) 
2

>  <N_PAINS>  (37) 
0

>  <UFF_Gibbs>  (37) 
93.733736

>  <strain_per_HA>  (37) 
4.46349

>  <ad_hoc_penalty>  (37) 
-32.114327

>  <cluster>  (37) 
7084

>  <ranked>  (37) 
39.0

>  <merger_rank>  (37) 
1

>  <hydroph_interaction:LEU:127>  (37) 
0

>  <hbond:GLY:128>  (37) 
0

>  <hydroph_interaction:ALA:144>  (37) 
1

>  <hbond:GLY:164>  (37) 
0

>  <hbond:HIS:40>  (37) 
0

>  <pistack:HIS:40>  (37) 
0

>  <hydroph_interaction:LEU:125>  (37) 
0

>  <hydroph_interaction:PHE:170>  (37) 
0

>  <hydroph_interaction:HIS:40>  (37) 
0

>  <pication:HIS:40>  (37) 
0

>  <hbond:THR:142>  (37) 
0

>  <hbond:HIS:161>  (37) 
0

>  <hbond:GLY:166>  (37) 
1

>  <hbond:VAL:162>  (37) 
0

>  <hydroph_interaction:ASN:165>  (37) 
0

>  <hbond:ASN:126>  (37) 
0

>  <hbond:ARG:143>  (37) 
0

>  <hbond:GLU:71>  (37) 
0

>  <saltbridge:HIS:161>  (37) 
0

>  <hbond:ALA:144>  (37) 
0

>  <hbond:GLY:145>  (37) 
0

>  <hbond:GLN:146>  (37) 
0

>  <hbond:CYS:147>  (37) 
0

>  <halogenbond:ASN:126>  (37) 
0

>  <saltbridge:HIS:40>  (37) 
0

>  <hbond:LEU:127>  (37) 
0

>  <hbond:THR:130>  (37) 
0

>  <hydroph_interaction:GLU:71>  (37) 
0

>  <hydroph_interaction:THR:130>  (37) 
0

>  <saltbridge:ARG:143>  (37) 
0

>  <saltbridge:GLU:71>  (37) 
0

>  <hbond:GLY:129>  (37) 
0

>  <halogenbond:CYS:147>  (37) 
0

>  <hydroph_interaction:THR:39>  (37) 
0

>  <hbond:ASN:69>  (37) 
0

>  <hydroph_interaction:THR:132>  (37) 
0

>  <hbond:TYR:122>  (37) 
0

>  <hydroph_interaction:PHE:109>  (37) 
0

>  <hydroph_interaction:PHE:140>  (37) 
0

>  <hbond:PRO:141>  (37) 
0

$$$$
PV-005755328668-x1919-0AS2
     RDKit          3D

 52 55  0  0  0  0  0  0  0  0999 V2000
   -6.9090   -4.3270   -1.1750 C   0  0  0  0  0  0  0  0  0  0  0  0
   -7.9690   -5.3210   -1.6320 C   0  0  0  0  0  0  0  0  0  0  0  0
   -8.0780   -5.4560   -3.1650 C   0  0  0  0  0  0  0  0  0  0  0  0
   -7.5250   -6.7890   -3.5770 N   0  0  0  0  0  0  0  0  0  0  0  0
   -6.0610   -7.0270   -3.5230 C   0  0  0  0  0  0  0  0  0  0  0  0
   -5.3760   -6.8630   -4.5060 O   0  0  0  0  0  0  0  0  0  0  0  0
   -5.4710   -7.5280   -2.1700 C   0  0  0  0  0  0  0  0  0  0  0  0
   -6.3420   -8.4380   -1.2990 C   0  0  0  0  0  0  0  0  0  0  0  0
   -5.7160   -8.8800   -0.0120 C   0  0  0  0  0  0  0  0  0  0  0  0
   -4.4350   -8.4610    0.3170 C   0  0  0  0  0  0  0  0  0  0  0  0
   -3.7770   -8.7840    1.4380 O   0  0  0  0  0  0  0  0  0  0  0  0
   -2.5980   -8.0020    1.3360 C   0  0  0  0  0  0  0  0  0  0  0  0
   -2.5660   -7.4000    0.0040 O   0  0  0  0  0  0  0  0  0  0  0  0
   -3.6840   -7.6480   -0.4880 C   0  0  0  0  0  0  0  0  0  0  0  0
   -4.1790   -7.1790   -1.7270 C   0  0  0  0  0  0  0  0  0  0  0  0
   -7.5910   -4.3290   -3.7880 C   0  0  0  0  0  0  0  0  0  0  0  0
   -8.3100   -3.2920   -3.0880 C   0  0  0  0  0  0  0  0  0  0  0  0
   -9.5730   -3.0430   -3.9480 C   0  0  0  0  0  0  0  0  0  0  0  0
   -9.9640   -4.3060   -4.5500 N   0  0  0  0  0  0  0  0  0  0  0  0
  -10.2900   -4.4030   -6.0100 C   0  0  0  0  0  0  0  0  0  0  0  0
  -11.4330   -4.4470   -6.4670 O   0  0  0  0  0  0  0  0  0  0  0  0
   -9.2520   -4.4110   -6.9340 C   0  0  0  0  0  0  0  0  0  0  0  0
   -8.4530   -5.5520   -7.0310 C   0  0  0  0  0  0  0  0  0  0  0  0
   -7.3900   -5.6280   -7.9410 C   0  0  0  0  0  0  0  0  0  0  0  0
   -7.1540   -4.4490   -8.7930 C   0  0  0  0  0  0  0  0  0  0  0  0
   -8.0440   -3.2490   -8.6440 C   0  0  0  0  0  0  0  0  0  0  0  0
   -9.0530   -3.2750   -7.7280 C   0  0  0  0  0  0  0  0  0  0  0  0
   -9.5900   -5.4760   -3.6880 C   0  0  0  0  0  0  0  0  0  0  0  0
   -6.1670   -4.8160   -0.5430 H   0  0  0  0  0  0  0  0  0  0  0  0
   -6.4020   -3.8670   -2.0280 H   0  0  0  0  0  0  0  0  0  0  0  0
   -7.3910   -3.5290   -0.6080 H   0  0  0  0  0  0  0  0  0  0  0  0
   -8.9160   -5.0270   -1.1670 H   0  0  0  0  0  0  0  0  0  0  0  0
   -7.7060   -6.2990   -1.2140 H   0  0  0  0  0  0  0  0  0  0  0  0
   -8.0840   -7.2980   -4.2580 H   0  0  0  0  0  0  0  0  0  0  0  0
   -7.3530   -8.7410   -1.6020 H   0  0  0  0  0  0  0  0  0  0  0  0
   -6.2620   -9.5310    0.6790 H   0  0  0  0  0  0  0  0  0  0  0  0
   -1.7080   -8.6350    1.4610 H   0  0  0  0  0  0  0  0  0  0  0  0
   -2.6110   -7.1990    2.0850 H   0  0  0  0  0  0  0  0  0  0  0  0
   -3.5730   -6.5470   -2.3470 H   0  0  0  0  0  0  0  0  0  0  0  0
   -7.8740   -4.3110   -4.8480 H   0  0  0  0  0  0  0  0  0  0  0  0
   -6.5060   -4.3410   -3.7810 H   0  0  0  0  0  0  0  0  0  0  0  0
   -7.8100   -2.3490   -2.9370 H   0  0  0  0  0  0  0  0  0  0  0  0
   -8.5430   -3.5570   -2.0630 H   0  0  0  0  0  0  0  0  0  0  0  0
   -9.3840   -2.2880   -4.7140 H   0  0  0  0  0  0  0  0  0  0  0  0
  -10.3980   -2.6660   -3.3330 H   0  0  0  0  0  0  0  0  0  0  0  0
   -8.6580   -6.4030   -6.3870 H   0  0  0  0  0  0  0  0  0  0  0  0
   -6.7670   -6.5170   -8.0190 H   0  0  0  0  0  0  0  0  0  0  0  0
   -6.3300   -4.5370   -9.4890 H   0  0  0  0  0  0  0  0  0  0  0  0
   -7.9130   -2.3610   -9.2400 H   0  0  0  0  0  0  0  0  0  0  0  0
   -9.6990   -2.4090   -7.6180 H   0  0  0  0  0  0  0  0  0  0  0  0
   -9.7770   -6.3660   -4.2830 H   0  0  0  0  0  0  0  0  0  0  0  0
  -10.2860   -5.5280   -2.8430 H   0  0  0  0  0  0  0  0  0  0  0  0
  1  2  1  0
  2  3  1  0
  3  4  1  0
  4  5  1  0
  5  6  2  0
  5  7  1  0
  7  8  2  0
  8  9  1  0
  9 10  2  0
 10 11  1  0
 11 12  1  0
 12 13  1  0
 13 14  1  0
 14 15  2  0
  3 16  1  0
 16 17  1  0
 17 18  1  0
 18 19  1  0
 19 20  1  0
 20 21  2  0
 20 22  1  0
 22 23  2  0
 23 24  1  0
 24 25  2  0
 25 26  1  0
 26 27  2  0
 19 28  1  0
 28  3  1  0
 15  7  1  0
 14 10  1  0
 27 22  1  0
  1 29  1  0
  1 30  1  0
  1 31  1  0
  2 32  1  0
  2 33  1  0
  4 34  1  0
  8 35  1  0
  9 36  1  0
 12 37  1  0
 12 38  1  0
 15 39  1  0
 16 40  1  0
 16 41  1  0
 17 42  1  0
 17 43  1  0
 18 44  1  0
 18 45  1  0
 23 46  1  0
 24 47  1  0
 25 48  1  0
 26 49  1  0
 27 50  1  0
 28 51  1  0
 28 52  1  0
A    1
 C1 
A    2
 C2 
A    3
 C3 
A    4
 N1 
A    5
 C4 
A    6
 O1 
A    7
 C5 
A    8
 C6 
A    9
 C7 
A   10
 C8 
A   11
 O2 
A   12
 C9 
A   13
 O3 
A   14
 C10
A   15
 C11
A   16
 C12
A   17
 C13
A   18
 C14
A   19
 N2 
A   20
 C15
A   21
 O4 
A   22
 C16
A   23
 C17
A   24
 C18
A   25
 C19
A   26
 C20
A   27
 C21
A   28
 C22
A   29
 H1 
A   30
 H2 
A   31
 H3 
A   32
 H4 
A   33
 H5 
A   34
 H6 
A   35
 H7 
A   36
 H8 
A   37
 H9 
A   38
 H10
A   39
 H11
A   40
 H12
A   41
 H13
A   42
 H14
A   43
 H15
A   44
 H16
A   45
 H17
A   46
 H18
A   47
 H19
A   48
 H20
A   49
 H21
A   50
 H22
A   51
 H23
A   52
 H24
M  END
>  <ref_pdb>  (38) 
x0147_0A

>  <ref_mols>  (38) 
x1919_0AS2,x0980_0BS4

>  <original SMILES>  (38) 
[H]c1c([H])c([H])c(C(=O)N2C([H])([H])C([H])([H])C([H])([H])C(N([H])C(=O)c3c([H])c([H])c4c(c3[H])OC([H])([H])O4)(C([H])([H])C([H])([H])[H])C2([H])[H])c([H])c1[H]

>  <index>  (38) 
12670

>  <∆∆G>  (38) 
-7.801352

>  <comRMSD>  (38) 
0.827599

>  <N_constrained_atoms>  (38) 
25.0

>  <N_unconstrained_atoms>  (38) 
4.0

>  <LE>  (38) 
0.269012

>  <percent_hybrid>  (38) 
36.0

>  <max_hit_Tanimoto>  (38) 
0.363116

>  <largest_ring>  (38) 
6

>  <N_interactions_kept>  (38) 
3.0

>  <N_interactions_lost>  (38) 
1.5

>  <interaction_uniqueness_metric>  (38) 
0.093456

>  <N_HA>  (38) 
28

>  <N_rotatable_bonds>  (38) 
5

>  <N_interactions>  (38) 
4

>  <N_PAINS>  (38) 
0

>  <UFF_Gibbs>  (38) 
301.279498

>  <strain_per_HA>  (38) 
10.759944

>  <ad_hoc_penalty>  (38) 
-31.979056

>  <cluster>  (38) 
359

>  <ranked>  (38) 
40.0

>  <merger_rank>  (38) 
1

>  <hydroph_interaction:LEU:127>  (38) 
2

>  <hbond:GLY:128>  (38) 
0

>  <hydroph_interaction:ALA:144>  (38) 
0

>  <hbond:GLY:164>  (38) 
0

>  <hbond:HIS:40>  (38) 
1

>  <pistack:HIS:40>  (38) 
0

>  <hydroph_interaction:LEU:125>  (38) 
0

>  <hydroph_interaction:PHE:170>  (38) 
0

>  <hydroph_interaction:HIS:40>  (38) 
0

>  <pication:HIS:40>  (38) 
1

>  <hbond:THR:142>  (38) 
0

>  <hbond:HIS:161>  (38) 
0

>  <hbond:GLY:166>  (38) 
0

>  <hbond:VAL:162>  (38) 
0

>  <hydroph_interaction:ASN:165>  (38) 
0

>  <hbond:ASN:126>  (38) 
0

>  <hbond:ARG:143>  (38) 
0

>  <hbond:GLU:71>  (38) 
0

>  <saltbridge:HIS:161>  (38) 
0

>  <hbond:ALA:144>  (38) 
0

>  <hbond:GLY:145>  (38) 
0

>  <hbond:GLN:146>  (38) 
0

>  <hbond:CYS:147>  (38) 
0

>  <halogenbond:ASN:126>  (38) 
0

>  <saltbridge:HIS:40>  (38) 
0

>  <hbond:LEU:127>  (38) 
0

>  <hbond:THR:130>  (38) 
0

>  <hydroph_interaction:GLU:71>  (38) 
0

>  <hydroph_interaction:THR:130>  (38) 
0

>  <saltbridge:ARG:143>  (38) 
0

>  <saltbridge:GLU:71>  (38) 
0

>  <hbond:GLY:129>  (38) 
0

>  <halogenbond:CYS:147>  (38) 
0

>  <hydroph_interaction:THR:39>  (38) 
0

>  <hbond:ASN:69>  (38) 
0

>  <hydroph_interaction:THR:132>  (38) 
0

>  <hbond:TYR:122>  (38) 
0

>  <hydroph_interaction:PHE:109>  (38) 
0

>  <hydroph_interaction:PHE:140>  (38) 
0

>  <hbond:PRO:141>  (38) 
0

$$$$
Z5486393336-x1084-0AS1
     RDKit          3D

 24 24  0  0  0  0  0  0  0  0999 V2000
   -6.8480   -4.5490   -3.7830 C   0  0  0  0  0  0  0  0  0  0  0  0
   -6.2040   -6.0930   -3.1860 S   0  0  0  0  0  4  0  0  0  0  0  0
   -7.1800   -6.6190   -2.2470 O   0  0  0  0  0  0  0  0  0  0  0  0
   -6.5050   -6.9210   -4.6300 N   0  0  0  0  0  0  0  0  0  0  0  0
   -7.7930   -7.2090   -4.9160 C   0  0  0  0  0  0  0  0  0  0  0  0
   -7.9240   -7.1260   -6.3720 C   0  0  0  0  0  0  0  0  0  0  0  0
   -8.0350   -5.8070   -7.1350 C   0  0  0  0  0  0  0  0  0  0  0  0
   -6.9340   -5.4800   -8.1490 C   0  0  0  0  0  0  0  0  0  0  0  0
   -6.9000   -4.2440   -8.9420 N   0  0  0  0  0  0  0  0  0  0  0  0
   -7.9990   -3.4100   -8.6580 C   0  0  0  0  0  0  0  0  0  0  0  0
   -9.1570   -3.6230   -7.6920 C   0  0  0  0  0  0  0  0  0  0  0  0
  -10.5970   -2.4630   -7.3820 Br  0  0  0  0  0  0  0  0  0  0  0  0
   -9.0740   -4.9170   -6.9410 C   0  0  0  0  0  0  0  0  0  0  0  0
   -6.1630   -3.7400   -3.5150 H   0  0  0  0  0  0  0  0  0  0  0  0
   -6.9860   -4.5940   -4.8650 H   0  0  0  0  0  0  0  0  0  0  0  0
   -7.8190   -4.3710   -3.3130 H   0  0  0  0  0  0  0  0  0  0  0  0
   -5.8800   -6.6530   -5.3740 H   0  0  0  0  0  0  0  0  0  0  0  0
   -8.4670   -6.5020   -4.4220 H   0  0  0  0  0  0  0  0  0  0  0  0
   -8.0450   -8.2200   -4.5730 H   0  0  0  0  0  0  0  0  0  0  0  0
   -7.0930   -7.6610   -6.8220 H   0  0  0  0  0  0  0  0  0  0  0  0
   -8.8190   -7.6840   -6.6100 H   0  0  0  0  0  0  0  0  0  0  0  0
   -6.1440   -6.2330   -8.2550 H   0  0  0  0  0  0  0  0  0  0  0  0
   -8.0360   -2.4700   -9.2050 H   0  0  0  0  0  0  0  0  0  0  0  0
   -9.8930   -5.0910   -6.2360 H   0  0  0  0  0  0  0  0  0  0  0  0
  1  2  1  0
  2  3  2  0
  2  4  1  0
  4  5  1  0
  5  6  1  0
  6  7  1  0
  7  8  2  0
  8  9  1  0
  9 10  2  0
 10 11  1  0
 11 12  1  0
 11 13  2  0
 13  7  1  0
  1 14  1  0
  1 15  1  0
  1 16  1  0
  4 17  1  0
  5 18  1  0
  5 19  1  0
  6 20  1  0
  6 21  1  0
  8 22  1  0
 10 23  1  0
 13 24  1  0
A    1
 C1 
A    2
 S1 
A    3
 O1 
A    4
 N1 
A    5
 C2 
A    6
 C3 
A    7
 C4 
A    8
 C5 
A    9
 N2 
A   10
 C6 
A   11
 C7 
A   12
BR1 
A   13
 C8 
A   14
 H1 
A   15
 H2 
A   16
 H3 
A   17
 H4 
A   18
 H5 
A   19
 H6 
A   20
 H7 
A   21
 H8 
A   22
 H9 
A   23
 H10
A   24
 H11
M  END
>  <ref_pdb>  (39) 
x0147_0A

>  <ref_mols>  (39) 
x1084_0AS1,x0980_0BS5

>  <original SMILES>  (39) 
[H]c1nc([H])c(C([H])([H])C([H])([H])N([H])S(=O)C([H])([H])[H])c([H])c1Br

>  <index>  (39) 
15377

>  <∆∆G>  (39) 
-6.433701

>  <comRMSD>  (39) 
0.666203

>  <N_constrained_atoms>  (39) 
10.0

>  <N_unconstrained_atoms>  (39) 
3.0

>  <LE>  (39) 
0.4949

>  <percent_hybrid>  (39) 
40.0

>  <max_hit_Tanimoto>  (39) 
0.111511

>  <largest_ring>  (39) 
6

>  <N_interactions_kept>  (39) 
0.0

>  <N_interactions_lost>  (39) 
0.0

>  <interaction_uniqueness_metric>  (39) 
0.106574

>  <N_HA>  (39) 
13

>  <N_rotatable_bonds>  (39) 
5

>  <N_interactions>  (39) 
3

>  <N_PAINS>  (39) 
0

>  <UFF_Gibbs>  (39) 
87.976662

>  <strain_per_HA>  (39) 
6.767384

>  <ad_hoc_penalty>  (39) 
-31.894105

>  <cluster>  (39) 
3500

>  <ranked>  (39) 
41.0

>  <merger_rank>  (39) 
1

>  <hydroph_interaction:LEU:127>  (39) 
0

>  <hbond:GLY:128>  (39) 
0

>  <hydroph_interaction:ALA:144>  (39) 
1

>  <hbond:GLY:164>  (39) 
0

>  <hbond:HIS:40>  (39) 
0

>  <pistack:HIS:40>  (39) 
0

>  <hydroph_interaction:LEU:125>  (39) 
0

>  <hydroph_interaction:PHE:170>  (39) 
0

>  <hydroph_interaction:HIS:40>  (39) 
0

>  <pication:HIS:40>  (39) 
1

>  <hbond:THR:142>  (39) 
0

>  <hbond:HIS:161>  (39) 
0

>  <hbond:GLY:166>  (39) 
0

>  <hbond:VAL:162>  (39) 
1

>  <hydroph_interaction:ASN:165>  (39) 
0

>  <hbond:ASN:126>  (39) 
0

>  <hbond:ARG:143>  (39) 
0

>  <hbond:GLU:71>  (39) 
0

>  <saltbridge:HIS:161>  (39) 
0

>  <hbond:ALA:144>  (39) 
0

>  <hbond:GLY:145>  (39) 
0

>  <hbond:GLN:146>  (39) 
0

>  <hbond:CYS:147>  (39) 
0

>  <halogenbond:ASN:126>  (39) 
0

>  <saltbridge:HIS:40>  (39) 
0

>  <hbond:LEU:127>  (39) 
0

>  <hbond:THR:130>  (39) 
0

>  <hydroph_interaction:GLU:71>  (39) 
0

>  <hydroph_interaction:THR:130>  (39) 
0

>  <saltbridge:ARG:143>  (39) 
0

>  <saltbridge:GLU:71>  (39) 
0

>  <hbond:GLY:129>  (39) 
0

>  <halogenbond:CYS:147>  (39) 
0

>  <hydroph_interaction:THR:39>  (39) 
0

>  <hbond:ASN:69>  (39) 
0

>  <hydroph_interaction:THR:132>  (39) 
0

>  <hbond:TYR:122>  (39) 
0

>  <hydroph_interaction:PHE:109>  (39) 
0

>  <hydroph_interaction:PHE:140>  (39) 
0

>  <hbond:PRO:141>  (39) 
0

$$$$
Z1303038656-x2099-0A
     RDKit          3D

 41 43  0  0  0  0  0  0  0  0999 V2000
  -10.1980   -1.7860   -5.4130 O   0  0  0  0  0  0  0  0  0  0  0  0
  -10.3130   -2.4980   -6.3880 C   0  0  0  0  0  0  0  0  0  0  0  0
  -11.4620   -2.4520   -7.2640 N   0  0  0  0  0  0  0  0  0  0  0  0
  -12.7410   -2.2140   -6.7420 C   0  0  0  0  0  0  0  0  0  0  0  0
  -12.7300   -1.0890   -5.6910 C   0  0  0  0  0  0  0  0  0  0  0  0
  -12.2490   -1.4710   -4.3530 N   0  0  0  0  0  0  0  0  0  0  0  0
  -12.1190   -0.3940   -3.4930 C   0  0  0  0  0  0  0  0  0  0  0  0
  -11.1720    0.3710   -3.4050 O   0  0  0  0  0  0  0  0  0  0  0  0
  -13.3070   -0.2080   -2.5480 C   0  0  0  0  0  0  0  0  0  0  0  0
  -14.1250   -1.3010   -2.3280 C   0  0  0  0  0  0  0  0  0  0  0  0
  -13.4340   -2.5120   -2.5130 C   0  0  0  0  0  0  0  0  0  0  0  0
  -12.8370   -2.5920   -3.8180 C   0  0  0  0  0  0  0  0  0  0  0  0
  -12.9490   -3.8780   -4.4130 O   0  0  0  0  0  0  0  0  0  0  0  0
   -9.2750   -3.5270   -6.7640 C   0  0  0  0  0  0  0  0  0  0  0  0
   -8.6110   -3.3860   -7.9680 C   0  0  0  0  0  0  0  0  0  0  0  0
   -7.5610   -4.4530   -8.2940 C   0  0  0  0  0  0  0  0  0  0  0  0
   -6.7830   -4.2840   -9.3880 O   0  0  0  0  0  0  0  0  0  0  0  0
   -7.4250   -5.5140   -7.4050 C   0  0  0  0  0  0  0  0  0  0  0  0
   -6.4940   -6.6490   -7.6760 C   0  0  0  0  0  0  0  0  0  0  0  0
   -6.3500   -7.6860   -6.7620 C   0  0  0  0  0  0  0  0  0  0  0  0
   -7.0930   -7.6590   -5.5910 C   0  0  0  0  0  0  0  0  0  0  0  0
   -7.9800   -6.6080   -5.3280 C   0  0  0  0  0  0  0  0  0  0  0  0
   -8.1540   -5.5410   -6.2160 C   0  0  0  0  0  0  0  0  0  0  0  0
   -9.0520   -4.5120   -5.9040 N   0  0  0  0  0  0  0  0  0  0  0  0
  -11.2630   -2.1600   -8.2130 H   0  0  0  0  0  0  0  0  0  0  0  0
  -13.1050   -3.1590   -6.3310 H   0  0  0  0  0  0  0  0  0  0  0  0
  -13.4120   -1.9090   -7.5520 H   0  0  0  0  0  0  0  0  0  0  0  0
  -13.7300   -0.6890   -5.5740 H   0  0  0  0  0  0  0  0  0  0  0  0
  -12.1090   -0.2710   -6.0370 H   0  0  0  0  0  0  0  0  0  0  0  0
  -13.9160    0.6180   -2.9220 H   0  0  0  0  0  0  0  0  0  0  0  0
  -12.9130    0.0700   -1.5640 H   0  0  0  0  0  0  0  0  0  0  0  0
  -14.6640   -1.2840   -1.3840 H   0  0  0  0  0  0  0  0  0  0  0  0
  -14.9700   -1.1450   -3.0100 H   0  0  0  0  0  0  0  0  0  0  0  0
  -12.6850   -2.6850   -1.7440 H   0  0  0  0  0  0  0  0  0  0  0  0
  -14.0790   -3.3650   -2.3200 H   0  0  0  0  0  0  0  0  0  0  0  0
   -8.7470   -2.6030   -8.7000 H   0  0  0  0  0  0  0  0  0  0  0  0
   -5.8870   -6.7230   -8.5730 H   0  0  0  0  0  0  0  0  0  0  0  0
   -5.6770   -8.4910   -6.9560 H   0  0  0  0  0  0  0  0  0  0  0  0
   -6.9770   -8.4710   -4.8780 H   0  0  0  0  0  0  0  0  0  0  0  0
   -8.5460   -6.6280   -4.4000 H   0  0  0  0  0  0  0  0  0  0  0  0
   -9.0770   -4.2350   -4.9280 H   0  0  0  0  0  0  0  0  0  0  0  0
  1  2  2  0
  2  3  1  0
  3  4  1  0
  4  5  1  0
  5  6  1  0
  6  7  1  0
  7  8  2  0
  7  9  1  0
  9 10  1  0
 10 11  1  0
 11 12  1  0
 12 13  2  0
  2 14  1  0
 14 15  2  0
 15 16  1  0
 16 17  2  0
 16 18  1  0
 18 19  2  0
 19 20  1  0
 20 21  2  0
 21 22  1  0
 22 23  2  0
 23 24  1  0
 12  6  1  0
 24 14  1  0
 23 18  1  0
  3 25  1  0
  4 26  1  0
  4 27  1  0
  5 28  1  0
  5 29  1  0
  9 30  1  0
  9 31  1  0
 10 32  1  0
 10 33  1  0
 11 34  1  0
 11 35  1  0
 15 36  1  0
 19 37  1  0
 20 38  1  0
 21 39  1  0
 22 40  1  0
 24 41  1  0
A    1
 O1 
A    2
 C1 
A    3
 N1 
A    4
 C2 
A    5
 C3 
A    6
 N2 
A    7
 C4 
A    8
 O2 
A    9
 C5 
A   10
 C6 
A   11
 C7 
A   12
 C8 
A   13
 O3 
A   14
 C9 
A   15
 C10
A   16
 C11
A   17
 O4 
A   18
 C12
A   19
 C13
A   20
 C14
A   21
 C15
A   22
 C16
A   23
 C17
A   24
 N3 
A   25
 H1 
A   26
 H2 
A   27
 H3 
A   28
 H4 
A   29
 H5 
A   30
 H6 
A   31
 H7 
A   32
 H8 
A   33
 H9 
A   34
 H10
A   35
 H11
A   36
 H12
A   37
 H13
A   38
 H14
A   39
 H15
A   40
 H16
A   41
 H17
M  END
>  <ref_pdb>  (40) 
x0147_0A

>  <ref_mols>  (40) 
x2099_0A,x0980_0BS2

>  <original SMILES>  (40) 
[H]c1c([H])c([H])c2c(c1[H])c(=O)c([H])c(C(=O)N([H])C([H])([H])C([H])([H])N1C(=O)C([H])([H])C([H])([H])C([H])([H])C1=O)n2[H]

>  <index>  (40) 
8828

>  <∆∆G>  (40) 
-6.053855

>  <comRMSD>  (40) 
0.848845

>  <N_constrained_atoms>  (40) 
20.0

>  <N_unconstrained_atoms>  (40) 
5.0

>  <LE>  (40) 
0.242154

>  <percent_hybrid>  (40) 
17.0

>  <max_hit_Tanimoto>  (40) 
0.352201

>  <largest_ring>  (40) 
6

>  <N_interactions_kept>  (40) 
1.0

>  <N_interactions_lost>  (40) 
0.0

>  <interaction_uniqueness_metric>  (40) 
0.055385

>  <N_HA>  (40) 
24

>  <N_rotatable_bonds>  (40) 
4

>  <N_interactions>  (40) 
2

>  <N_PAINS>  (40) 
0

>  <UFF_Gibbs>  (40) 
159.346738

>  <strain_per_HA>  (40) 
6.63942

>  <ad_hoc_penalty>  (40) 
-31.839755

>  <cluster>  (40) 
5290

>  <ranked>  (40) 
42.0

>  <merger_rank>  (40) 
1

>  <hydroph_interaction:LEU:127>  (40) 
0

>  <hbond:GLY:128>  (40) 
0

>  <hydroph_interaction:ALA:144>  (40) 
0

>  <hbond:GLY:164>  (40) 
0

>  <hbond:HIS:40>  (40) 
0

>  <pistack:HIS:40>  (40) 
0

>  <hydroph_interaction:LEU:125>  (40) 
0

>  <hydroph_interaction:PHE:170>  (40) 
0

>  <hydroph_interaction:HIS:40>  (40) 
0

>  <pication:HIS:40>  (40) 
0

>  <hbond:THR:142>  (40) 
2

>  <hbond:HIS:161>  (40) 
0

>  <hbond:GLY:166>  (40) 
0

>  <hbond:VAL:162>  (40) 
0

>  <hydroph_interaction:ASN:165>  (40) 
0

>  <hbond:ASN:126>  (40) 
0

>  <hbond:ARG:143>  (40) 
0

>  <hbond:GLU:71>  (40) 
0

>  <saltbridge:HIS:161>  (40) 
0

>  <hbond:ALA:144>  (40) 
0

>  <hbond:GLY:145>  (40) 
0

>  <hbond:GLN:146>  (40) 
0

>  <hbond:CYS:147>  (40) 
0

>  <halogenbond:ASN:126>  (40) 
0

>  <saltbridge:HIS:40>  (40) 
0

>  <hbond:LEU:127>  (40) 
0

>  <hbond:THR:130>  (40) 
0

>  <hydroph_interaction:GLU:71>  (40) 
0

>  <hydroph_interaction:THR:130>  (40) 
0

>  <saltbridge:ARG:143>  (40) 
0

>  <saltbridge:GLU:71>  (40) 
0

>  <hbond:GLY:129>  (40) 
0

>  <halogenbond:CYS:147>  (40) 
0

>  <hydroph_interaction:THR:39>  (40) 
0

>  <hbond:ASN:69>  (40) 
0

>  <hydroph_interaction:THR:132>  (40) 
0

>  <hbond:TYR:122>  (40) 
0

>  <hydroph_interaction:PHE:109>  (40) 
0

>  <hydroph_interaction:PHE:140>  (40) 
0

>  <hbond:PRO:141>  (40) 
0

$$$$
PV-003606569921-x1332-1AS2
     RDKit          3D

 23 24  0  0  0  0  0  0  0  0999 V2000
   -6.7490   -6.3590   -8.2370 C   0  0  0  0  0  0  0  0  0  0  0  0
   -7.2390   -4.9390   -8.2910 C   0  0  0  0  0  0  0  0  0  0  0  0
   -6.7070   -4.1690   -9.0760 O   0  0  0  0  0  0  0  0  0  0  0  0
   -8.2700   -4.6210   -7.4040 N   0  0  0  0  0  0  0  0  0  0  0  0
   -9.0420   -5.6260   -6.7280 C   0  0  0  0  0  0  0  0  0  0  0  0
  -10.4510   -5.1470   -6.9880 C   0  0  1  0  0  0  0  0  0  0  0  0
  -11.3370   -5.1150   -5.7440 C   0  0  0  0  0  0  0  0  0  0  0  0
  -11.9160   -4.0250   -5.7430 O   0  0  0  0  0  0  0  0  0  0  0  0
  -11.2510   -3.1390   -6.5200 C   0  0  0  0  0  0  0  0  0  0  0  0
  -11.3140   -1.9270   -6.3960 O   0  0  0  0  0  0  0  0  0  0  0  0
  -10.5020   -3.8170   -7.4650 C   0  0  1  0  0  0  0  0  0  0  0  0
   -9.0900   -3.4620   -7.5470 C   0  0  0  0  0  0  0  0  0  0  0  0
   -7.1370   -6.8960   -7.3670 H   0  0  0  0  0  0  0  0  0  0  0  0
   -7.0580   -6.8830   -9.1380 H   0  0  0  0  0  0  0  0  0  0  0  0
   -5.6590   -6.3500   -8.1990 H   0  0  0  0  0  0  0  0  0  0  0  0
   -8.7990   -6.6220   -7.0970 H   0  0  0  0  0  0  0  0  0  0  0  0
   -8.7920   -5.5830   -5.6600 H   0  0  0  0  0  0  0  0  0  0  0  0
  -10.9440   -5.8280   -7.6690 H   0  0  0  0  0  0  0  0  0  0  0  0
  -10.7260   -5.2140   -4.8360 H   0  0  0  0  0  0  0  0  0  0  0  0
  -12.0590   -5.9420   -5.7460 H   0  0  0  0  0  0  0  0  0  0  0  0
  -11.0270   -3.8460   -8.4020 H   0  0  0  0  0  0  0  0  0  0  0  0
   -8.7170   -2.7800   -6.7940 H   0  0  0  0  0  0  0  0  0  0  0  0
   -8.7780   -2.9970   -8.4870 H   0  0  0  0  0  0  0  0  0  0  0  0
  1  2  1  0
  2  3  2  0
  2  4  1  0
  4  5  1  0
  5  6  1  0
  6  7  1  0
  7  8  1  0
  8  9  1  0
  9 10  2  0
  9 11  1  0
 11 12  1  0
 12  4  1  0
 11  6  1  0
  1 13  1  0
  1 14  1  0
  1 15  1  0
  5 16  1  0
  5 17  1  0
  6 18  1  6
  7 19  1  0
  7 20  1  0
 11 21  1  6
 12 22  1  0
 12 23  1  0
A    1
 C1 
A    2
 C2 
A    3
 O1 
A    4
 N1 
A    5
 C3 
A    6
 C4 
A    7
 C5 
A    8
 O2 
A    9
 C6 
A   10
 O3 
A   11
 C7 
A   12
 C8 
A   13
 H1 
A   14
 H2 
A   15
 H3 
A   16
 H4 
A   17
 H5 
A   18
 H6 
A   19
 H7 
A   20
 H8 
A   21
 H9 
A   22
 H10
A   23
 H11
M  END
>  <ref_pdb>  (41) 
x0147_0A

>  <ref_mols>  (41) 
x1332_1AS2,x0980_0BS4

>  <original SMILES>  (41) 
[H]C([H])([H])C(=O)N1C([H])([H])[C@@]2([H])C([H])([H])OC(=O)[C@@]2([H])C1([H])[H]

>  <index>  (41) 
8698

>  <∆∆G>  (41) 
-5.893731

>  <comRMSD>  (41) 
0.928343

>  <N_constrained_atoms>  (41) 
13.0

>  <N_unconstrained_atoms>  (41) 
2.0

>  <LE>  (41) 
0.392915

>  <percent_hybrid>  (41) 
29.0

>  <max_hit_Tanimoto>  (41) 
0.685185

>  <largest_ring>  (41) 
5

>  <N_interactions_kept>  (41) 
2.0

>  <N_interactions_lost>  (41) 
0.0

>  <interaction_uniqueness_metric>  (41) 
0.023669

>  <N_HA>  (41) 
12

>  <N_rotatable_bonds>  (41) 
1

>  <N_interactions>  (41) 
1

>  <N_PAINS>  (41) 
0

>  <UFF_Gibbs>  (41) 
89.269517

>  <strain_per_HA>  (41) 
7.439064

>  <ad_hoc_penalty>  (41) 
-31.188157

>  <cluster>  (41) 
5319

>  <ranked>  (41) 
43.0

>  <merger_rank>  (41) 
2

>  <hydroph_interaction:LEU:127>  (41) 
0

>  <hbond:GLY:128>  (41) 
0

>  <hydroph_interaction:ALA:144>  (41) 
1

>  <hbond:GLY:164>  (41) 
0

>  <hbond:HIS:40>  (41) 
0

>  <pistack:HIS:40>  (41) 
0

>  <hydroph_interaction:LEU:125>  (41) 
0

>  <hydroph_interaction:PHE:170>  (41) 
0

>  <hydroph_interaction:HIS:40>  (41) 
0

>  <pication:HIS:40>  (41) 
0

>  <hbond:THR:142>  (41) 
0

>  <hbond:HIS:161>  (41) 
0

>  <hbond:GLY:166>  (41) 
0

>  <hbond:VAL:162>  (41) 
0

>  <hydroph_interaction:ASN:165>  (41) 
0

>  <hbond:ASN:126>  (41) 
0

>  <hbond:ARG:143>  (41) 
0

>  <hbond:GLU:71>  (41) 
0

>  <saltbridge:HIS:161>  (41) 
0

>  <hbond:ALA:144>  (41) 
0

>  <hbond:GLY:145>  (41) 
0

>  <hbond:GLN:146>  (41) 
0

>  <hbond:CYS:147>  (41) 
0

>  <halogenbond:ASN:126>  (41) 
0

>  <saltbridge:HIS:40>  (41) 
0

>  <hbond:LEU:127>  (41) 
0

>  <hbond:THR:130>  (41) 
0

>  <hydroph_interaction:GLU:71>  (41) 
0

>  <hydroph_interaction:THR:130>  (41) 
0

>  <saltbridge:ARG:143>  (41) 
0

>  <saltbridge:GLU:71>  (41) 
0

>  <hbond:GLY:129>  (41) 
0

>  <halogenbond:CYS:147>  (41) 
0

>  <hydroph_interaction:THR:39>  (41) 
0

>  <hbond:ASN:69>  (41) 
0

>  <hydroph_interaction:THR:132>  (41) 
0

>  <hbond:TYR:122>  (41) 
0

>  <hydroph_interaction:PHE:109>  (41) 
0

>  <hydroph_interaction:PHE:140>  (41) 
0

>  <hbond:PRO:141>  (41) 
0

$$$$
Z1438695420-x1919-0AS11
     RDKit          3D

 33 33  0  0  0  0  0  0  0  0999 V2000
   -7.3640   -2.9730   -1.2390 C   0  0  0  0  0  0  0  0  0  0  0  0
   -7.0200   -4.4530   -1.3120 C   0  0  0  0  0  0  0  0  0  0  0  0
   -7.4040   -5.0600   -2.6410 C   0  0  0  0  0  0  0  0  0  0  0  0
   -6.4660   -4.5500   -3.7160 C   0  0  0  0  0  0  0  0  0  0  0  0
   -7.2780   -6.5180   -2.6420 N   0  0  0  0  0  0  0  0  0  0  0  0
   -7.5160   -7.1220   -3.9520 C   0  0  0  0  0  0  0  0  0  0  0  0
   -8.7550   -6.5220   -4.6590 C   0  0  0  0  0  0  0  0  0  0  0  0
   -8.3690   -5.8770   -5.9670 C   0  0  0  0  0  0  0  0  0  0  0  0
   -7.4000   -6.6310   -6.7950 C   0  0  0  0  0  0  0  0  0  0  0  0
   -6.9610   -6.1300   -7.9810 C   0  0  0  0  0  0  0  0  0  0  0  0
   -7.4510   -4.8010   -8.4770 C   0  0  0  0  0  0  0  0  0  0  0  0
   -6.9480   -4.3920   -9.6540 O   0  0  0  0  0  0  0  0  0  0  0  0
   -8.3810   -4.1060   -7.6870 C   0  0  0  0  0  0  0  0  0  0  0  0
   -8.8360   -4.6320   -6.4510 C   0  0  0  0  0  0  0  0  0  0  0  0
   -7.8580   -2.6460   -2.1580 H   0  0  0  0  0  0  0  0  0  0  0  0
   -6.4520   -2.3920   -1.1120 H   0  0  0  0  0  0  0  0  0  0  0  0
   -8.0380   -2.7790   -0.4010 H   0  0  0  0  0  0  0  0  0  0  0  0
   -5.9410   -4.5570   -1.1520 H   0  0  0  0  0  0  0  0  0  0  0  0
   -7.5190   -4.9830   -0.4920 H   0  0  0  0  0  0  0  0  0  0  0  0
   -8.4240   -4.7610   -2.9130 H   0  0  0  0  0  0  0  0  0  0  0  0
   -5.6060   -5.2310   -3.7480 H   0  0  0  0  0  0  0  0  0  0  0  0
   -6.1150   -3.5360   -3.5010 H   0  0  0  0  0  0  0  0  0  0  0  0
   -6.9440   -4.5350   -4.7000 H   0  0  0  0  0  0  0  0  0  0  0  0
   -6.3560   -6.7900   -2.2960 H   0  0  0  0  0  0  0  0  0  0  0  0
   -6.6460   -6.9410   -4.5930 H   0  0  0  0  0  0  0  0  0  0  0  0
   -7.6380   -8.2080   -3.8570 H   0  0  0  0  0  0  0  0  0  0  0  0
   -9.4760   -7.3270   -4.8520 H   0  0  0  0  0  0  0  0  0  0  0  0
   -9.2790   -5.8000   -4.0200 H   0  0  0  0  0  0  0  0  0  0  0  0
   -7.0670   -7.5920   -6.3910 H   0  0  0  0  0  0  0  0  0  0  0  0
   -6.2430   -6.6330   -8.6390 H   0  0  0  0  0  0  0  0  0  0  0  0
   -7.1620   -3.4560   -9.7600 H   0  0  0  0  0  0  0  0  0  0  0  0
   -8.7690   -3.1430   -8.0100 H   0  0  0  0  0  0  0  0  0  0  0  0
   -9.5510   -4.0590   -5.8680 H   0  0  0  0  0  0  0  0  0  0  0  0
  1  2  1  0
  2  3  1  0
  3  4  1  0
  3  5  1  0
  5  6  1  0
  6  7  1  0
  7  8  1  0
  8  9  2  0
  9 10  1  0
 10 11  2  0
 11 12  1  0
 11 13  1  0
 13 14  2  0
 14  8  1  0
  1 15  1  0
  1 16  1  0
  1 17  1  0
  2 18  1  0
  2 19  1  0
  3 20  1  0
  4 21  1  0
  4 22  1  0
  4 23  1  0
  5 24  1  0
  6 25  1  0
  6 26  1  0
  7 27  1  0
  7 28  1  0
  9 29  1  0
 10 30  1  0
 12 31  1  0
 13 32  1  0
 14 33  1  0
A    1
 C1 
A    2
 C2 
A    3
 C3 
A    4
 C4 
A    5
 N1 
A    6
 C5 
A    7
 C6 
A    8
 C7 
A    9
 C8 
A   10
 C9 
A   11
 C10
A   12
 O1 
A   13
 C11
A   14
 C12
A   15
 H1 
A   16
 H2 
A   17
 H3 
A   18
 H4 
A   19
 H5 
A   20
 H6 
A   21
 H7 
A   22
 H8 
A   23
 H9 
A   24
 H10
A   25
 H11
A   26
 H12
A   27
 H13
A   28
 H14
A   29
 H15
A   30
 H16
A   31
 H17
A   32
 H18
A   33
 H19
M  END
>  <ref_pdb>  (42) 
x0147_0A

>  <ref_mols>  (42) 
x1919_0AS11,x1498_0A

>  <original SMILES>  (42) 
[H]Oc1c([H])c([H])c(C([H])([H])C([H])([H])N([H])C([H])(C([H])([H])[H])C([H])([H])C([H])([H])[H])c([H])c1[H]

>  <index>  (42) 
13918

>  <∆∆G>  (42) 
-8.297051

>  <comRMSD>  (42) 
0.7729

>  <N_constrained_atoms>  (42) 
14.0

>  <N_unconstrained_atoms>  (42) 
1.0

>  <LE>  (42) 
0.553137

>  <percent_hybrid>  (42) 
50.0

>  <max_hit_Tanimoto>  (42) 
0.113537

>  <largest_ring>  (42) 
6

>  <N_interactions_kept>  (42) 
1.5

>  <N_interactions_lost>  (42) 
0.0

>  <interaction_uniqueness_metric>  (42) 
0.096213

>  <N_HA>  (42) 
14

>  <N_rotatable_bonds>  (42) 
8

>  <N_interactions>  (42) 
2

>  <N_PAINS>  (42) 
0

>  <UFF_Gibbs>  (42) 
77.32795

>  <strain_per_HA>  (42) 
5.523386

>  <ad_hoc_penalty>  (42) 
-30.749658

>  <cluster>  (42) 
3846

>  <ranked>  (42) 
44.0

>  <merger_rank>  (42) 
1

>  <hydroph_interaction:LEU:127>  (42) 
1

>  <hbond:GLY:128>  (42) 
0

>  <hydroph_interaction:ALA:144>  (42) 
0

>  <hbond:GLY:164>  (42) 
0

>  <hbond:HIS:40>  (42) 
0

>  <pistack:HIS:40>  (42) 
0

>  <hydroph_interaction:LEU:125>  (42) 
0

>  <hydroph_interaction:PHE:170>  (42) 
0

>  <hydroph_interaction:HIS:40>  (42) 
0

>  <pication:HIS:40>  (42) 
0

>  <hbond:THR:142>  (42) 
0

>  <hbond:HIS:161>  (42) 
1

>  <hbond:GLY:166>  (42) 
0

>  <hbond:VAL:162>  (42) 
0

>  <hydroph_interaction:ASN:165>  (42) 
0

>  <hbond:ASN:126>  (42) 
0

>  <hbond:ARG:143>  (42) 
0

>  <hbond:GLU:71>  (42) 
0

>  <saltbridge:HIS:161>  (42) 
0

>  <hbond:ALA:144>  (42) 
0

>  <hbond:GLY:145>  (42) 
0

>  <hbond:GLN:146>  (42) 
0

>  <hbond:CYS:147>  (42) 
0

>  <halogenbond:ASN:126>  (42) 
0

>  <saltbridge:HIS:40>  (42) 
0

>  <hbond:LEU:127>  (42) 
0

>  <hbond:THR:130>  (42) 
0

>  <hydroph_interaction:GLU:71>  (42) 
0

>  <hydroph_interaction:THR:130>  (42) 
0

>  <saltbridge:ARG:143>  (42) 
0

>  <saltbridge:GLU:71>  (42) 
0

>  <hbond:GLY:129>  (42) 
0

>  <halogenbond:CYS:147>  (42) 
0

>  <hydroph_interaction:THR:39>  (42) 
0

>  <hbond:ASN:69>  (42) 
0

>  <hydroph_interaction:THR:132>  (42) 
0

>  <hbond:TYR:122>  (42) 
0

>  <hydroph_interaction:PHE:109>  (42) 
0

>  <hydroph_interaction:PHE:140>  (42) 
0

>  <hbond:PRO:141>  (42) 
0

$$$$
Z3626779006-x1919-0AS12
     RDKit          3D

 50 51  0  0  0  0  0  0  0  0999 V2000
   -5.5630    0.1050   -2.0920 C   0  0  0  0  0  0  0  0  0  0  0  0
   -6.1750    0.1110   -0.7110 C   0  0  0  0  0  0  0  0  0  0  0  0
   -7.2600   -0.9460   -0.6210 C   0  0  0  0  0  0  0  0  0  0  0  0
   -6.7100   -2.2510   -0.7040 O   0  0  0  0  0  0  0  0  0  0  0  0
   -7.5520   -3.1960   -1.3640 C   0  0  0  0  0  0  0  0  0  0  0  0
   -6.8660   -4.5440   -1.7130 C   0  0  0  0  0  0  0  0  0  0  0  0
   -5.9870   -5.0190   -1.0010 O   0  0  0  0  0  0  0  0  0  0  0  0
   -7.2920   -5.2130   -2.8810 N   0  0  0  0  0  0  0  0  0  0  0  0
   -7.2510   -6.6690   -3.0810 C   0  0  0  0  0  0  0  0  0  0  0  0
   -5.8300   -7.2240   -3.2580 C   0  0  0  0  0  0  0  0  0  0  0  0
   -5.2790   -7.7190   -1.9500 C   0  0  0  0  0  0  0  0  0  0  0  0
   -3.9780   -7.3910   -1.5860 C   0  0  0  0  0  0  0  0  0  0  0  0
   -3.4390   -7.8230   -0.3800 C   0  0  0  0  0  0  0  0  0  0  0  0
   -4.2060   -8.6010    0.4810 C   0  0  0  0  0  0  0  0  0  0  0  0
   -5.5100   -8.9450    0.1280 C   0  0  0  0  0  0  0  0  0  0  0  0
   -6.0460   -8.5050   -1.0820 C   0  0  0  0  0  0  0  0  0  0  0  0
   -7.4180   -4.4130   -4.0970 C   0  0  0  0  0  0  0  0  0  0  0  0
   -8.6700   -4.7020   -4.9810 C   0  0  0  0  0  0  0  0  0  0  0  0
   -8.2690   -4.5460   -6.4310 C   0  0  0  0  0  0  0  0  0  0  0  0
   -7.5500   -5.5660   -7.0380 C   0  0  0  0  0  0  0  0  0  0  0  0
   -7.1420   -5.4100   -8.3430 C   0  0  0  0  0  0  0  0  0  0  0  0
   -7.4040   -4.3140   -9.0730 N   0  0  0  0  0  0  0  0  0  0  0  0
   -8.1180   -3.3490   -8.4710 C   0  0  0  0  0  0  0  0  0  0  0  0
   -8.5720   -3.4090   -7.1780 C   0  0  0  0  0  0  0  0  0  0  0  0
   -4.5020    0.3320   -2.0660 H   0  0  0  0  0  0  0  0  0  0  0  0
   -5.6870   -0.8760   -2.5600 H   0  0  0  0  0  0  0  0  0  0  0  0
   -6.0680    0.8380   -2.7220 H   0  0  0  0  0  0  0  0  0  0  0  0
   -6.5840    1.1060   -0.5060 H   0  0  0  0  0  0  0  0  0  0  0  0
   -5.4020   -0.0850    0.0410 H   0  0  0  0  0  0  0  0  0  0  0  0
   -7.7700   -0.8680    0.3450 H   0  0  0  0  0  0  0  0  0  0  0  0
   -8.0180   -0.8000   -1.4020 H   0  0  0  0  0  0  0  0  0  0  0  0
   -8.4070   -3.4300   -0.7200 H   0  0  0  0  0  0  0  0  0  0  0  0
   -7.9030   -2.7400   -2.2940 H   0  0  0  0  0  0  0  0  0  0  0  0
   -7.7440   -7.1400   -2.2220 H   0  0  0  0  0  0  0  0  0  0  0  0
   -7.8590   -6.9320   -3.9520 H   0  0  0  0  0  0  0  0  0  0  0  0
   -5.8170   -8.0370   -3.9970 H   0  0  0  0  0  0  0  0  0  0  0  0
   -5.1640   -6.4540   -3.6670 H   0  0  0  0  0  0  0  0  0  0  0  0
   -3.3810   -6.7910   -2.2510 H   0  0  0  0  0  0  0  0  0  0  0  0
   -2.4190   -7.5540   -0.1120 H   0  0  0  0  0  0  0  0  0  0  0  0
   -3.7870   -8.9400    1.4240 H   0  0  0  0  0  0  0  0  0  0  0  0
   -6.1100   -9.5550    0.7990 H   0  0  0  0  0  0  0  0  0  0  0  0
   -7.0670   -8.7790   -1.3440 H   0  0  0  0  0  0  0  0  0  0  0  0
   -7.4120   -3.3640   -3.7990 H   0  0  0  0  0  0  0  0  0  0  0  0
   -6.5150   -4.5680   -4.6830 H   0  0  0  0  0  0  0  0  0  0  0  0
   -9.4850   -4.0120   -4.7310 H   0  0  0  0  0  0  0  0  0  0  0  0
   -9.0600   -5.7130   -4.8060 H   0  0  0  0  0  0  0  0  0  0  0  0
   -7.2950   -6.4760   -6.5040 H   0  0  0  0  0  0  0  0  0  0  0  0
   -6.5720   -6.1820   -8.8570 H   0  0  0  0  0  0  0  0  0  0  0  0
   -8.3240   -2.4770   -9.0710 H   0  0  0  0  0  0  0  0  0  0  0  0
   -9.1370   -2.5840   -6.7560 H   0  0  0  0  0  0  0  0  0  0  0  0
  1  2  1  0
  2  3  1  0
  3  4  1  0
  4  5  1  0
  5  6  1  0
  6  7  2  0
  6  8  1  0
  8  9  1  0
  9 10  1  0
 10 11  1  0
 11 12  2  0
 12 13  1  0
 13 14  2  0
 14 15  1  0
 15 16  2  0
  8 17  1  0
 17 18  1  0
 18 19  1  0
 19 20  2  0
 20 21  1  0
 21 22  2  0
 22 23  1  0
 23 24  2  0
 16 11  1  0
 24 19  1  0
  1 25  1  0
  1 26  1  0
  1 27  1  0
  2 28  1  0
  2 29  1  0
  3 30  1  0
  3 31  1  0
  5 32  1  0
  5 33  1  0
  9 34  1  0
  9 35  1  0
 10 36  1  0
 10 37  1  0
 12 38  1  0
 13 39  1  0
 14 40  1  0
 15 41  1  0
 16 42  1  0
 17 43  1  0
 17 44  1  0
 18 45  1  0
 18 46  1  0
 20 47  1  0
 21 48  1  0
 23 49  1  0
 24 50  1  0
A    1
 C1 
A    2
 C2 
A    3
 C3 
A    4
 O1 
A    5
 C4 
A    6
 C5 
A    7
 O2 
A    8
 N1 
A    9
 C6 
A   10
 C7 
A   11
 C8 
A   12
 C9 
A   13
 C10
A   14
 C11
A   15
 C12
A   16
 C13
A   17
 C14
A   18
 C15
A   19
 C16
A   20
 C17
A   21
 C18
A   22
 N2 
A   23
 C19
A   24
 C20
A   25
 H1 
A   26
 H2 
A   27
 H3 
A   28
 H4 
A   29
 H5 
A   30
 H6 
A   31
 H7 
A   32
 H8 
A   33
 H9 
A   34
 H10
A   35
 H11
A   36
 H12
A   37
 H13
A   38
 H14
A   39
 H15
A   40
 H16
A   41
 H17
A   42
 H18
A   43
 H19
A   44
 H20
A   45
 H21
A   46
 H22
A   47
 H23
A   48
 H24
A   49
 H25
A   50
 H26
M  END
>  <ref_pdb>  (43) 
x0147_0A

>  <ref_mols>  (43) 
x1919_0AS12,x0980_0BS5

>  <original SMILES>  (43) 
[H]c1nc([H])c([H])c(C([H])([H])C([H])([H])N(C(=O)C([H])([H])OC([H])([H])C([H])([H])C([H])([H])[H])C([H])([H])C([H])([H])c2c([H])c([H])c([H])c([H])c2[H])c1[H]

>  <index>  (43) 
37

>  <∆∆G>  (43) 
-9.875402

>  <comRMSD>  (43) 
0.696864

>  <N_constrained_atoms>  (43) 
22.0

>  <N_unconstrained_atoms>  (43) 
2.0

>  <LE>  (43) 
0.411475

>  <percent_hybrid>  (43) 
28.0

>  <max_hit_Tanimoto>  (43) 
0.172269

>  <largest_ring>  (43) 
6

>  <N_interactions_kept>  (43) 
1.0

>  <N_interactions_lost>  (43) 
2.5

>  <interaction_uniqueness_metric>  (43) 
0.084339

>  <N_HA>  (43) 
24

>  <N_rotatable_bonds>  (43) 
11

>  <N_interactions>  (43) 
6

>  <N_PAINS>  (43) 
0

>  <UFF_Gibbs>  (43) 
72.276663

>  <strain_per_HA>  (43) 
3.011515

>  <ad_hoc_penalty>  (43) 
-30.724549

>  <cluster>  (43) 
1642

>  <ranked>  (43) 
45.0

>  <merger_rank>  (43) 
1

>  <hydroph_interaction:LEU:127>  (43) 
2

>  <hbond:GLY:128>  (43) 
1

>  <hydroph_interaction:ALA:144>  (43) 
0

>  <hbond:GLY:164>  (43) 
0

>  <hbond:HIS:40>  (43) 
0

>  <pistack:HIS:40>  (43) 
1

>  <hydroph_interaction:LEU:125>  (43) 
0

>  <hydroph_interaction:PHE:170>  (43) 
1

>  <hydroph_interaction:HIS:40>  (43) 
1

>  <pication:HIS:40>  (43) 
0

>  <hbond:THR:142>  (43) 
0

>  <hbond:HIS:161>  (43) 
0

>  <hbond:GLY:166>  (43) 
0

>  <hbond:VAL:162>  (43) 
0

>  <hydroph_interaction:ASN:165>  (43) 
0

>  <hbond:ASN:126>  (43) 
0

>  <hbond:ARG:143>  (43) 
0

>  <hbond:GLU:71>  (43) 
0

>  <saltbridge:HIS:161>  (43) 
0

>  <hbond:ALA:144>  (43) 
0

>  <hbond:GLY:145>  (43) 
0

>  <hbond:GLN:146>  (43) 
0

>  <hbond:CYS:147>  (43) 
0

>  <halogenbond:ASN:126>  (43) 
0

>  <saltbridge:HIS:40>  (43) 
0

>  <hbond:LEU:127>  (43) 
0

>  <hbond:THR:130>  (43) 
0

>  <hydroph_interaction:GLU:71>  (43) 
0

>  <hydroph_interaction:THR:130>  (43) 
0

>  <saltbridge:ARG:143>  (43) 
0

>  <saltbridge:GLU:71>  (43) 
0

>  <hbond:GLY:129>  (43) 
0

>  <halogenbond:CYS:147>  (43) 
0

>  <hydroph_interaction:THR:39>  (43) 
0

>  <hbond:ASN:69>  (43) 
0

>  <hydroph_interaction:THR:132>  (43) 
0

>  <hbond:TYR:122>  (43) 
0

>  <hydroph_interaction:PHE:109>  (43) 
0

>  <hydroph_interaction:PHE:140>  (43) 
0

>  <hbond:PRO:141>  (43) 
0

$$$$
Z3653179096-x1071-0A
     RDKit          3D

 39 40  0  0  0  0  0  0  0  0999 V2000
   -5.7550   -0.1100   -2.3870 C   0  0  0  0  0  0  0  0  0  0  0  0
   -6.8330   -0.6440   -1.0530 S   0  0  0  0  0  6  0  0  0  0  0  0
   -5.9770   -0.8820    0.0530 O   0  0  0  0  0  0  0  0  0  0  0  0
   -7.9190    0.3070   -0.9490 O   0  0  0  0  0  0  0  0  0  0  0  0
   -7.5460   -2.2070   -1.6870 C   0  0  0  0  0  0  0  0  0  0  0  0
   -6.5510   -3.2400   -2.2020 C   0  0  0  0  0  0  0  0  0  0  0  0
   -7.2680   -4.4720   -2.6350 C   0  0  0  0  0  0  0  0  0  0  0  0
   -7.6300   -4.5500   -4.1420 C   0  0  0  0  0  0  0  0  0  0  0  0
   -6.8290   -4.8570   -5.0010 O   0  0  0  0  0  0  0  0  0  0  0  0
   -9.0500   -4.2300   -4.4590 N   0  0  0  0  0  0  0  0  0  0  0  0
   -9.5730   -4.9850   -5.6290 C   0  0  0  0  0  0  0  0  0  0  0  0
   -8.6950   -4.7240   -6.8720 C   0  0  0  0  0  0  0  0  0  0  0  0
   -8.7200   -3.5000   -7.6930 C   0  0  0  0  0  0  0  0  0  0  0  0
   -7.7760   -3.5560   -8.7920 N   0  0  0  0  0  0  0  0  0  0  0  0
   -7.0960   -4.7500   -8.7850 N   0  0  0  0  0  0  0  0  0  0  0  0
   -7.4720   -5.8670   -7.5560 S   0  0  0  0  0  0  0  0  0  0  0  0
   -6.5310   -5.5430   -2.1290 C   0  0  0  0  0  0  0  0  0  0  0  0
   -5.5320   -6.2910   -2.9550 C   0  0  0  0  0  0  0  0  0  0  0  0
   -4.8830   -7.3650   -2.1690 C   0  0  0  0  0  0  0  0  0  0  0  0
   -5.1110   -7.7550   -0.7360 C   0  0  0  0  0  0  0  0  0  0  0  0
   -6.0730   -6.9910   -0.0760 C   0  0  0  0  0  0  0  0  0  0  0  0
   -6.7300   -5.9410   -0.7750 C   0  0  0  0  0  0  0  0  0  0  0  0
   -6.3290    0.5730   -3.0080 H   0  0  0  0  0  0  0  0  0  0  0  0
   -5.4860   -0.9850   -2.9890 H   0  0  0  0  0  0  0  0  0  0  0  0
   -4.8550    0.3920   -2.0200 H   0  0  0  0  0  0  0  0  0  0  0  0
   -8.2100   -1.9340   -2.5150 H   0  0  0  0  0  0  0  0  0  0  0  0
   -8.1590   -2.6560   -0.9010 H   0  0  0  0  0  0  0  0  0  0  0  0
   -5.9680   -2.8250   -3.0350 H   0  0  0  0  0  0  0  0  0  0  0  0
   -5.8400   -3.5180   -1.4160 H   0  0  0  0  0  0  0  0  0  0  0  0
   -8.2300   -4.4920   -2.1060 H   0  0  0  0  0  0  0  0  0  0  0  0
   -9.1620   -3.2170   -4.4660 H   0  0  0  0  0  0  0  0  0  0  0  0
   -9.7080   -6.0250   -5.3190 H   0  0  0  0  0  0  0  0  0  0  0  0
  -10.5770   -4.6110   -5.8660 H   0  0  0  0  0  0  0  0  0  0  0  0
   -9.3380   -2.6140   -7.5590 H   0  0  0  0  0  0  0  0  0  0  0  0
   -5.3250   -6.0490   -4.0030 H   0  0  0  0  0  0  0  0  0  0  0  0
   -4.1320   -7.9530   -2.7110 H   0  0  0  0  0  0  0  0  0  0  0  0
   -4.5660   -8.5730   -0.2610 H   0  0  0  0  0  0  0  0  0  0  0  0
   -6.3190   -7.1940    0.9710 H   0  0  0  0  0  0  0  0  0  0  0  0
   -7.4660   -5.3820   -0.2010 H   0  0  0  0  0  0  0  0  0  0  0  0
  1  2  1  0
  2  3  2  0
  2  4  2  0
  2  5  1  0
  5  6  1  0
  6  7  1  0
  7  8  1  0
  8  9  2  0
  8 10  1  0
 10 11  1  0
 11 12  1  0
 12 13  2  0
 13 14  1  0
 14 15  2  0
 15 16  1  0
  7 17  1  0
 17 18  2  0
 18 19  1  0
 19 20  2  0
 20 21  1  0
 21 22  2  0
 16 12  1  0
 22 17  1  0
  1 23  1  0
  1 24  1  0
  1 25  1  0
  5 26  1  0
  5 27  1  0
  6 28  1  0
  6 29  1  0
  7 30  1  0
 10 31  1  0
 11 32  1  0
 11 33  1  0
 13 34  1  0
 18 35  1  0
 19 36  1  0
 20 37  1  0
 21 38  1  0
 22 39  1  0
A    1
 C1 
A    2
 S1 
A    3
 O1 
A    4
 O2 
A    5
 C2 
A    6
 C3 
A    7
 C4 
A    8
 C5 
A    9
 O3 
A   10
 N1 
A   11
 C6 
A   12
 C7 
A   13
 C8 
A   14
 N2 
A   15
 N3 
A   16
 S2 
A   17
 C9 
A   18
 C10
A   19
 C11
A   20
 C12
A   21
 C13
A   22
 C14
A   23
 H1 
A   24
 H2 
A   25
 H3 
A   26
 H4 
A   27
 H5 
A   28
 H6 
A   29
 H7 
A   30
 H8 
A   31
 H9 
A   32
 H10
A   33
 H11
A   34
 H12
A   35
 H13
A   36
 H14
A   37
 H15
A   38
 H16
A   39
 H17
M  END
>  <ref_pdb>  (44) 
x0147_0A

>  <ref_mols>  (44) 
x1071_0A,x0789_0AS1

>  <original SMILES>  (44) 
[H]c1nnsc1C([H])([H])N([H])C(=O)C([H])(c1c([H])c([H])c([H])c([H])c1[H])C([H])([H])C([H])([H])S(=O)(=O)C([H])([H])[H]

>  <index>  (44) 
12065

>  <∆∆G>  (44) 
-8.978204

>  <comRMSD>  (44) 
0.447589

>  <N_constrained_atoms>  (44) 
20.0

>  <N_unconstrained_atoms>  (44) 
2.0

>  <LE>  (44) 
0.4081

>  <percent_hybrid>  (44) 
30.0

>  <max_hit_Tanimoto>  (44) 
0.123835

>  <largest_ring>  (44) 
6

>  <N_interactions_kept>  (44) 
1.0

>  <N_interactions_lost>  (44) 
1.0

>  <interaction_uniqueness_metric>  (44) 
0.036737

>  <N_HA>  (44) 
22

>  <N_rotatable_bonds>  (44) 
8

>  <N_interactions>  (44) 
3

>  <N_PAINS>  (44) 
0

>  <UFF_Gibbs>  (44) 
126.521315

>  <strain_per_HA>  (44) 
5.750943

>  <ad_hoc_penalty>  (44) 
-30.498654

>  <cluster>  (44) 
4372

>  <ranked>  (44) 
47.0

>  <merger_rank>  (44) 
2

>  <hydroph_interaction:LEU:127>  (44) 
1

>  <hbond:GLY:128>  (44) 
0

>  <hydroph_interaction:ALA:144>  (44) 
0

>  <hbond:GLY:164>  (44) 
1

>  <hbond:HIS:40>  (44) 
0

>  <pistack:HIS:40>  (44) 
1

>  <hydroph_interaction:LEU:125>  (44) 
0

>  <hydroph_interaction:PHE:170>  (44) 
0

>  <hydroph_interaction:HIS:40>  (44) 
0

>  <pication:HIS:40>  (44) 
0

>  <hbond:THR:142>  (44) 
0

>  <hbond:HIS:161>  (44) 
0

>  <hbond:GLY:166>  (44) 
0

>  <hbond:VAL:162>  (44) 
0

>  <hydroph_interaction:ASN:165>  (44) 
0

>  <hbond:ASN:126>  (44) 
0

>  <hbond:ARG:143>  (44) 
0

>  <hbond:GLU:71>  (44) 
0

>  <saltbridge:HIS:161>  (44) 
0

>  <hbond:ALA:144>  (44) 
0

>  <hbond:GLY:145>  (44) 
0

>  <hbond:GLN:146>  (44) 
0

>  <hbond:CYS:147>  (44) 
0

>  <halogenbond:ASN:126>  (44) 
0

>  <saltbridge:HIS:40>  (44) 
0

>  <hbond:LEU:127>  (44) 
0

>  <hbond:THR:130>  (44) 
0

>  <hydroph_interaction:GLU:71>  (44) 
0

>  <hydroph_interaction:THR:130>  (44) 
0

>  <saltbridge:ARG:143>  (44) 
0

>  <saltbridge:GLU:71>  (44) 
0

>  <hbond:GLY:129>  (44) 
0

>  <halogenbond:CYS:147>  (44) 
0

>  <hydroph_interaction:THR:39>  (44) 
0

>  <hbond:ASN:69>  (44) 
0

>  <hydroph_interaction:THR:132>  (44) 
0

>  <hbond:TYR:122>  (44) 
0

>  <hydroph_interaction:PHE:109>  (44) 
0

>  <hydroph_interaction:PHE:140>  (44) 
0

>  <hbond:PRO:141>  (44) 
0

$$$$
PV-002716758841-x1084-0A
     RDKit          3D

 38 39  0  0  0  0  0  0  0  0999 V2000
   -3.1740   -7.4430    2.6310 N   0  0  0  0  0  0  0  0  0  0  0  0
   -3.3700   -8.5950    1.7630 C   0  0  0  0  0  0  0  0  0  0  0  0
   -3.8660   -8.1620    0.5460 C   0  0  0  0  0  0  0  0  0  0  0  0
   -2.9260   -7.7950   -0.5730 C   0  0  0  0  0  0  0  0  0  0  0  0
   -3.5300   -7.3170   -1.8630 C   0  0  0  0  0  0  0  0  0  0  0  0
   -5.0040   -7.1840   -2.0780 C   0  0  0  0  0  0  0  0  0  0  0  0
   -5.5050   -6.7080   -3.3020 N   0  0  0  0  0  0  0  0  0  0  0  0
   -6.7870   -6.3760   -3.4980 C   0  0  0  0  0  0  0  0  0  0  0  0
   -7.7340   -6.9980   -3.0430 O   0  0  0  0  0  0  0  0  0  0  0  0
   -7.0000   -5.2210   -4.2490 N   0  0  0  0  0  0  0  0  0  0  0  0
   -8.3570   -4.6330   -4.2740 C   0  0  0  0  0  0  0  0  0  0  0  0
   -9.0940   -4.8630   -5.4650 C   0  0  0  0  0  0  0  0  0  0  0  0
   -8.4550   -4.6600   -6.6830 C   0  0  0  0  0  0  0  0  0  0  0  0
   -7.6110   -5.6490   -7.1300 C   0  0  0  0  0  0  0  0  0  0  0  0
   -6.8690   -5.4570   -8.4360 C   0  0  0  0  0  0  0  0  0  0  0  0
   -7.0020   -4.3780   -9.1530 N   0  0  0  0  0  0  0  0  0  0  0  0
   -7.8720   -3.4730   -8.6330 C   0  0  0  0  0  0  0  0  0  0  0  0
   -8.6050   -3.5230   -7.4720 C   0  0  0  0  0  0  0  0  0  0  0  0
   -5.8200   -7.5500   -1.0070 C   0  0  0  0  0  0  0  0  0  0  0  0
   -5.2480   -8.0460    0.3190 C   0  0  0  0  0  0  0  0  0  0  0  0
   -3.4850   -6.5270    2.2950 H   0  0  0  0  0  0  0  0  0  0  0  0
   -2.1740   -7.3480    2.8140 H   0  0  0  0  0  0  0  0  0  0  0  0
   -4.0640   -9.2970    2.2340 H   0  0  0  0  0  0  0  0  0  0  0  0
   -2.4160   -9.1130    1.6100 H   0  0  0  0  0  0  0  0  0  0  0  0
   -1.8420   -7.8800   -0.4260 H   0  0  0  0  0  0  0  0  0  0  0  0
   -2.8600   -7.0560   -2.6730 H   0  0  0  0  0  0  0  0  0  0  0  0
   -4.8190   -6.5200   -4.0400 H   0  0  0  0  0  0  0  0  0  0  0  0
   -6.2530   -4.5510   -4.1500 H   0  0  0  0  0  0  0  0  0  0  0  0
   -8.2250   -3.5480   -4.1810 H   0  0  0  0  0  0  0  0  0  0  0  0
   -8.8050   -4.9490   -3.3350 H   0  0  0  0  0  0  0  0  0  0  0  0
   -9.4830   -5.8890   -5.4480 H   0  0  0  0  0  0  0  0  0  0  0  0
   -9.9930   -4.2340   -5.4630 H   0  0  0  0  0  0  0  0  0  0  0  0
   -7.4780   -6.5550   -6.5410 H   0  0  0  0  0  0  0  0  0  0  0  0
   -6.1810   -6.2210   -8.8310 H   0  0  0  0  0  0  0  0  0  0  0  0
   -8.0220   -2.5610   -9.2050 H   0  0  0  0  0  0  0  0  0  0  0  0
   -9.2650   -2.6960   -7.1880 H   0  0  0  0  0  0  0  0  0  0  0  0
   -6.9010   -7.4870   -1.0890 H   0  0  0  0  0  0  0  0  0  0  0  0
   -5.9480   -8.3090    1.1080 H   0  0  0  0  0  0  0  0  0  0  0  0
  1  2  1  0
  2  3  1  0
  3  4  2  0
  4  5  1  0
  5  6  2  0
  6  7  1  0
  7  8  1  0
  8  9  2  0
  8 10  1  0
 10 11  1  0
 11 12  1  0
 12 13  1  0
 13 14  2  0
 14 15  1  0
 15 16  2  0
 16 17  1  0
 17 18  2  0
  6 19  1  0
 19 20  2  0
 20  3  1  0
 18 13  1  0
  1 21  1  0
  1 22  1  0
  2 23  1  0
  2 24  1  0
  4 25  1  0
  5 26  1  0
  7 27  1  0
 10 28  1  0
 11 29  1  0
 11 30  1  0
 12 31  1  0
 12 32  1  0
 14 33  1  0
 15 34  1  0
 17 35  1  0
 18 36  1  0
 19 37  1  0
 20 38  1  0
A    1
 N1 
A    2
 C1 
A    3
 C2 
A    4
 C3 
A    5
 C4 
A    6
 C5 
A    7
 N2 
A    8
 C6 
A    9
 O1 
A   10
 N3 
A   11
 C7 
A   12
 C8 
A   13
 C9 
A   14
 C10
A   15
 C11
A   16
 N4 
A   17
 C12
A   18
 C13
A   19
 C14
A   20
 C15
A   21
 H1 
A   22
 H2 
A   23
 H3 
A   24
 H4 
A   25
 H5 
A   26
 H6 
A   27
 H7 
A   28
 H8 
A   29
 H9 
A   30
 H10
A   31
 H11
A   32
 H12
A   33
 H13
A   34
 H14
A   35
 H15
A   36
 H16
A   37
 H17
A   38
 H18
M  END
>  <ref_pdb>  (45) 
x0147_0A

>  <ref_mols>  (45) 
x1084_0A,x0980_0BS5

>  <original SMILES>  (45) 
[H]c1nc([H])c([H])c(C([H])([H])C([H])([H])N([H])C(=O)N([H])c2c([H])c([H])c(C([H])([H])N([H])[H])c([H])c2[H])c1[H]

>  <index>  (45) 
1594

>  <∆∆G>  (45) 
-7.431666

>  <comRMSD>  (45) 
0.653807

>  <N_constrained_atoms>  (45) 
18.0

>  <N_unconstrained_atoms>  (45) 
2.0

>  <LE>  (45) 
0.371583

>  <percent_hybrid>  (45) 
34.0

>  <max_hit_Tanimoto>  (45) 
0.280093

>  <largest_ring>  (45) 
6

>  <N_interactions_kept>  (45) 
0.0

>  <N_interactions_lost>  (45) 
3.0

>  <interaction_uniqueness_metric>  (45) 
0.104941

>  <N_HA>  (45) 
20

>  <N_rotatable_bonds>  (45) 
6

>  <N_interactions>  (45) 
7

>  <N_PAINS>  (45) 
0

>  <UFF_Gibbs>  (45) 
97.79399

>  <strain_per_HA>  (45) 
4.889675

>  <ad_hoc_penalty>  (45) 
-30.147567

>  <cluster>  (45) 
1589

>  <ranked>  (45) 
48.0

>  <merger_rank>  (45) 
1

>  <hydroph_interaction:LEU:127>  (45) 
1

>  <hbond:GLY:128>  (45) 
0

>  <hydroph_interaction:ALA:144>  (45) 
0

>  <hbond:GLY:164>  (45) 
2

>  <hbond:HIS:40>  (45) 
0

>  <pistack:HIS:40>  (45) 
0

>  <hydroph_interaction:LEU:125>  (45) 
0

>  <hydroph_interaction:PHE:170>  (45) 
0

>  <hydroph_interaction:HIS:40>  (45) 
1

>  <pication:HIS:40>  (45) 
0

>  <hbond:THR:142>  (45) 
0

>  <hbond:HIS:161>  (45) 
0

>  <hbond:GLY:166>  (45) 
0

>  <hbond:VAL:162>  (45) 
1

>  <hydroph_interaction:ASN:165>  (45) 
0

>  <hbond:ASN:126>  (45) 
0

>  <hbond:ARG:143>  (45) 
0

>  <hbond:GLU:71>  (45) 
0

>  <saltbridge:HIS:161>  (45) 
0

>  <hbond:ALA:144>  (45) 
0

>  <hbond:GLY:145>  (45) 
0

>  <hbond:GLN:146>  (45) 
0

>  <hbond:CYS:147>  (45) 
0

>  <halogenbond:ASN:126>  (45) 
0

>  <saltbridge:HIS:40>  (45) 
0

>  <hbond:LEU:127>  (45) 
0

>  <hbond:THR:130>  (45) 
2

>  <hydroph_interaction:GLU:71>  (45) 
0

>  <hydroph_interaction:THR:130>  (45) 
0

>  <saltbridge:ARG:143>  (45) 
0

>  <saltbridge:GLU:71>  (45) 
0

>  <hbond:GLY:129>  (45) 
0

>  <halogenbond:CYS:147>  (45) 
0

>  <hydroph_interaction:THR:39>  (45) 
0

>  <hbond:ASN:69>  (45) 
0

>  <hydroph_interaction:THR:132>  (45) 
0

>  <hbond:TYR:122>  (45) 
0

>  <hydroph_interaction:PHE:109>  (45) 
0

>  <hydroph_interaction:PHE:140>  (45) 
0

>  <hbond:PRO:141>  (45) 
0

$$$$
Z4906404319-x0771-1A
     RDKit          3D

 43 46  0  0  0  0  0  0  0  0999 V2000
   -8.4060   -3.2160   -7.8420 O   0  0  0  0  0  0  0  0  0  0  0  0
   -7.6950   -4.1630   -8.1360 C   0  0  0  0  0  0  0  0  0  0  0  0
   -6.9210   -4.2600   -9.2470 O   0  0  0  0  0  0  0  0  0  0  0  0
   -7.5910   -5.3690   -7.3010 C   0  0  0  0  0  0  0  0  0  0  0  0
   -7.9370   -5.2900   -5.8560 C   0  0  0  0  0  0  0  0  0  0  0  0
   -7.8780   -6.3860   -5.0170 C   0  0  0  0  0  0  0  0  0  0  0  0
   -7.4800   -7.5880   -5.6110 C   0  0  0  0  0  0  0  0  0  0  0  0
   -7.1560   -7.6670   -6.9500 C   0  0  0  0  0  0  0  0  0  0  0  0
   -7.1880   -6.5850   -7.8200 C   0  0  0  0  0  0  0  0  0  0  0  0
   -6.8070   -9.0790   -7.2300 C   0  0  0  0  0  0  0  0  0  0  0  0
   -6.4170   -9.4450   -5.9400 C   0  0  0  0  0  0  0  0  0  0  0  0
   -7.3140   -8.9740   -5.0410 C   0  0  0  0  0  0  0  0  0  0  0  0
   -6.8860   -8.9740   -3.6590 N   0  0  0  0  0  0  0  0  0  0  0  0
   -5.8070   -8.0460   -3.3550 C   0  0  0  0  0  0  0  0  0  0  0  0
   -5.2830   -8.2350   -1.9660 C   0  0  0  0  0  0  0  0  0  0  0  0
   -5.9640   -9.0880   -1.0720 C   0  0  0  0  0  0  0  0  0  0  0  0
   -5.4940   -9.2870    0.2270 C   0  0  0  0  0  0  0  0  0  0  0  0
   -4.3540   -8.6340    0.6210 C   0  0  0  0  0  0  0  0  0  0  0  0
   -3.9380   -8.8640    1.8960 O   0  0  0  0  0  0  0  0  0  0  0  0
   -3.2220   -7.7330    2.3700 C   0  0  0  0  0  0  0  0  0  0  0  0
   -2.1100   -7.3750    1.4310 C   0  0  0  0  0  0  0  0  0  0  0  0
   -2.5450   -7.1240    0.0940 O   0  0  0  0  0  0  0  0  0  0  0  0
   -3.6740   -7.7890   -0.2500 C   0  0  0  0  0  0  0  0  0  0  0  0
   -4.1310   -7.5840   -1.5430 C   0  0  0  0  0  0  0  0  0  0  0  0
   -7.5330   -4.6530   -9.9140 H   0  0  0  0  0  0  0  0  0  0  0  0
   -8.2520   -4.3340   -5.4390 H   0  0  0  0  0  0  0  0  0  0  0  0
   -8.1160   -6.3890   -3.9630 H   0  0  0  0  0  0  0  0  0  0  0  0
   -6.9200   -6.7010   -8.8640 H   0  0  0  0  0  0  0  0  0  0  0  0
   -7.6850   -9.6700   -7.4980 H   0  0  0  0  0  0  0  0  0  0  0  0
   -6.1380   -9.0850   -8.0670 H   0  0  0  0  0  0  0  0  0  0  0  0
   -5.3720   -9.2310   -5.7100 H   0  0  0  0  0  0  0  0  0  0  0  0
   -6.4430  -10.5380   -5.9050 H   0  0  0  0  0  0  0  0  0  0  0  0
   -8.2780   -9.4850   -5.1630 H   0  0  0  0  0  0  0  0  0  0  0  0
   -6.6310   -9.9160   -3.3740 H   0  0  0  0  0  0  0  0  0  0  0  0
   -6.1830   -7.0200   -3.4420 H   0  0  0  0  0  0  0  0  0  0  0  0
   -5.0000   -8.1260   -4.0970 H   0  0  0  0  0  0  0  0  0  0  0  0
   -6.8670   -9.6050   -1.3880 H   0  0  0  0  0  0  0  0  0  0  0  0
   -6.0200   -9.9460    0.9120 H   0  0  0  0  0  0  0  0  0  0  0  0
   -2.8110   -7.9910    3.3500 H   0  0  0  0  0  0  0  0  0  0  0  0
   -3.9180   -6.8950    2.5000 H   0  0  0  0  0  0  0  0  0  0  0  0
   -1.3930   -8.2010    1.3930 H   0  0  0  0  0  0  0  0  0  0  0  0
   -1.5890   -6.4800    1.7850 H   0  0  0  0  0  0  0  0  0  0  0  0
   -3.5900   -6.9240   -2.2110 H   0  0  0  0  0  0  0  0  0  0  0  0
  1  2  2  0
  2  3  1  0
  2  4  1  0
  4  5  2  0
  5  6  1  0
  6  7  2  0
  7  8  1  0
  8  9  2  0
  8 10  1  0
 10 11  1  0
 11 12  1  0
 12 13  1  0
 13 14  1  0
 14 15  1  0
 15 16  2  0
 16 17  1  0
 17 18  2  0
 18 19  1  0
 19 20  1  0
 20 21  1  0
 21 22  1  0
 22 23  1  0
 23 24  2  0
  9  4  1  0
 12  7  1  0
 24 15  1  0
 23 18  1  0
  3 25  1  0
  5 26  1  0
  6 27  1  0
  9 28  1  0
 10 29  1  0
 10 30  1  0
 11 31  1  0
 11 32  1  0
 12 33  1  0
 13 34  1  0
 14 35  1  0
 14 36  1  0
 16 37  1  0
 17 38  1  0
 20 39  1  0
 20 40  1  0
 21 41  1  0
 21 42  1  0
 24 43  1  0
A    1
 O1 
A    2
 C1 
A    3
 O2 
A    4
 C2 
A    5
 C3 
A    6
 C4 
A    7
 C5 
A    8
 C6 
A    9
 C7 
A   10
 C8 
A   11
 C9 
A   12
 C10
A   13
 N1 
A   14
 C11
A   15
 C12
A   16
 C13
A   17
 C14
A   18
 C15
A   19
 O3 
A   20
 C16
A   21
 C17
A   22
 O4 
A   23
 C18
A   24
 C19
A   25
 H1 
A   26
 H2 
A   27
 H3 
A   28
 H4 
A   29
 H5 
A   30
 H6 
A   31
 H7 
A   32
 H8 
A   33
 H9 
A   34
 H10
A   35
 H11
A   36
 H12
A   37
 H13
A   38
 H14
A   39
 H15
A   40
 H16
A   41
 H17
A   42
 H18
A   43
 H19
M  END
>  <ref_pdb>  (46) 
x0147_0A

>  <ref_mols>  (46) 
x0771_1A,x1140_0AS4

>  <original SMILES>  (46) 
[H]OC(=O)c1c([H])c([H])c2c(c1[H])C([H])([H])C([H])([H])C2([H])N([H])C([H])([H])c1c([H])c([H])c2c(c1[H])OC([H])([H])C([H])([H])O2

>  <index>  (46) 
13425

>  <∆∆G>  (46) 
-5.73693

>  <comRMSD>  (46) 
0.423064

>  <N_constrained_atoms>  (46) 
21.0

>  <N_unconstrained_atoms>  (46) 
3.0

>  <LE>  (46) 
0.239039

>  <percent_hybrid>  (46) 
43.0

>  <max_hit_Tanimoto>  (46) 
0.256044

>  <largest_ring>  (46) 
6

>  <N_interactions_kept>  (46) 
1.5

>  <N_interactions_lost>  (46) 
2.5

>  <interaction_uniqueness_metric>  (46) 
0.139024

>  <N_HA>  (46) 
24

>  <N_rotatable_bonds>  (46) 
4

>  <N_interactions>  (46) 
6

>  <N_PAINS>  (46) 
0

>  <UFF_Gibbs>  (46) 
105.349098

>  <strain_per_HA>  (46) 
4.389527

>  <ad_hoc_penalty>  (46) 
-30.081641

>  <cluster>  (46) 
350

>  <ranked>  (46) 
49.0

>  <merger_rank>  (46) 
1

>  <hydroph_interaction:LEU:127>  (46) 
1

>  <hbond:GLY:128>  (46) 
0

>  <hydroph_interaction:ALA:144>  (46) 
0

>  <hbond:GLY:164>  (46) 
1

>  <hbond:HIS:40>  (46) 
1

>  <pistack:HIS:40>  (46) 
1

>  <hydroph_interaction:LEU:125>  (46) 
0

>  <hydroph_interaction:PHE:170>  (46) 
0

>  <hydroph_interaction:HIS:40>  (46) 
1

>  <pication:HIS:40>  (46) 
0

>  <hbond:THR:142>  (46) 
0

>  <hbond:HIS:161>  (46) 
0

>  <hbond:GLY:166>  (46) 
0

>  <hbond:VAL:162>  (46) 
0

>  <hydroph_interaction:ASN:165>  (46) 
0

>  <hbond:ASN:126>  (46) 
0

>  <hbond:ARG:143>  (46) 
0

>  <hbond:GLU:71>  (46) 
0

>  <saltbridge:HIS:161>  (46) 
1

>  <hbond:ALA:144>  (46) 
0

>  <hbond:GLY:145>  (46) 
0

>  <hbond:GLN:146>  (46) 
0

>  <hbond:CYS:147>  (46) 
0

>  <halogenbond:ASN:126>  (46) 
0

>  <saltbridge:HIS:40>  (46) 
0

>  <hbond:LEU:127>  (46) 
0

>  <hbond:THR:130>  (46) 
0

>  <hydroph_interaction:GLU:71>  (46) 
0

>  <hydroph_interaction:THR:130>  (46) 
0

>  <saltbridge:ARG:143>  (46) 
0

>  <saltbridge:GLU:71>  (46) 
0

>  <hbond:GLY:129>  (46) 
0

>  <halogenbond:CYS:147>  (46) 
0

>  <hydroph_interaction:THR:39>  (46) 
0

>  <hbond:ASN:69>  (46) 
0

>  <hydroph_interaction:THR:132>  (46) 
0

>  <hbond:TYR:122>  (46) 
0

>  <hydroph_interaction:PHE:109>  (46) 
0

>  <hydroph_interaction:PHE:140>  (46) 
0

>  <hbond:PRO:141>  (46) 
0

$$$$
PV-002509291870-x1919-0AS2
     RDKit          3D

 41 43  0  0  0  0  0  0  0  0999 V2000
   -5.8330   -4.4310   -3.4330 O   0  0  0  0  0  0  0  0  0  0  0  0
   -6.6610   -5.1790   -2.9500 C   0  0  0  0  0  0  0  0  0  0  0  0
   -7.7180   -4.6710   -2.2700 N   0  0  0  0  0  0  0  0  0  0  0  0
   -8.6880   -4.0760   -3.1610 C   0  0  0  0  0  0  0  0  0  0  0  0
   -9.0610   -5.0090   -4.3390 C   0  0  0  0  0  0  0  0  0  0  0  0
   -8.5680   -4.9280   -5.6710 C   0  0  0  0  0  0  0  0  0  0  0  0
   -7.7860   -5.9780   -6.1840 C   0  0  0  0  0  0  0  0  0  0  0  0
   -7.2490   -5.9550   -7.4680 C   0  0  0  0  0  0  0  0  0  0  0  0
   -7.5290   -4.7320   -8.3400 C   0  0  0  0  0  0  0  0  0  0  0  0
   -7.0320   -4.5970   -9.6000 O   0  0  0  0  0  0  0  0  0  0  0  0
   -8.3260   -3.7410   -7.7810 C   0  0  0  0  0  0  0  0  0  0  0  0
   -8.8370   -3.8220   -6.4910 C   0  0  0  0  0  0  0  0  0  0  0  0
   -6.7390   -6.5530   -3.0210 N   0  0  0  0  0  0  0  0  0  0  0  0
   -5.6600   -7.4970   -3.2450 C   0  0  0  0  0  0  0  0  0  0  0  0
   -5.2120   -7.8920   -1.9990 C   0  0  0  0  0  0  0  0  0  0  0  0
   -6.0090   -8.9490   -1.2180 C   0  0  0  0  0  0  0  0  0  0  0  0
   -5.4500   -9.3120    0.1340 C   0  0  0  0  0  0  0  0  0  0  0  0
   -4.2880   -8.6850    0.5760 C   0  0  0  0  0  0  0  0  0  0  0  0
   -3.7120   -8.8850    1.6760 O   0  0  0  0  0  0  0  0  0  0  0  0
   -2.6140   -8.0650    1.7090 C   0  0  0  0  0  0  0  0  0  0  0  0
   -2.5710   -7.3540    0.5450 C   0  0  0  0  0  0  0  0  0  0  0  0
   -3.6350   -7.7370   -0.2020 C   0  0  0  0  0  0  0  0  0  0  0  0
   -4.0460   -7.3220   -1.4640 C   0  0  0  0  0  0  0  0  0  0  0  0
   -7.4470   -4.0960   -1.4890 H   0  0  0  0  0  0  0  0  0  0  0  0
   -8.2980   -3.1440   -3.5780 H   0  0  0  0  0  0  0  0  0  0  0  0
   -9.5770   -3.8130   -2.5760 H   0  0  0  0  0  0  0  0  0  0  0  0
   -8.8280   -6.0170   -3.9620 H   0  0  0  0  0  0  0  0  0  0  0  0
  -10.1520   -4.9440   -4.3980 H   0  0  0  0  0  0  0  0  0  0  0  0
   -7.5640   -6.8540   -5.5840 H   0  0  0  0  0  0  0  0  0  0  0  0
   -6.6410   -6.7770   -7.8400 H   0  0  0  0  0  0  0  0  0  0  0  0
   -7.4530   -5.2700  -10.1800 H   0  0  0  0  0  0  0  0  0  0  0  0
   -8.5080   -2.8910   -8.4500 H   0  0  0  0  0  0  0  0  0  0  0  0
   -9.4530   -2.9960   -6.1170 H   0  0  0  0  0  0  0  0  0  0  0  0
   -7.6150   -6.9440   -2.6400 H   0  0  0  0  0  0  0  0  0  0  0  0
   -6.0680   -8.3680   -3.7660 H   0  0  0  0  0  0  0  0  0  0  0  0
   -4.9700   -7.0350   -3.9520 H   0  0  0  0  0  0  0  0  0  0  0  0
   -6.9160   -9.4080   -1.6080 H   0  0  0  0  0  0  0  0  0  0  0  0
   -5.9370  -10.0510    0.7680 H   0  0  0  0  0  0  0  0  0  0  0  0
   -1.9110   -8.0110    2.5390 H   0  0  0  0  0  0  0  0  0  0  0  0
   -1.7890   -6.6400    0.3580 H   0  0  0  0  0  0  0  0  0  0  0  0
   -3.4910   -6.5800   -2.0210 H   0  0  0  0  0  0  0  0  0  0  0  0
  1  2  2  0
  2  3  1  0
  3  4  1  0
  4  5  1  0
  5  6  1  0
  6  7  2  0
  7  8  1  0
  8  9  2  0
  9 10  1  0
  9 11  1  0
 11 12  2  0
  2 13  1  0
 13 14  1  0
 14 15  1  0
 15 16  2  0
 16 17  1  0
 17 18  2  0
 18 19  1  0
 19 20  1  0
 20 21  2  0
 21 22  1  0
 22 23  2  0
 12  6  1  0
 23 15  1  0
 22 18  1  0
  3 24  1  0
  4 25  1  0
  4 26  1  0
  5 27  1  0
  5 28  1  0
  7 29  1  0
  8 30  1  0
 10 31  1  0
 11 32  1  0
 12 33  1  0
 13 34  1  0
 14 35  1  0
 14 36  1  0
 16 37  1  0
 17 38  1  0
 20 39  1  0
 21 40  1  0
 23 41  1  0
A    1
 O1 
A    2
 C1 
A    3
 N1 
A    4
 C2 
A    5
 C3 
A    6
 C4 
A    7
 C5 
A    8
 C6 
A    9
 C7 
A   10
 O2 
A   11
 C8 
A   12
 C9 
A   13
 N2 
A   14
 C10
A   15
 C11
A   16
 C12
A   17
 C13
A   18
 C14
A   19
 O3 
A   20
 C15
A   21
 C16
A   22
 C17
A   23
 C18
A   24
 H1 
A   25
 H2 
A   26
 H3 
A   27
 H4 
A   28
 H5 
A   29
 H6 
A   30
 H7 
A   31
 H8 
A   32
 H9 
A   33
 H10
A   34
 H11
A   35
 H12
A   36
 H13
A   37
 H14
A   38
 H15
A   39
 H16
A   40
 H17
A   41
 H18
M  END
>  <ref_pdb>  (47) 
x0147_0A

>  <ref_mols>  (47) 
x1919_0AS2,x1498_0A

>  <original SMILES>  (47) 
[H]Oc1c([H])c([H])c(C([H])([H])C([H])([H])N([H])C(=O)N([H])C([H])([H])c2c([H])c([H])c3oc([H])c([H])c3c2[H])c([H])c1[H]

>  <index>  (47) 
3700

>  <∆∆G>  (47) 
-7.866887

>  <comRMSD>  (47) 
0.891512

>  <N_constrained_atoms>  (47) 
23.0

>  <N_unconstrained_atoms>  (47) 
0.0

>  <LE>  (47) 
0.342039

>  <percent_hybrid>  (47) 
31.0

>  <max_hit_Tanimoto>  (47) 
0.229885

>  <largest_ring>  (47) 
6

>  <N_interactions_kept>  (47) 
2.0

>  <N_interactions_lost>  (47) 
2.0

>  <interaction_uniqueness_metric>  (47) 
0.081682

>  <N_HA>  (47) 
23

>  <N_rotatable_bonds>  (47) 
6

>  <N_interactions>  (47) 
4

>  <N_PAINS>  (47) 
0

>  <UFF_Gibbs>  (47) 
107.275832

>  <strain_per_HA>  (47) 
4.664146

>  <ad_hoc_penalty>  (47) 
-30.03382

>  <cluster>  (47) 
1211

>  <ranked>  (47) 
50.0

>  <merger_rank>  (47) 
1

>  <hydroph_interaction:LEU:127>  (47) 
0

>  <hbond:GLY:128>  (47) 
0

>  <hydroph_interaction:ALA:144>  (47) 
0

>  <hbond:GLY:164>  (47) 
1

>  <hbond:HIS:40>  (47) 
0

>  <pistack:HIS:40>  (47) 
1

>  <hydroph_interaction:LEU:125>  (47) 
0

>  <hydroph_interaction:PHE:170>  (47) 
0

>  <hydroph_interaction:HIS:40>  (47) 
1

>  <pication:HIS:40>  (47) 
0

>  <hbond:THR:142>  (47) 
1

>  <hbond:HIS:161>  (47) 
0

>  <hbond:GLY:166>  (47) 
0

>  <hbond:VAL:162>  (47) 
0

>  <hydroph_interaction:ASN:165>  (47) 
0

>  <hbond:ASN:126>  (47) 
0

>  <hbond:ARG:143>  (47) 
0

>  <hbond:GLU:71>  (47) 
0

>  <saltbridge:HIS:161>  (47) 
0

>  <hbond:ALA:144>  (47) 
0

>  <hbond:GLY:145>  (47) 
0

>  <hbond:GLN:146>  (47) 
0

>  <hbond:CYS:147>  (47) 
0

>  <halogenbond:ASN:126>  (47) 
0

>  <saltbridge:HIS:40>  (47) 
0

>  <hbond:LEU:127>  (47) 
0

>  <hbond:THR:130>  (47) 
0

>  <hydroph_interaction:GLU:71>  (47) 
0

>  <hydroph_interaction:THR:130>  (47) 
0

>  <saltbridge:ARG:143>  (47) 
0

>  <saltbridge:GLU:71>  (47) 
0

>  <hbond:GLY:129>  (47) 
0

>  <halogenbond:CYS:147>  (47) 
0

>  <hydroph_interaction:THR:39>  (47) 
0

>  <hbond:ASN:69>  (47) 
0

>  <hydroph_interaction:THR:132>  (47) 
0

>  <hbond:TYR:122>  (47) 
0

>  <hydroph_interaction:PHE:109>  (47) 
0

>  <hydroph_interaction:PHE:140>  (47) 
0

>  <hbond:PRO:141>  (47) 
0

$$$$
Z3518693530-x1919-0AS12
     RDKit          3D

 47 48  0  0  0  0  0  0  0  0999 V2000
   -5.3840    0.3780   -1.7550 C   0  0  0  0  0  0  0  0  0  0  0  0
   -6.2490   -0.2400   -1.2460 C   0  0  0  0  0  0  0  0  0  0  0  0
   -7.3060   -1.0450   -0.6740 C   0  0  0  0  0  0  0  0  0  0  0  0
   -6.7980   -2.3660   -0.6290 O   0  0  0  0  0  0  0  0  0  0  0  0
   -7.6400   -3.3080   -1.3070 C   0  0  0  0  0  0  0  0  0  0  0  0
   -6.9120   -4.6090   -1.7320 C   0  0  0  0  0  0  0  0  0  0  0  0
   -7.5700   -5.3200   -2.8640 N   0  0  0  0  0  0  0  0  0  0  0  0
   -7.2620   -6.7570   -3.0500 C   0  0  0  0  0  0  0  0  0  0  0  0
   -5.7900   -7.1870   -3.2100 C   0  0  0  0  0  0  0  0  0  0  0  0
   -5.2420   -7.7050   -1.9060 C   0  0  0  0  0  0  0  0  0  0  0  0
   -3.9430   -7.3990   -1.5370 C   0  0  0  0  0  0  0  0  0  0  0  0
   -3.4070   -7.8500   -0.3370 C   0  0  0  0  0  0  0  0  0  0  0  0
   -4.1850   -8.6300    0.5140 C   0  0  0  0  0  0  0  0  0  0  0  0
   -5.4910   -8.9520    0.1570 C   0  0  0  0  0  0  0  0  0  0  0  0
   -6.0220   -8.4930   -1.0480 C   0  0  0  0  0  0  0  0  0  0  0  0
   -7.5160   -4.5250   -4.1030 C   0  0  0  0  0  0  0  0  0  0  0  0
   -8.7610   -4.6510   -5.0430 C   0  0  0  0  0  0  0  0  0  0  0  0
   -8.3090   -4.5110   -6.4790 C   0  0  0  0  0  0  0  0  0  0  0  0
   -8.5810   -3.3800   -7.2420 C   0  0  0  0  0  0  0  0  0  0  0  0
   -8.0860   -3.3360   -8.5170 C   0  0  0  0  0  0  0  0  0  0  0  0
   -7.3600   -4.3090   -9.0880 N   0  0  0  0  0  0  0  0  0  0  0  0
   -7.1270   -5.4010   -8.3450 C   0  0  0  0  0  0  0  0  0  0  0  0
   -7.5760   -5.5430   -7.0530 C   0  0  0  0  0  0  0  0  0  0  0  0
   -4.6180    0.9140   -2.2330 H   0  0  0  0  0  0  0  0  0  0  0  0
   -8.2010   -0.9930   -1.3020 H   0  0  0  0  0  0  0  0  0  0  0  0
   -7.5470   -0.6950    0.3360 H   0  0  0  0  0  0  0  0  0  0  0  0
   -8.4410   -3.5630   -0.6060 H   0  0  0  0  0  0  0  0  0  0  0  0
   -8.1100   -2.8090   -2.1630 H   0  0  0  0  0  0  0  0  0  0  0  0
   -5.8990   -4.3200   -2.0320 H   0  0  0  0  0  0  0  0  0  0  0  0
   -6.7810   -5.2720   -0.8690 H   0  0  0  0  0  0  0  0  0  0  0  0
   -7.7100   -7.3190   -2.2220 H   0  0  0  0  0  0  0  0  0  0  0  0
   -7.8290   -7.1220   -3.9160 H   0  0  0  0  0  0  0  0  0  0  0  0
   -5.1690   -6.3430   -3.5380 H   0  0  0  0  0  0  0  0  0  0  0  0
   -5.6800   -7.9640   -3.9790 H   0  0  0  0  0  0  0  0  0  0  0  0
   -3.3350   -6.8000   -2.1940 H   0  0  0  0  0  0  0  0  0  0  0  0
   -2.3850   -7.5970   -0.0640 H   0  0  0  0  0  0  0  0  0  0  0  0
   -3.7700   -8.9860    1.4540 H   0  0  0  0  0  0  0  0  0  0  0  0
   -6.0990   -9.5630    0.8210 H   0  0  0  0  0  0  0  0  0  0  0  0
   -7.0440   -8.7530   -1.3110 H   0  0  0  0  0  0  0  0  0  0  0  0
   -6.6440   -4.8570   -4.6760 H   0  0  0  0  0  0  0  0  0  0  0  0
   -7.3330   -3.4730   -3.8650 H   0  0  0  0  0  0  0  0  0  0  0  0
   -9.5040   -3.8740   -4.8300 H   0  0  0  0  0  0  0  0  0  0  0  0
   -9.2590   -5.6170   -4.9000 H   0  0  0  0  0  0  0  0  0  0  0  0
   -9.1530   -2.5460   -6.8480 H   0  0  0  0  0  0  0  0  0  0  0  0
   -8.2680   -2.4690   -9.1290 H   0  0  0  0  0  0  0  0  0  0  0  0
   -6.5460   -6.1800   -8.8290 H   0  0  0  0  0  0  0  0  0  0  0  0
   -7.3470   -6.4460   -6.4990 H   0  0  0  0  0  0  0  0  0  0  0  0
  1  2  3  0
  2  3  1  0
  3  4  1  0
  4  5  1  0
  5  6  1  0
  6  7  1  0
  7  8  1  0
  8  9  1  0
  9 10  1  0
 10 11  2  0
 11 12  1  0
 12 13  2  0
 13 14  1  0
 14 15  2  0
  7 16  1  0
 16 17  1  0
 17 18  1  0
 18 19  2  0
 19 20  1  0
 20 21  2  0
 21 22  1  0
 22 23  2  0
 15 10  1  0
 23 18  1  0
  1 24  1  0
  3 25  1  0
  3 26  1  0
  5 27  1  0
  5 28  1  0
  6 29  1  0
  6 30  1  0
  8 31  1  0
  8 32  1  0
  9 33  1  0
  9 34  1  0
 11 35  1  0
 12 36  1  0
 13 37  1  0
 14 38  1  0
 15 39  1  0
 16 40  1  0
 16 41  1  0
 17 42  1  0
 17 43  1  0
 19 44  1  0
 20 45  1  0
 22 46  1  0
 23 47  1  0
A    1
 C1 
A    2
 C2 
A    3
 C3 
A    4
 O1 
A    5
 C4 
A    6
 C5 
A    7
 N1 
A    8
 C6 
A    9
 C7 
A   10
 C8 
A   11
 C9 
A   12
 C10
A   13
 C11
A   14
 C12
A   15
 C13
A   16
 C14
A   17
 C15
A   18
 C16
A   19
 C17
A   20
 C18
A   21
 N2 
A   22
 C19
A   23
 C20
A   24
 H1 
A   25
 H2 
A   26
 H3 
A   27
 H4 
A   28
 H5 
A   29
 H6 
A   30
 H7 
A   31
 H8 
A   32
 H9 
A   33
 H10
A   34
 H11
A   35
 H12
A   36
 H13
A   37
 H14
A   38
 H15
A   39
 H16
A   40
 H17
A   41
 H18
A   42
 H19
A   43
 H20
A   44
 H21
A   45
 H22
A   46
 H23
A   47
 H24
M  END
>  <ref_pdb>  (48) 
x0147_0A

>  <ref_mols>  (48) 
x1919_0AS12,x0980_0BS5

>  <original SMILES>  (48) 
[H]C#CC([H])([H])OC([H])([H])C([H])([H])N(C([H])([H])C([H])([H])c1c([H])c([H])nc([H])c1[H])C([H])([H])C([H])([H])c1c([H])c([H])c([H])c([H])c1[H]

>  <index>  (48) 
31

>  <∆∆G>  (48) 
-7.740538

>  <comRMSD>  (48) 
0.720131

>  <N_constrained_atoms>  (48) 
22.0

>  <N_unconstrained_atoms>  (48) 
1.0

>  <LE>  (48) 
0.336545

>  <percent_hybrid>  (48) 
28.0

>  <max_hit_Tanimoto>  (48) 
0.167059

>  <largest_ring>  (48) 
6

>  <N_interactions_kept>  (48) 
1.0

>  <N_interactions_lost>  (48) 
2.5

>  <interaction_uniqueness_metric>  (48) 
0.11259

>  <N_HA>  (48) 
23

>  <N_rotatable_bonds>  (48) 
10

>  <N_interactions>  (48) 
7

>  <N_PAINS>  (48) 
0

>  <UFF_Gibbs>  (48) 
44.042334

>  <strain_per_HA>  (48) 
1.914876

>  <ad_hoc_penalty>  (48) 
-29.956668

>  <cluster>  (48) 
7335

>  <ranked>  (48) 
51.0

>  <merger_rank>  (48) 
2

>  <hydroph_interaction:LEU:127>  (48) 
2

>  <hbond:GLY:128>  (48) 
1

>  <hydroph_interaction:ALA:144>  (48) 
0

>  <hbond:GLY:164>  (48) 
0

>  <hbond:HIS:40>  (48) 
0

>  <pistack:HIS:40>  (48) 
1

>  <hydroph_interaction:LEU:125>  (48) 
1

>  <hydroph_interaction:PHE:170>  (48) 
1

>  <hydroph_interaction:HIS:40>  (48) 
1

>  <pication:HIS:40>  (48) 
0

>  <hbond:THR:142>  (48) 
0

>  <hbond:HIS:161>  (48) 
0

>  <hbond:GLY:166>  (48) 
0

>  <hbond:VAL:162>  (48) 
0

>  <hydroph_interaction:ASN:165>  (48) 
0

>  <hbond:ASN:126>  (48) 
0

>  <hbond:ARG:143>  (48) 
0

>  <hbond:GLU:71>  (48) 
0

>  <saltbridge:HIS:161>  (48) 
0

>  <hbond:ALA:144>  (48) 
0

>  <hbond:GLY:145>  (48) 
0

>  <hbond:GLN:146>  (48) 
0

>  <hbond:CYS:147>  (48) 
0

>  <halogenbond:ASN:126>  (48) 
0

>  <saltbridge:HIS:40>  (48) 
0

>  <hbond:LEU:127>  (48) 
0

>  <hbond:THR:130>  (48) 
0

>  <hydroph_interaction:GLU:71>  (48) 
0

>  <hydroph_interaction:THR:130>  (48) 
0

>  <saltbridge:ARG:143>  (48) 
0

>  <saltbridge:GLU:71>  (48) 
0

>  <hbond:GLY:129>  (48) 
0

>  <halogenbond:CYS:147>  (48) 
0

>  <hydroph_interaction:THR:39>  (48) 
0

>  <hbond:ASN:69>  (48) 
0

>  <hydroph_interaction:THR:132>  (48) 
0

>  <hbond:TYR:122>  (48) 
0

>  <hydroph_interaction:PHE:109>  (48) 
0

>  <hydroph_interaction:PHE:140>  (48) 
0

>  <hbond:PRO:141>  (48) 
0

$$$$
Z3496021419-x1071-0AS1
     RDKit          3D

 36 37  0  0  0  0  0  0  0  0999 V2000
   -9.4120   -2.5510   -7.8730 C   0  0  0  0  0  0  0  0  0  0  0  0
   -8.5220   -3.7610   -7.6700 C   0  0  0  0  0  0  0  0  0  0  0  0
   -8.6920   -4.4490   -6.4230 N   0  0  0  0  0  0  0  0  0  0  0  0
   -7.7560   -5.4170   -6.6210 N   0  0  0  0  0  0  0  0  0  0  0  0
   -7.5280   -6.4170   -5.5750 C   0  0  0  0  0  0  0  0  0  0  0  0
   -8.7190   -6.5240   -4.5750 C   0  0  0  0  0  0  0  0  0  0  0  0
   -8.4170   -6.1410   -3.1390 N   0  0  0  0  0  0  0  0  0  0  0  0
   -7.2180   -6.6870   -2.4230 C   0  0  0  0  0  0  0  0  0  0  0  0
   -7.2430   -6.8970   -0.9120 C   0  0  0  0  0  0  0  0  0  0  0  0
   -5.8450   -7.1570   -0.5310 C   0  0  0  0  0  0  0  0  0  0  0  0
   -4.9320   -7.5340   -1.5280 C   0  0  0  0  0  0  0  0  0  0  0  0
   -3.6800   -7.6270   -0.9280 N   0  0  0  0  0  0  0  0  0  0  0  0
   -4.8300   -6.7150   -2.6810 C   0  0  0  0  0  0  0  0  0  0  0  0
   -6.0290   -5.7990   -2.7050 C   0  0  0  0  0  0  0  0  0  0  0  0
   -7.0960   -5.3490   -7.8260 N   0  0  0  0  0  0  0  0  0  0  0  0
   -7.5820   -4.2910   -8.4940 N   0  0  0  0  0  0  0  0  0  0  0  0
  -10.3280   -2.8460   -8.3900 H   0  0  0  0  0  0  0  0  0  0  0  0
   -9.6930   -2.1100   -6.9130 H   0  0  0  0  0  0  0  0  0  0  0  0
   -8.8910   -1.7880   -8.4570 H   0  0  0  0  0  0  0  0  0  0  0  0
   -7.3810   -7.3870   -6.0620 H   0  0  0  0  0  0  0  0  0  0  0  0
   -6.5970   -6.1590   -5.0580 H   0  0  0  0  0  0  0  0  0  0  0  0
   -9.0950   -7.5510   -4.5920 H   0  0  0  0  0  0  0  0  0  0  0  0
   -9.4930   -5.8430   -4.9490 H   0  0  0  0  0  0  0  0  0  0  0  0
   -8.7090   -5.2010   -2.8530 H   0  0  0  0  0  0  0  0  0  0  0  0
   -7.0010   -7.6360   -2.9220 H   0  0  0  0  0  0  0  0  0  0  0  0
   -7.7800   -6.1600   -0.3190 H   0  0  0  0  0  0  0  0  0  0  0  0
   -7.8030   -7.8190   -0.7230 H   0  0  0  0  0  0  0  0  0  0  0  0
   -5.4350   -6.2690   -0.0350 H   0  0  0  0  0  0  0  0  0  0  0  0
   -5.8790   -7.9600    0.2160 H   0  0  0  0  0  0  0  0  0  0  0  0
   -5.1630   -8.5570   -1.8460 H   0  0  0  0  0  0  0  0  0  0  0  0
   -2.9550   -7.6350   -1.6460 H   0  0  0  0  0  0  0  0  0  0  0  0
   -3.4990   -6.7940   -0.3680 H   0  0  0  0  0  0  0  0  0  0  0  0
   -3.8850   -6.2300   -2.8370 H   0  0  0  0  0  0  0  0  0  0  0  0
   -4.9110   -7.3650   -3.5630 H   0  0  0  0  0  0  0  0  0  0  0  0
   -6.2460   -5.2220   -3.6000 H   0  0  0  0  0  0  0  0  0  0  0  0
   -5.9280   -5.0610   -1.8990 H   0  0  0  0  0  0  0  0  0  0  0  0
  1  2  1  0
  2  3  2  0
  3  4  1  0
  4  5  1  0
  5  6  1  0
  6  7  1  0
  7  8  1  0
  8  9  1  0
  9 10  1  0
 10 11  1  0
 11 12  1  0
 11 13  1  0
 13 14  1  0
  4 15  1  0
 15 16  2  0
 16  2  1  0
 14  8  1  0
  1 17  1  0
  1 18  1  0
  1 19  1  0
  5 20  1  0
  5 21  1  0
  6 22  1  0
  6 23  1  0
  7 24  1  0
  8 25  1  0
  9 26  1  0
  9 27  1  0
 10 28  1  0
 10 29  1  0
 11 30  1  0
 12 31  1  0
 12 32  1  0
 13 33  1  0
 13 34  1  0
 14 35  1  0
 14 36  1  0
A    1
 C1 
A    2
 C2 
A    3
 N1 
A    4
 N2 
A    5
 C3 
A    6
 C4 
A    7
 N3 
A    8
 C5 
A    9
 C6 
A   10
 C7 
A   11
 C8 
A   12
 N4 
A   13
 C9 
A   14
 C10
A   15
 N5 
A   16
 N6 
A   17
 H1 
A   18
 H2 
A   19
 H3 
A   20
 H4 
A   21
 H5 
A   22
 H6 
A   23
 H7 
A   24
 H8 
A   25
 H9 
A   26
 H10
A   27
 H11
A   28
 H12
A   29
 H13
A   30
 H14
A   31
 H15
A   32
 H16
A   33
 H17
A   34
 H18
A   35
 H19
A   36
 H20
M  END
>  <ref_pdb>  (49) 
x0147_0A

>  <ref_mols>  (49) 
x1071_0AS1,x1537_0A

>  <original SMILES>  (49) 
[H]N([H])C1([H])C([H])([H])C([H])([H])C([H])(N([H])C([H])([H])C([H])([H])n2nnc(C([H])([H])[H])n2)C([H])([H])C1([H])[H]

>  <index>  (49) 
15706

>  <∆∆G>  (49) 
-5.799928

>  <comRMSD>  (49) 
0.98388

>  <N_constrained_atoms>  (49) 
12.0

>  <N_unconstrained_atoms>  (49) 
4.0

>  <LE>  (49) 
0.362496

>  <percent_hybrid>  (49) 
50.0

>  <max_hit_Tanimoto>  (49) 
0.145763

>  <largest_ring>  (49) 
6

>  <N_interactions_kept>  (49) 
1.0

>  <N_interactions_lost>  (49) 
0.0

>  <interaction_uniqueness_metric>  (49) 
0.079312

>  <N_HA>  (49) 
16

>  <N_rotatable_bonds>  (49) 
6

>  <N_interactions>  (49) 
4

>  <N_PAINS>  (49) 
0

>  <UFF_Gibbs>  (49) 
124.716564

>  <strain_per_HA>  (49) 
7.794737

>  <ad_hoc_penalty>  (49) 
-29.936911

>  <cluster>  (49) 
234

>  <ranked>  (49) 
52.0

>  <merger_rank>  (49) 
1

>  <hydroph_interaction:LEU:127>  (49) 
2

>  <hbond:GLY:128>  (49) 
0

>  <hydroph_interaction:ALA:144>  (49) 
0

>  <hbond:GLY:164>  (49) 
1

>  <hbond:HIS:40>  (49) 
0

>  <pistack:HIS:40>  (49) 
0

>  <hydroph_interaction:LEU:125>  (49) 
0

>  <hydroph_interaction:PHE:170>  (49) 
0

>  <hydroph_interaction:HIS:40>  (49) 
0

>  <pication:HIS:40>  (49) 
0

>  <hbond:THR:142>  (49) 
0

>  <hbond:HIS:161>  (49) 
0

>  <hbond:GLY:166>  (49) 
0

>  <hbond:VAL:162>  (49) 
0

>  <hydroph_interaction:ASN:165>  (49) 
0

>  <hbond:ASN:126>  (49) 
0

>  <hbond:ARG:143>  (49) 
0

>  <hbond:GLU:71>  (49) 
1

>  <saltbridge:HIS:161>  (49) 
0

>  <hbond:ALA:144>  (49) 
0

>  <hbond:GLY:145>  (49) 
0

>  <hbond:GLN:146>  (49) 
0

>  <hbond:CYS:147>  (49) 
0

>  <halogenbond:ASN:126>  (49) 
0

>  <saltbridge:HIS:40>  (49) 
0

>  <hbond:LEU:127>  (49) 
0

>  <hbond:THR:130>  (49) 
0

>  <hydroph_interaction:GLU:71>  (49) 
0

>  <hydroph_interaction:THR:130>  (49) 
0

>  <saltbridge:ARG:143>  (49) 
0

>  <saltbridge:GLU:71>  (49) 
0

>  <hbond:GLY:129>  (49) 
0

>  <halogenbond:CYS:147>  (49) 
0

>  <hydroph_interaction:THR:39>  (49) 
0

>  <hbond:ASN:69>  (49) 
0

>  <hydroph_interaction:THR:132>  (49) 
0

>  <hbond:TYR:122>  (49) 
0

>  <hydroph_interaction:PHE:109>  (49) 
0

>  <hydroph_interaction:PHE:140>  (49) 
0

>  <hbond:PRO:141>  (49) 
0

$$$$
Z3294124165-x1332-1A
     RDKit          3D

 36 38  0  0  0  0  0  0  0  0999 V2000
   -6.3480   -6.5780   -9.3090 N   0  0  0  0  0  0  0  0  0  0  0  0
   -6.8890   -6.1960   -8.1260 C   0  0  0  0  0  0  0  0  0  0  0  0
   -7.4680   -4.8080   -8.0470 C   0  0  0  0  0  0  0  0  0  0  0  0
   -6.8280   -3.8860   -8.9020 O   0  0  0  0  0  0  0  0  0  0  0  0
   -8.5240   -4.5040   -7.2180 N   0  0  0  0  0  0  0  0  0  0  0  0
   -9.3090   -3.3030   -7.2760 C   0  0  0  0  0  0  0  0  0  0  0  0
  -10.5980   -3.5870   -6.5110 C   0  0  2  0  0  0  0  0  0  0  0  0
  -11.1580   -2.7930   -5.5160 C   0  0  0  0  0  0  0  0  0  0  0  0
  -11.5590   -1.5230   -5.9750 C   0  0  0  0  0  0  0  0  0  0  0  0
  -12.1490   -0.6290   -4.9870 C   0  0  0  0  0  0  0  0  0  0  0  0
  -12.3030   -1.0320   -3.6600 C   0  0  0  0  0  0  0  0  0  0  0  0
  -11.8980   -2.2990   -3.2540 C   0  0  0  0  0  0  0  0  0  0  0  0
  -11.3310   -3.1730   -4.1750 C   0  0  0  0  0  0  0  0  0  0  0  0
  -10.9480   -4.4130   -3.7410 O   0  0  0  0  0  0  0  0  0  0  0  0
   -9.9550   -4.8750   -4.5300 C   0  0  0  0  0  0  0  0  0  0  0  0
  -10.3260   -4.9740   -5.8670 C   0  0  1  0  0  0  0  0  0  0  0  0
  -11.5880   -5.8310   -6.0680 C   0  0  0  0  0  0  0  0  0  0  0  0
  -12.4760   -5.6270   -6.8900 O   0  0  0  0  0  0  0  0  0  0  0  0
  -11.6740   -6.9540   -5.1980 O   0  0  0  0  0  0  0  0  0  0  0  0
   -9.3520   -5.5620   -6.6860 C   0  0  0  0  0  0  0  0  0  0  0  0
   -5.5780   -5.9660   -9.5990 H   0  0  0  0  0  0  0  0  0  0  0  0
   -7.0110   -6.7550  -10.0550 H   0  0  0  0  0  0  0  0  0  0  0  0
   -6.1690   -6.3810   -7.3510 H   0  0  0  0  0  0  0  0  0  0  0  0
   -7.7000   -6.8480   -7.8570 H   0  0  0  0  0  0  0  0  0  0  0  0
   -8.7280   -2.5140   -6.8060 H   0  0  0  0  0  0  0  0  0  0  0  0
   -9.5300   -2.9900   -8.3020 H   0  0  0  0  0  0  0  0  0  0  0  0
  -11.3610   -3.6820   -7.2840 H   0  0  0  0  0  0  0  0  0  0  0  0
  -11.4180   -1.2690   -7.0140 H   0  0  0  0  0  0  0  0  0  0  0  0
  -12.4730    0.3580   -5.2840 H   0  0  0  0  0  0  0  0  0  0  0  0
  -12.7450   -0.3530   -2.9350 H   0  0  0  0  0  0  0  0  0  0  0  0
  -12.0290   -2.5980   -2.2100 H   0  0  0  0  0  0  0  0  0  0  0  0
   -9.0710   -4.2960   -4.2800 H   0  0  0  0  0  0  0  0  0  0  0  0
   -9.7880   -5.9030   -4.2010 H   0  0  0  0  0  0  0  0  0  0  0  0
  -11.9340   -6.5690   -4.3320 H   0  0  0  0  0  0  0  0  0  0  0  0
   -9.7670   -6.1140   -7.5120 H   0  0  0  0  0  0  0  0  0  0  0  0
   -8.6810   -6.2270   -6.1230 H   0  0  0  0  0  0  0  0  0  0  0  0
  1  2  1  0
  2  3  1  0
  3  4  2  0
  3  5  1  0
  5  6  1  0
  6  7  1  0
  7  8  1  0
  8  9  2  0
  9 10  1  0
 10 11  2  0
 11 12  1  0
 12 13  2  0
 13 14  1  0
 14 15  1  0
 15 16  1  0
 16 17  1  1
 17 18  2  0
 17 19  1  0
 16 20  1  0
 20  5  1  0
 16  7  1  0
 13  8  1  0
  1 21  1  0
  1 22  1  0
  2 23  1  0
  2 24  1  0
  6 25  1  0
  6 26  1  0
  7 27  1  6
  9 28  1  0
 10 29  1  0
 11 30  1  0
 12 31  1  0
 15 32  1  0
 15 33  1  0
 19 34  1  0
 20 35  1  0
 20 36  1  0
A    1
 N1 
A    2
 C1 
A    3
 C2 
A    4
 O1 
A    5
 N2 
A    6
 C3 
A    7
 C4 
A    8
 C5 
A    9
 C6 
A   10
 C7 
A   11
 C8 
A   12
 C9 
A   13
 C10
A   14
 O2 
A   15
 C11
A   16
 C12
A   17
 C13
A   18
 O3 
A   19
 O4 
A   20
 C14
A   21
 H1 
A   22
 H2 
A   23
 H3 
A   24
 H4 
A   25
 H5 
A   26
 H6 
A   27
 H7 
A   28
 H8 
A   29
 H9 
A   30
 H10
A   31
 H11
A   32
 H12
A   33
 H13
A   34
 H14
A   35
 H15
A   36
 H16
M  END
>  <ref_pdb>  (50) 
x0147_0A

>  <ref_mols>  (50) 
x1332_1A,x0789_0AS4

>  <original SMILES>  (50) 
[H]OC(=O)[C@]12C([H])([H])Oc3c([H])c([H])c([H])c([H])c3[C@@]1([H])C([H])([H])N(C(=O)C([H])([H])N([H])[H])C2([H])[H]

>  <index>  (50) 
6371

>  <∆∆G>  (50) 
-5.241685

>  <comRMSD>  (50) 
0.64428

>  <N_constrained_atoms>  (50) 
17.0

>  <N_unconstrained_atoms>  (50) 
5.0

>  <LE>  (50) 
0.238258

>  <percent_hybrid>  (50) 
10.0

>  <max_hit_Tanimoto>  (50) 
0.597441

>  <largest_ring>  (50) 
6

>  <N_interactions_kept>  (50) 
0.0

>  <N_interactions_lost>  (50) 
1.0

>  <interaction_uniqueness_metric>  (50) 
0.312899

>  <N_HA>  (50) 
20

>  <N_rotatable_bonds>  (50) 
3

>  <N_interactions>  (50) 
3

>  <N_PAINS>  (50) 
0

>  <UFF_Gibbs>  (50) 
128.217237

>  <strain_per_HA>  (50) 
6.41083

>  <ad_hoc_penalty>  (50) 
-29.903004

>  <cluster>  (50) 
1420

>  <ranked>  (50) 
54.0

>  <merger_rank>  (50) 
1

>  <hydroph_interaction:LEU:127>  (50) 
0

>  <hbond:GLY:128>  (50) 
0

>  <hydroph_interaction:ALA:144>  (50) 
0

>  <hbond:GLY:164>  (50) 
0

>  <hbond:HIS:40>  (50) 
0

>  <pistack:HIS:40>  (50) 
0

>  <hydroph_interaction:LEU:125>  (50) 
0

>  <hydroph_interaction:PHE:170>  (50) 
0

>  <hydroph_interaction:HIS:40>  (50) 
0

>  <pication:HIS:40>  (50) 
0

>  <hbond:THR:142>  (50) 
0

>  <hbond:HIS:161>  (50) 
1

>  <hbond:GLY:166>  (50) 
0

>  <hbond:VAL:162>  (50) 
0

>  <hydroph_interaction:ASN:165>  (50) 
0

>  <hbond:ASN:126>  (50) 
0

>  <hbond:ARG:143>  (50) 
0

>  <hbond:GLU:71>  (50) 
0

>  <saltbridge:HIS:161>  (50) 
0

>  <hbond:ALA:144>  (50) 
1

>  <hbond:GLY:145>  (50) 
0

>  <hbond:GLN:146>  (50) 
1

>  <hbond:CYS:147>  (50) 
0

>  <halogenbond:ASN:126>  (50) 
0

>  <saltbridge:HIS:40>  (50) 
0

>  <hbond:LEU:127>  (50) 
0

>  <hbond:THR:130>  (50) 
0

>  <hydroph_interaction:GLU:71>  (50) 
0

>  <hydroph_interaction:THR:130>  (50) 
0

>  <saltbridge:ARG:143>  (50) 
0

>  <saltbridge:GLU:71>  (50) 
0

>  <hbond:GLY:129>  (50) 
0

>  <halogenbond:CYS:147>  (50) 
0

>  <hydroph_interaction:THR:39>  (50) 
0

>  <hbond:ASN:69>  (50) 
0

>  <hydroph_interaction:THR:132>  (50) 
0

>  <hbond:TYR:122>  (50) 
0

>  <hydroph_interaction:PHE:109>  (50) 
0

>  <hydroph_interaction:PHE:140>  (50) 
0

>  <hbond:PRO:141>  (50) 
0

$$$$
Z1494983122-x0771-1AS1
     RDKit          3D

 36 38  0  0  0  0  0  0  0  0999 V2000
   -7.0330   -4.0590   -9.1850 N   0  0  0  0  0  0  0  0  0  0  0  0
   -8.0550   -4.3170   -8.1910 C   0  0  0  0  0  0  0  0  0  0  0  0
   -9.3100   -3.6720   -8.0710 O   0  0  0  0  0  0  0  0  0  0  0  0
   -7.7420   -5.3550   -7.1500 C   0  0  0  0  0  0  0  0  0  0  0  0
   -7.1010   -6.6420   -7.6000 C   0  0  0  0  0  0  0  0  0  0  0  0
   -6.7540   -7.7050   -6.5690 C   0  0  0  0  0  0  0  0  0  0  0  0
   -7.1060   -7.3380   -5.1070 C   0  0  0  0  0  0  0  0  0  0  0  0
   -6.7900   -8.2430   -4.1050 N   0  0  0  0  0  0  0  0  0  0  0  0
   -5.4540   -8.0480   -3.5550 C   0  0  0  0  0  0  0  0  0  0  0  0
   -5.2000   -8.2560   -2.1720 C   0  0  0  0  0  0  0  0  0  0  0  0
   -5.9950   -9.0510   -1.3150 C   0  0  0  0  0  0  0  0  0  0  0  0
   -5.6510   -9.2150    0.0500 C   0  0  0  0  0  0  0  0  0  0  0  0
   -4.5120   -8.5840    0.5490 C   0  0  0  0  0  0  0  0  0  0  0  0
   -4.0800   -8.6490    1.7500 O   0  0  0  0  0  0  0  0  0  0  0  0
   -2.8510   -7.8560    1.7100 C   0  0  0  0  0  0  0  0  0  0  0  0
   -2.6550   -7.3010    0.4940 C   0  0  0  0  0  0  0  0  0  0  0  0
   -3.7680   -7.8150   -0.3160 C   0  0  0  0  0  0  0  0  0  0  0  0
   -4.0580   -7.6180   -1.6510 C   0  0  0  0  0  0  0  0  0  0  0  0
   -7.7120   -6.1050   -4.8290 C   0  0  0  0  0  0  0  0  0  0  0  0
   -8.0210   -5.1440   -5.8050 C   0  0  0  0  0  0  0  0  0  0  0  0
   -6.2380   -3.4890   -8.8710 H   0  0  0  0  0  0  0  0  0  0  0  0
   -6.8830   -4.7580   -9.9030 H   0  0  0  0  0  0  0  0  0  0  0  0
   -6.8780   -6.8180   -8.6620 H   0  0  0  0  0  0  0  0  0  0  0  0
   -6.2810   -8.6590   -6.8430 H   0  0  0  0  0  0  0  0  0  0  0  0
   -7.5020   -8.2810   -3.3800 H   0  0  0  0  0  0  0  0  0  0  0  0
   -5.1250   -7.0360   -3.8160 H   0  0  0  0  0  0  0  0  0  0  0  0
   -4.8110   -8.7180   -4.1320 H   0  0  0  0  0  0  0  0  0  0  0  0
   -6.8780   -9.5450   -1.7090 H   0  0  0  0  0  0  0  0  0  0  0  0
   -6.2670   -9.8290    0.7010 H   0  0  0  0  0  0  0  0  0  0  0  0
   -2.9530   -7.0280    2.4190 H   0  0  0  0  0  0  0  0  0  0  0  0
   -2.0540   -8.4920    2.0880 H   0  0  0  0  0  0  0  0  0  0  0  0
   -2.5330   -6.2310    0.5260 H   0  0  0  0  0  0  0  0  0  0  0  0
   -1.7840   -7.6900   -0.0250 H   0  0  0  0  0  0  0  0  0  0  0  0
   -3.4240   -7.0010   -2.2790 H   0  0  0  0  0  0  0  0  0  0  0  0
   -7.9640   -5.8410   -3.7980 H   0  0  0  0  0  0  0  0  0  0  0  0
   -8.4870   -4.2120   -5.4940 H   0  0  0  0  0  0  0  0  0  0  0  0
  1  2  1  0
  2  3  2  0
  2  4  1  0
  4  5  2  0
  5  6  1  0
  6  7  2  0
  7  8  1  0
  8  9  1  0
  9 10  1  0
 10 11  2  0
 11 12  1  0
 12 13  2  0
 13 14  1  0
 14 15  1  0
 15 16  1  0
 16 17  1  0
 17 18  2  0
  7 19  1  0
 19 20  2  0
 20  4  1  0
 18 10  1  0
 17 13  1  0
  1 21  1  0
  1 22  1  0
  5 23  1  0
  6 24  1  0
  8 25  1  0
  9 26  1  0
  9 27  1  0
 11 28  1  0
 12 29  1  0
 15 30  1  0
 15 31  1  0
 16 32  1  0
 16 33  1  0
 18 34  1  0
 19 35  1  0
 20 36  1  0
A    1
 N1 
A    2
 C1 
A    3
 O1 
A    4
 C2 
A    5
 C3 
A    6
 C4 
A    7
 C5 
A    8
 N2 
A    9
 C6 
A   10
 C7 
A   11
 C8 
A   12
 C9 
A   13
 C10
A   14
 O2 
A   15
 C11
A   16
 C12
A   17
 C13
A   18
 C14
A   19
 C15
A   20
 C16
A   21
 H1 
A   22
 H2 
A   23
 H3 
A   24
 H4 
A   25
 H5 
A   26
 H6 
A   27
 H7 
A   28
 H8 
A   29
 H9 
A   30
 H10
A   31
 H11
A   32
 H12
A   33
 H13
A   34
 H14
A   35
 H15
A   36
 H16
M  END
>  <ref_pdb>  (51) 
x0147_0A

>  <ref_mols>  (51) 
x0771_1AS1,x1140_0AS2

>  <original SMILES>  (51) 
[H]c1c([H])c(C([H])([H])N([H])c2c([H])c([H])c(C(=O)N([H])[H])c([H])c2[H])c([H])c2c1OC([H])([H])C2([H])[H]

>  <index>  (51) 
16749

>  <∆∆G>  (51) 
-6.183155

>  <comRMSD>  (51) 
0.476847

>  <N_constrained_atoms>  (51) 
19.0

>  <N_unconstrained_atoms>  (51) 
1.0

>  <LE>  (51) 
0.309158

>  <percent_hybrid>  (51) 
48.0

>  <max_hit_Tanimoto>  (51) 
0.223729

>  <largest_ring>  (51) 
6

>  <N_interactions_kept>  (51) 
2.5

>  <N_interactions_lost>  (51) 
1.0

>  <interaction_uniqueness_metric>  (51) 
0.118538

>  <N_HA>  (51) 
20

>  <N_rotatable_bonds>  (51) 
4

>  <N_interactions>  (51) 
3

>  <N_PAINS>  (51) 
0

>  <UFF_Gibbs>  (51) 
118.622008

>  <strain_per_HA>  (51) 
5.931071

>  <ad_hoc_penalty>  (51) 
-29.82919

>  <cluster>  (51) 
3092

>  <ranked>  (51) 
55.0

>  <merger_rank>  (51) 
2

>  <hydroph_interaction:LEU:127>  (51) 
0

>  <hbond:GLY:128>  (51) 
0

>  <hydroph_interaction:ALA:144>  (51) 
0

>  <hbond:GLY:164>  (51) 
0

>  <hbond:HIS:40>  (51) 
0

>  <pistack:HIS:40>  (51) 
1

>  <hydroph_interaction:LEU:125>  (51) 
0

>  <hydroph_interaction:PHE:170>  (51) 
0

>  <hydroph_interaction:HIS:40>  (51) 
1

>  <pication:HIS:40>  (51) 
0

>  <hbond:THR:142>  (51) 
0

>  <hbond:HIS:161>  (51) 
1

>  <hbond:GLY:166>  (51) 
0

>  <hbond:VAL:162>  (51) 
0

>  <hydroph_interaction:ASN:165>  (51) 
0

>  <hbond:ASN:126>  (51) 
0

>  <hbond:ARG:143>  (51) 
0

>  <hbond:GLU:71>  (51) 
0

>  <saltbridge:HIS:161>  (51) 
0

>  <hbond:ALA:144>  (51) 
0

>  <hbond:GLY:145>  (51) 
0

>  <hbond:GLN:146>  (51) 
0

>  <hbond:CYS:147>  (51) 
0

>  <halogenbond:ASN:126>  (51) 
0

>  <saltbridge:HIS:40>  (51) 
0

>  <hbond:LEU:127>  (51) 
0

>  <hbond:THR:130>  (51) 
0

>  <hydroph_interaction:GLU:71>  (51) 
0

>  <hydroph_interaction:THR:130>  (51) 
0

>  <saltbridge:ARG:143>  (51) 
0

>  <saltbridge:GLU:71>  (51) 
0

>  <hbond:GLY:129>  (51) 
0

>  <halogenbond:CYS:147>  (51) 
0

>  <hydroph_interaction:THR:39>  (51) 
0

>  <hbond:ASN:69>  (51) 
0

>  <hydroph_interaction:THR:132>  (51) 
0

>  <hbond:TYR:122>  (51) 
0

>  <hydroph_interaction:PHE:109>  (51) 
0

>  <hydroph_interaction:PHE:140>  (51) 
0

>  <hbond:PRO:141>  (51) 
0

$$$$
Z4913456205-x1071-0AS5
     RDKit          3D

 24 24  0  0  0  0  0  0  0  0999 V2000
   -5.3310    0.2840   -1.8030 C   0  0  0  0  0  0  0  0  0  0  0  0
   -6.7330   -0.4150   -0.9890 P   0  0  0  0  0  5  0  0  0  0  0  0
   -8.0670    0.7400   -1.1370 C   0  0  0  0  0  0  0  0  0  0  0  0
   -6.4480   -0.8280    0.4090 O   0  0  0  0  0  0  0  0  0  0  0  0
   -7.1350   -1.7620   -2.0580 C   0  0  0  0  0  0  0  0  0  0  0  0
   -7.1050   -3.0430   -1.4260 N   0  0  0  0  0  0  0  0  0  0  0  0
   -6.5580   -4.0770   -2.3080 C   0  0  0  0  0  0  0  0  0  0  0  0
   -6.3270   -3.8450   -3.5030 O   0  0  0  0  0  0  0  0  0  0  0  0
   -6.2980   -5.3030   -1.7220 C   0  0  0  0  0  0  0  0  0  0  0  0
   -7.1160   -5.7520   -0.6810 N   0  0  0  0  0  0  0  0  0  0  0  0
   -6.6170   -6.9860   -0.2970 O   0  0  0  0  0  0  0  0  0  0  0  0
   -5.5550   -7.2480   -1.0860 C   0  0  0  0  0  0  0  0  0  0  0  0
   -5.2810   -6.2530   -2.0110 C   0  0  0  0  0  0  0  0  0  0  0  0
   -5.1950   -0.1800   -2.7850 H   0  0  0  0  0  0  0  0  0  0  0  0
   -4.4480    0.1410   -1.1790 H   0  0  0  0  0  0  0  0  0  0  0  0
   -5.4650    1.3580   -1.9570 H   0  0  0  0  0  0  0  0  0  0  0  0
   -8.8740    0.3320   -1.7520 H   0  0  0  0  0  0  0  0  0  0  0  0
   -7.7390    1.6670   -1.6220 H   0  0  0  0  0  0  0  0  0  0  0  0
   -8.4720    1.0050   -0.1520 H   0  0  0  0  0  0  0  0  0  0  0  0
   -8.1210   -1.6260   -2.5160 H   0  0  0  0  0  0  0  0  0  0  0  0
   -6.3960   -1.8050   -2.8590 H   0  0  0  0  0  0  0  0  0  0  0  0
   -7.9120   -3.2590   -0.8480 H   0  0  0  0  0  0  0  0  0  0  0  0
   -4.9320   -8.1480   -1.0400 H   0  0  0  0  0  0  0  0  0  0  0  0
   -4.4880   -6.2340   -2.7480 H   0  0  0  0  0  0  0  0  0  0  0  0
  1  2  1  0
  2  3  1  0
  2  4  2  0
  2  5  1  0
  5  6  1  0
  6  7  1  0
  7  8  2  0
  7  9  1  0
  9 10  2  0
 10 11  1  0
 11 12  1  0
 12 13  2  0
 13  9  1  0
  1 14  1  0
  1 15  1  0
  1 16  1  0
  3 17  1  0
  3 18  1  0
  3 19  1  0
  5 20  1  0
  5 21  1  0
  6 22  1  0
 12 23  1  0
 13 24  1  0
A    1
 C1 
A    2
 P1 
A    3
 C2 
A    4
 O1 
A    5
 C3 
A    6
 N1 
A    7
 C4 
A    8
 O2 
A    9
 C5 
A   10
 N2 
A   11
 O3 
A   12
 C6 
A   13
 C7 
A   14
 H1 
A   15
 H2 
A   16
 H3 
A   17
 H4 
A   18
 H5 
A   19
 H6 
A   20
 H7 
A   21
 H8 
A   22
 H9 
A   23
 H10
A   24
 H11
M  END
>  <ref_pdb>  (52) 
x0147_0A

>  <ref_mols>  (52) 
x1071_0AS5,x1052_1AS2

>  <original SMILES>  (52) 
[H]c1onc(C(=O)N([H])C([H])([H])P(=O)(C([H])([H])[H])C([H])([H])[H])c1[H]

>  <index>  (52) 
17547

>  <∆∆G>  (52) 
-6.909888

>  <comRMSD>  (52) 
0.470539

>  <N_constrained_atoms>  (52) 
12.0

>  <N_unconstrained_atoms>  (52) 
2.0

>  <LE>  (52) 
0.493563

>  <percent_hybrid>  (52) 
34.0

>  <max_hit_Tanimoto>  (52) 
0.286842

>  <largest_ring>  (52) 
5

>  <N_interactions_kept>  (52) 
1.0

>  <N_interactions_lost>  (52) 
1.5

>  <interaction_uniqueness_metric>  (52) 
0.200331

>  <N_HA>  (52) 
13

>  <N_rotatable_bonds>  (52) 
5

>  <N_interactions>  (52) 
4

>  <N_PAINS>  (52) 
0

>  <UFF_Gibbs>  (52) 
58.716885

>  <strain_per_HA>  (52) 
4.516649

>  <ad_hoc_penalty>  (52) 
-29.826257

>  <cluster>  (52) 
2819

>  <ranked>  (52) 
56.0

>  <merger_rank>  (52) 
2

>  <hydroph_interaction:LEU:127>  (52) 
1

>  <hbond:GLY:128>  (52) 
1

>  <hydroph_interaction:ALA:144>  (52) 
0

>  <hbond:GLY:164>  (52) 
1

>  <hbond:HIS:40>  (52) 
0

>  <pistack:HIS:40>  (52) 
0

>  <hydroph_interaction:LEU:125>  (52) 
0

>  <hydroph_interaction:PHE:170>  (52) 
0

>  <hydroph_interaction:HIS:40>  (52) 
0

>  <pication:HIS:40>  (52) 
0

>  <hbond:THR:142>  (52) 
0

>  <hbond:HIS:161>  (52) 
0

>  <hbond:GLY:166>  (52) 
0

>  <hbond:VAL:162>  (52) 
0

>  <hydroph_interaction:ASN:165>  (52) 
0

>  <hbond:ASN:126>  (52) 
0

>  <hbond:ARG:143>  (52) 
0

>  <hbond:GLU:71>  (52) 
0

>  <saltbridge:HIS:161>  (52) 
0

>  <hbond:ALA:144>  (52) 
0

>  <hbond:GLY:145>  (52) 
0

>  <hbond:GLN:146>  (52) 
0

>  <hbond:CYS:147>  (52) 
0

>  <halogenbond:ASN:126>  (52) 
0

>  <saltbridge:HIS:40>  (52) 
0

>  <hbond:LEU:127>  (52) 
0

>  <hbond:THR:130>  (52) 
0

>  <hydroph_interaction:GLU:71>  (52) 
0

>  <hydroph_interaction:THR:130>  (52) 
0

>  <saltbridge:ARG:143>  (52) 
0

>  <saltbridge:GLU:71>  (52) 
0

>  <hbond:GLY:129>  (52) 
1

>  <halogenbond:CYS:147>  (52) 
0

>  <hydroph_interaction:THR:39>  (52) 
0

>  <hbond:ASN:69>  (52) 
0

>  <hydroph_interaction:THR:132>  (52) 
0

>  <hbond:TYR:122>  (52) 
0

>  <hydroph_interaction:PHE:109>  (52) 
0

>  <hydroph_interaction:PHE:140>  (52) 
0

>  <hbond:PRO:141>  (52) 
0

$$$$
Z1203672311-x1071-0A
     RDKit          3D

 51 52  0  0  0  0  0  0  0  0999 V2000
   -5.8930   -0.0000   -0.1880 C   0  0  0  0  0  0  0  0  0  0  0  0
   -6.4200   -0.5200   -1.5180 C   0  0  0  0  0  0  0  0  0  0  0  0
   -5.5070   -0.0580   -2.6360 C   0  0  0  0  0  0  0  0  0  0  0  0
   -7.7910    0.1510   -1.6530 C   0  0  0  0  0  0  0  0  0  0  0  0
   -6.7360   -2.0320   -1.5630 C   0  0  0  0  0  0  0  0  0  0  0  0
   -6.3110   -3.0690   -2.5970 C   0  0  0  0  0  0  0  0  0  0  0  0
   -6.6230   -4.5560   -2.7570 C   0  0  0  0  0  0  0  0  0  0  0  0
   -7.4330   -4.7050   -3.8440 O   0  0  0  0  0  0  0  0  0  0  0  0
   -6.1790   -5.6770   -1.9830 N   0  0  0  0  0  0  0  0  0  0  0  0
   -6.4490   -5.8680   -0.6250 C   0  0  0  0  0  0  0  0  0  0  0  0
   -6.5850   -7.1910   -0.1670 C   0  0  0  0  0  0  0  0  0  0  0  0
   -5.3820   -7.8830   -0.3380 C   0  0  0  0  0  0  0  0  0  0  0  0
   -4.4030   -7.6540    0.5940 N   0  0  0  0  0  0  0  0  0  0  0  0
   -3.2200   -7.3370    0.0490 C   0  0  0  0  0  0  0  0  0  0  0  0
   -2.3530   -7.2280    1.2790 C   0  0  0  0  0  0  0  0  0  0  0  0
   -3.0500   -7.7840    2.3060 C   0  0  0  0  0  0  0  0  0  0  0  0
   -4.0330   -8.5450    1.7280 C   0  0  0  0  0  0  0  0  0  0  0  0
   -5.0100   -8.9290    2.8270 C   0  0  0  0  0  0  0  0  0  0  0  0
   -6.2200   -9.4290    2.5130 N   0  0  0  0  0  0  0  0  0  0  0  0
   -4.6090   -8.7980    3.9860 O   0  0  0  0  0  0  0  0  0  0  0  0
   -4.8300   -7.6760   -1.7850 C   0  0  0  0  0  0  0  0  0  0  0  0
   -5.6480   -6.8920   -2.6250 C   0  0  0  0  0  0  0  0  0  0  0  0
   -4.8070    0.0530   -0.2130 H   0  0  0  0  0  0  0  0  0  0  0  0
   -6.2570    1.0180   -0.0300 H   0  0  0  0  0  0  0  0  0  0  0  0
   -6.2160   -0.6110    0.6490 H   0  0  0  0  0  0  0  0  0  0  0  0
   -4.6110    0.4340   -2.2550 H   0  0  0  0  0  0  0  0  0  0  0  0
   -6.0270    0.6120   -3.3210 H   0  0  0  0  0  0  0  0  0  0  0  0
   -5.2110   -0.9270   -3.2350 H   0  0  0  0  0  0  0  0  0  0  0  0
   -7.7160    1.2070   -1.9180 H   0  0  0  0  0  0  0  0  0  0  0  0
   -8.3270    0.0700   -0.7020 H   0  0  0  0  0  0  0  0  0  0  0  0
   -8.4030   -0.3520   -2.4100 H   0  0  0  0  0  0  0  0  0  0  0  0
   -7.3670   -2.4530   -0.7830 H   0  0  0  0  0  0  0  0  0  0  0  0
   -5.6800   -2.6980   -3.4010 H   0  0  0  0  0  0  0  0  0  0  0  0
   -7.2730   -5.2020   -0.4030 H   0  0  0  0  0  0  0  0  0  0  0  0
   -5.5840   -5.4580   -0.1010 H   0  0  0  0  0  0  0  0  0  0  0  0
   -6.9020   -7.2270    0.8740 H   0  0  0  0  0  0  0  0  0  0  0  0
   -7.4100   -7.7000   -0.6590 H   0  0  0  0  0  0  0  0  0  0  0  0
   -5.4730   -8.9650   -0.3050 H   0  0  0  0  0  0  0  0  0  0  0  0
   -3.2580   -6.5120   -0.6230 H   0  0  0  0  0  0  0  0  0  0  0  0
   -2.7780   -8.1220   -0.5740 H   0  0  0  0  0  0  0  0  0  0  0  0
   -2.0030   -6.2190    1.4780 H   0  0  0  0  0  0  0  0  0  0  0  0
   -1.4330   -7.7700    1.1460 H   0  0  0  0  0  0  0  0  0  0  0  0
   -3.3470   -6.9880    2.9920 H   0  0  0  0  0  0  0  0  0  0  0  0
   -2.3760   -8.4460    2.8610 H   0  0  0  0  0  0  0  0  0  0  0  0
   -3.5820   -9.4730    1.3610 H   0  0  0  0  0  0  0  0  0  0  0  0
   -6.2510  -10.0290    1.7000 H   0  0  0  0  0  0  0  0  0  0  0  0
   -7.0790   -8.9860    2.8090 H   0  0  0  0  0  0  0  0  0  0  0  0
   -3.8540   -7.1780   -1.7170 H   0  0  0  0  0  0  0  0  0  0  0  0
   -4.6170   -8.6320   -2.2760 H   0  0  0  0  0  0  0  0  0  0  0  0
   -5.0810   -6.5660   -3.5040 H   0  0  0  0  0  0  0  0  0  0  0  0
   -6.4730   -7.5170   -2.9810 H   0  0  0  0  0  0  0  0  0  0  0  0
  1  2  1  0
  2  3  1  0
  2  4  1  0
  2  5  1  0
  5  6  2  3
  6  7  1  0
  7  8  2  0
  7  9  1  0
  9 10  1  0
 10 11  1  0
 11 12  1  0
 12 13  1  0
 13 14  1  0
 14 15  1  0
 15 16  1  0
 16 17  1  0
 17 18  1  0
 18 19  1  0
 18 20  2  0
 12 21  1  0
 21 22  1  0
 22  9  1  0
 17 13  1  0
  1 23  1  0
  1 24  1  0
  1 25  1  0
  3 26  1  0
  3 27  1  0
  3 28  1  0
  4 29  1  0
  4 30  1  0
  4 31  1  0
  5 32  1  0
  6 33  1  0
 10 34  1  0
 10 35  1  0
 11 36  1  0
 11 37  1  0
 12 38  1  0
 14 39  1  0
 14 40  1  0
 15 41  1  0
 15 42  1  0
 16 43  1  0
 16 44  1  0
 17 45  1  0
 19 46  1  0
 19 47  1  0
 21 48  1  0
 21 49  1  0
 22 50  1  0
 22 51  1  0
A    1
 C1 
A    2
 C2 
A    3
 C3 
A    4
 C4 
A    5
 C5 
A    6
 C6 
A    7
 C7 
A    8
 O1 
A    9
 N1 
A   10
 C8 
A   11
 C9 
A   12
 C10
A   13
 N2 
A   14
 C11
A   15
 C12
A   16
 C13
A   17
 C14
A   18
 C15
A   19
 N3 
A   20
 O2 
A   21
 C16
A   22
 C17
A   23
 H1 
A   24
 H2 
A   25
 H3 
A   26
 H4 
A   27
 H5 
A   28
 H6 
A   29
 H7 
A   30
 H8 
A   31
 H9 
A   32
 H10
A   33
 H11
A   34
 H12
A   35
 H13
A   36
 H14
A   37
 H15
A   38
 H16
A   39
 H17
A   40
 H18
A   41
 H19
A   42
 H20
A   43
 H21
A   44
 H22
A   45
 H23
A   46
 H24
A   47
 H25
A   48
 H26
A   49
 H27
A   50
 H28
A   51
 H29
M  END
>  <ref_pdb>  (53) 
x0147_0A

>  <ref_mols>  (53) 
x1071_0A,x1247_0AS4

>  <original SMILES>  (53) 
[H]C(C(=O)N1C([H])([H])C([H])([H])C([H])(N2C([H])([H])C([H])([H])C([H])([H])C2([H])C(=O)N([H])[H])C([H])([H])C1([H])[H])=C([H])C(C([H])([H])[H])(C([H])([H])[H])C([H])([H])[H]

>  <index>  (53) 
10079

>  <∆∆G>  (53) 
-6.596454

>  <comRMSD>  (53) 
0.695592

>  <N_constrained_atoms>  (53) 
22.0

>  <N_unconstrained_atoms>  (53) 
1.0

>  <LE>  (53) 
0.286802

>  <percent_hybrid>  (53) 
37.0

>  <max_hit_Tanimoto>  (53) 
0.321782

>  <largest_ring>  (53) 
6

>  <N_interactions_kept>  (53) 
1.0

>  <N_interactions_lost>  (53) 
2.0

>  <interaction_uniqueness_metric>  (53) 
0.173286

>  <N_HA>  (53) 
22

>  <N_rotatable_bonds>  (53) 
3

>  <N_interactions>  (53) 
7

>  <N_PAINS>  (53) 
0

>  <UFF_Gibbs>  (53) 
523.473048

>  <strain_per_HA>  (53) 
23.794121

>  <ad_hoc_penalty>  (53) 
-29.725662

>  <cluster>  (53) 
2186

>  <ranked>  (53) 
57.0

>  <merger_rank>  (53) 
3

>  <hydroph_interaction:LEU:127>  (53) 
2

>  <hbond:GLY:128>  (53) 
0

>  <hydroph_interaction:ALA:144>  (53) 
0

>  <hbond:GLY:164>  (53) 
1

>  <hbond:HIS:40>  (53) 
0

>  <pistack:HIS:40>  (53) 
0

>  <hydroph_interaction:LEU:125>  (53) 
0

>  <hydroph_interaction:PHE:170>  (53) 
1

>  <hydroph_interaction:HIS:40>  (53) 
0

>  <pication:HIS:40>  (53) 
0

>  <hbond:THR:142>  (53) 
0

>  <hbond:HIS:161>  (53) 
0

>  <hbond:GLY:166>  (53) 
0

>  <hbond:VAL:162>  (53) 
0

>  <hydroph_interaction:ASN:165>  (53) 
1

>  <hbond:ASN:126>  (53) 
0

>  <hbond:ARG:143>  (53) 
0

>  <hbond:GLU:71>  (53) 
0

>  <saltbridge:HIS:161>  (53) 
0

>  <hbond:ALA:144>  (53) 
0

>  <hbond:GLY:145>  (53) 
0

>  <hbond:GLN:146>  (53) 
0

>  <hbond:CYS:147>  (53) 
0

>  <halogenbond:ASN:126>  (53) 
0

>  <saltbridge:HIS:40>  (53) 
0

>  <hbond:LEU:127>  (53) 
0

>  <hbond:THR:130>  (53) 
1

>  <hydroph_interaction:GLU:71>  (53) 
0

>  <hydroph_interaction:THR:130>  (53) 
0

>  <saltbridge:ARG:143>  (53) 
0

>  <saltbridge:GLU:71>  (53) 
1

>  <hbond:GLY:129>  (53) 
0

>  <halogenbond:CYS:147>  (53) 
0

>  <hydroph_interaction:THR:39>  (53) 
0

>  <hbond:ASN:69>  (53) 
0

>  <hydroph_interaction:THR:132>  (53) 
0

>  <hbond:TYR:122>  (53) 
0

>  <hydroph_interaction:PHE:109>  (53) 
0

>  <hydroph_interaction:PHE:140>  (53) 
0

>  <hbond:PRO:141>  (53) 
0

$$$$
Z2899288940-x1332-1AS2
     RDKit          3D

 28 28  0  0  0  0  0  0  0  0999 V2000
   -6.6790   -6.3960   -8.3160 C   0  0  0  0  0  0  0  0  0  0  0  0
   -7.3800   -5.0520   -8.3280 C   0  0  0  0  0  0  0  0  0  0  0  0
   -6.5800   -4.1520   -9.0790 O   0  0  0  0  0  0  0  0  0  0  0  0
   -8.5570   -4.8550   -7.7290 N   0  0  0  0  0  0  0  0  0  0  0  0
   -9.0540   -3.4690   -7.6420 C   0  0  0  0  0  0  0  0  0  0  0  0
  -10.4110   -3.7260   -7.0160 C   0  0  1  0  0  0  0  0  0  0  0  0
  -11.6180   -3.2620   -7.7950 C   0  0  0  0  0  0  0  0  0  0  0  0
  -10.6290   -5.1870   -6.7240 C   0  0  2  0  0  0  0  0  0  0  0  0
  -11.4990   -5.4920   -5.5380 C   0  0  0  0  0  0  0  0  0  0  0  0
  -11.8420   -6.8270   -5.2890 C   0  0  0  0  0  0  0  0  0  0  0  0
  -10.9340   -7.7810   -4.7210 O   0  0  0  0  0  0  0  0  0  0  0  0
  -12.9550   -7.2620   -5.5520 O   0  0  0  0  0  0  0  0  0  0  0  0
   -9.1540   -5.6460   -6.6410 C   0  0  0  0  0  0  0  0  0  0  0  0
   -6.9180   -7.0850   -7.5140 H   0  0  0  0  0  0  0  0  0  0  0  0
   -6.8950   -6.9300   -9.2390 H   0  0  0  0  0  0  0  0  0  0  0  0
   -5.6010   -6.2350   -8.2970 H   0  0  0  0  0  0  0  0  0  0  0  0
   -8.2820   -2.8660   -7.1980 H   0  0  0  0  0  0  0  0  0  0  0  0
   -9.1950   -3.0940   -8.6530 H   0  0  0  0  0  0  0  0  0  0  0  0
  -10.4210   -3.1930   -6.0580 H   0  0  0  0  0  0  0  0  0  0  0  0
  -12.1920   -4.0290   -8.3050 H   0  0  0  0  0  0  0  0  0  0  0  0
  -12.3090   -2.7430   -7.1230 H   0  0  0  0  0  0  0  0  0  0  0  0
  -11.3080   -2.5290   -8.5470 H   0  0  0  0  0  0  0  0  0  0  0  0
  -11.0590   -5.7930   -7.5250 H   0  0  0  0  0  0  0  0  0  0  0  0
  -11.1090   -5.0760   -4.6030 H   0  0  0  0  0  0  0  0  0  0  0  0
  -12.4360   -4.9450   -5.6910 H   0  0  0  0  0  0  0  0  0  0  0  0
  -12.8940   -8.2200   -5.3480 H   0  0  0  0  0  0  0  0  0  0  0  0
   -9.0050   -6.7140   -6.8180 H   0  0  0  0  0  0  0  0  0  0  0  0
   -8.6960   -5.3900   -5.6900 H   0  0  0  0  0  0  0  0  0  0  0  0
  1  2  1  0
  2  3  2  0
  2  4  1  0
  4  5  1  0
  5  6  1  0
  6  7  1  0
  6  8  1  0
  8  9  1  0
  9 10  1  0
 10 11  2  0
 10 12  1  0
  8 13  1  0
 13  4  1  0
  1 14  1  0
  1 15  1  0
  1 16  1  0
  5 17  1  0
  5 18  1  0
  6 19  1  1
  7 20  1  0
  7 21  1  0
  7 22  1  0
  8 23  1  6
  9 24  1  0
  9 25  1  0
 12 26  1  0
 13 27  1  0
 13 28  1  0
A    1
 C1 
A    2
 C2 
A    3
 O1 
A    4
 N1 
A    5
 C3 
A    6
 C4 
A    7
 C5 
A    8
 C6 
A    9
 C7 
A   10
 C8 
A   11
 O2 
A   12
 O3 
A   13
 C9 
A   14
 H1 
A   15
 H2 
A   16
 H3 
A   17
 H4 
A   18
 H5 
A   19
 H6 
A   20
 H7 
A   21
 H8 
A   22
 H9 
A   23
 H10
A   24
 H11
A   25
 H12
A   26
 H13
A   27
 H14
A   28
 H15
M  END
>  <ref_pdb>  (54) 
x0147_0A

>  <ref_mols>  (54) 
x1332_1AS2,x0980_0BS4

>  <original SMILES>  (54) 
[H]OC(=O)C([H])([H])[C@]1([H])C([H])([H])N(C(=O)C([H])([H])[H])C([H])([H])[C@@]1([H])C([H])([H])[H]

>  <index>  (54) 
8720

>  <∆∆G>  (54) 
-7.784485

>  <comRMSD>  (54) 
0.842658

>  <N_constrained_atoms>  (54) 
14.0

>  <N_unconstrained_atoms>  (54) 
2.0

>  <LE>  (54) 
0.48653

>  <percent_hybrid>  (54) 
34.0

>  <max_hit_Tanimoto>  (54) 
0.531157

>  <largest_ring>  (54) 
5

>  <N_interactions_kept>  (54) 
2.0

>  <N_interactions_lost>  (54) 
0.0

>  <interaction_uniqueness_metric>  (54) 
0.023669

>  <N_HA>  (54) 
13

>  <N_rotatable_bonds>  (54) 
4

>  <N_interactions>  (54) 
1

>  <N_PAINS>  (54) 
0

>  <UFF_Gibbs>  (54) 
128.148203

>  <strain_per_HA>  (54) 
9.857478

>  <ad_hoc_penalty>  (54) 
-29.569483

>  <cluster>  (54) 
5313

>  <ranked>  (54) 
59.0

>  <merger_rank>  (54) 
3

>  <hydroph_interaction:LEU:127>  (54) 
0

>  <hbond:GLY:128>  (54) 
0

>  <hydroph_interaction:ALA:144>  (54) 
1

>  <hbond:GLY:164>  (54) 
0

>  <hbond:HIS:40>  (54) 
0

>  <pistack:HIS:40>  (54) 
0

>  <hydroph_interaction:LEU:125>  (54) 
0

>  <hydroph_interaction:PHE:170>  (54) 
0

>  <hydroph_interaction:HIS:40>  (54) 
0

>  <pication:HIS:40>  (54) 
0

>  <hbond:THR:142>  (54) 
0

>  <hbond:HIS:161>  (54) 
0

>  <hbond:GLY:166>  (54) 
0

>  <hbond:VAL:162>  (54) 
0

>  <hydroph_interaction:ASN:165>  (54) 
0

>  <hbond:ASN:126>  (54) 
0

>  <hbond:ARG:143>  (54) 
0

>  <hbond:GLU:71>  (54) 
0

>  <saltbridge:HIS:161>  (54) 
0

>  <hbond:ALA:144>  (54) 
0

>  <hbond:GLY:145>  (54) 
0

>  <hbond:GLN:146>  (54) 
0

>  <hbond:CYS:147>  (54) 
0

>  <halogenbond:ASN:126>  (54) 
0

>  <saltbridge:HIS:40>  (54) 
0

>  <hbond:LEU:127>  (54) 
0

>  <hbond:THR:130>  (54) 
0

>  <hydroph_interaction:GLU:71>  (54) 
0

>  <hydroph_interaction:THR:130>  (54) 
0

>  <saltbridge:ARG:143>  (54) 
0

>  <saltbridge:GLU:71>  (54) 
0

>  <hbond:GLY:129>  (54) 
0

>  <halogenbond:CYS:147>  (54) 
0

>  <hydroph_interaction:THR:39>  (54) 
0

>  <hbond:ASN:69>  (54) 
0

>  <hydroph_interaction:THR:132>  (54) 
0

>  <hbond:TYR:122>  (54) 
0

>  <hydroph_interaction:PHE:109>  (54) 
0

>  <hydroph_interaction:PHE:140>  (54) 
0

>  <hbond:PRO:141>  (54) 
0

$$$$
Z3313159264-x1329-0AS2
     RDKit          3D

 44 45  0  0  0  0  0  0  0  0999 V2000
   -4.0230   -7.3360    1.4900 C   0  0  0  0  0  0  0  0  0  0  0  0
   -5.3880   -7.5990    1.1700 O   0  0  0  0  0  0  0  0  0  0  0  0
   -5.5370   -8.6010    0.1600 C   0  0  0  0  0  0  0  0  0  0  0  0
   -5.0540   -9.7250    0.2320 O   0  0  0  0  0  0  0  0  0  0  0  0
   -6.3990   -8.0670   -1.0180 C   0  0  2  0  0  0  0  0  0  0  0  0
   -6.4330   -9.1890   -2.0600 C   0  0  0  0  0  0  0  0  0  0  0  0
   -6.6320   -8.5220   -3.4400 C   0  0  0  0  0  0  0  0  0  0  0  0
   -7.3950   -7.3670   -3.3820 N   0  0  0  0  0  0  0  0  0  0  0  0
   -8.1540   -6.9460   -4.5640 C   0  0  0  0  0  0  0  0  0  0  0  0
   -8.4420   -5.4580   -4.5940 C   0  0  0  0  0  0  0  0  0  0  0  0
   -9.2480   -5.0400   -5.6780 C   0  0  0  0  0  0  0  0  0  0  0  0
   -8.5440   -4.8500   -6.8610 C   0  0  0  0  0  0  0  0  0  0  0  0
   -8.6140   -3.7280   -7.6650 C   0  0  0  0  0  0  0  0  0  0  0  0
   -9.3440   -2.5530   -7.5590 C   0  0  0  0  0  0  0  0  0  0  0  0
   -7.7890   -3.7500   -8.8490 N   0  0  0  0  0  0  0  0  0  0  0  0
   -7.1280   -4.9790   -8.8410 C   0  0  0  0  0  0  0  0  0  0  0  0
   -7.4590   -6.0090   -7.5220 S   0  0  0  0  0  0  0  0  0  0  0  0
   -6.7120   -6.3020   -2.5830 C   0  0  0  0  0  0  0  0  0  0  0  0
   -5.9490   -6.8500   -1.5480 C   0  0  2  0  0  0  0  0  0  0  0  0
   -4.5180   -6.9640   -2.0020 C   0  0  0  0  0  0  0  0  0  0  0  0
   -3.9880   -6.8260    2.4570 H   0  0  0  0  0  0  0  0  0  0  0  0
   -3.4540   -8.2710    1.5640 H   0  0  0  0  0  0  0  0  0  0  0  0
   -3.5680   -6.6830    0.7400 H   0  0  0  0  0  0  0  0  0  0  0  0
   -7.4480   -7.8550   -0.8840 H   0  0  0  0  0  0  0  0  0  0  0  0
   -7.1850   -9.9820   -1.9510 H   0  0  0  0  0  0  0  0  0  0  0  0
   -5.4710   -9.7200   -2.0650 H   0  0  0  0  0  0  0  0  0  0  0  0
   -5.7210   -8.3070   -3.9940 H   0  0  0  0  0  0  0  0  0  0  0  0
   -7.1690   -9.2370   -4.0730 H   0  0  0  0  0  0  0  0  0  0  0  0
   -8.9880   -7.6350   -4.6850 H   0  0  0  0  0  0  0  0  0  0  0  0
   -7.5120   -7.1120   -5.4400 H   0  0  0  0  0  0  0  0  0  0  0  0
   -7.5540   -4.8460   -4.4560 H   0  0  0  0  0  0  0  0  0  0  0  0
   -9.0450   -5.2570   -3.7070 H   0  0  0  0  0  0  0  0  0  0  0  0
   -9.9180   -5.8810   -5.8790 H   0  0  0  0  0  0  0  0  0  0  0  0
   -9.9410   -4.2350   -5.4530 H   0  0  0  0  0  0  0  0  0  0  0  0
  -10.4200   -2.4850   -7.7660 H   0  0  0  0  0  0  0  0  0  0  0  0
   -9.3130   -2.2840   -6.4950 H   0  0  0  0  0  0  0  0  0  0  0  0
   -8.9100   -1.6940   -8.0600 H   0  0  0  0  0  0  0  0  0  0  0  0
   -6.4480   -5.2730   -9.6200 H   0  0  0  0  0  0  0  0  0  0  0  0
   -7.4300   -5.5730   -2.1870 H   0  0  0  0  0  0  0  0  0  0  0  0
   -6.0260   -5.7430   -3.2310 H   0  0  0  0  0  0  0  0  0  0  0  0
   -5.9460   -6.1640   -0.6940 H   0  0  0  0  0  0  0  0  0  0  0  0
   -4.1850   -7.7510   -2.6710 H   0  0  0  0  0  0  0  0  0  0  0  0
   -3.7630   -6.9620   -1.2070 H   0  0  0  0  0  0  0  0  0  0  0  0
   -4.3230   -6.0610   -2.5860 H   0  0  0  0  0  0  0  0  0  0  0  0
  1  2  1  0
  2  3  1  0
  3  4  2  0
  3  5  1  0
  5  6  1  0
  6  7  1  0
  7  8  1  0
  8  9  1  0
  9 10  1  0
 10 11  1  0
 11 12  1  0
 12 13  2  0
 13 14  1  0
 13 15  1  0
 15 16  2  0
 16 17  1  0
  8 18  1  0
 18 19  1  0
 19 20  1  0
 19  5  1  0
 17 12  1  0
  1 21  1  0
  1 22  1  0
  1 23  1  0
  5 24  1  1
  6 25  1  0
  6 26  1  0
  7 27  1  0
  7 28  1  0
  9 29  1  0
  9 30  1  0
 10 31  1  0
 10 32  1  0
 11 33  1  0
 11 34  1  0
 14 35  1  0
 14 36  1  0
 14 37  1  0
 16 38  1  0
 18 39  1  0
 18 40  1  0
 19 41  1  1
 20 42  1  0
 20 43  1  0
 20 44  1  0
A    1
 C1 
A    2
 O1 
A    3
 C2 
A    4
 O2 
A    5
 C3 
A    6
 C4 
A    7
 C5 
A    8
 N1 
A    9
 C6 
A   10
 C7 
A   11
 C8 
A   12
 C9 
A   13
 C10
A   14
 C11
A   15
 N2 
A   16
 C12
A   17
 S1 
A   18
 C13
A   19
 C14
A   20
 C15
A   21
 H1 
A   22
 H2 
A   23
 H3 
A   24
 H4 
A   25
 H5 
A   26
 H6 
A   27
 H7 
A   28
 H8 
A   29
 H9 
A   30
 H10
A   31
 H11
A   32
 H12
A   33
 H13
A   34
 H14
A   35
 H15
A   36
 H16
A   37
 H17
A   38
 H18
A   39
 H19
A   40
 H20
A   41
 H21
A   42
 H22
A   43
 H23
A   44
 H24
M  END
>  <ref_pdb>  (55) 
x0147_0A

>  <ref_mols>  (55) 
x1329_0AS2,x0789_0AS1

>  <original SMILES>  (55) 
[H]c1nc(C([H])([H])[H])c(C([H])([H])C([H])([H])C([H])([H])N2C([H])([H])C([H])([H])[C@@]([H])(C(=O)OC([H])([H])[H])[C@@]([H])(C([H])([H])[H])C2([H])[H])s1

>  <index>  (55) 
12373

>  <∆∆G>  (55) 
-9.354661

>  <comRMSD>  (55) 
0.301274

>  <N_constrained_atoms>  (55) 
17.0

>  <N_unconstrained_atoms>  (55) 
3.0

>  <LE>  (55) 
0.467733

>  <percent_hybrid>  (55) 
36.0

>  <max_hit_Tanimoto>  (55) 
0.191104

>  <largest_ring>  (55) 
6

>  <N_interactions_kept>  (55) 
0.0

>  <N_interactions_lost>  (55) 
0.5

>  <interaction_uniqueness_metric>  (55) 
0.063354

>  <N_HA>  (55) 
20

>  <N_rotatable_bonds>  (55) 
8

>  <N_interactions>  (55) 
2

>  <N_PAINS>  (55) 
0

>  <UFF_Gibbs>  (55) 
148.870524

>  <strain_per_HA>  (55) 
7.443489

>  <ad_hoc_penalty>  (55) 
-29.53801

>  <cluster>  (55) 
4287

>  <ranked>  (55) 
60.0

>  <merger_rank>  (55) 
2

>  <hydroph_interaction:LEU:127>  (55) 
1

>  <hbond:GLY:128>  (55) 
0

>  <hydroph_interaction:ALA:144>  (55) 
0

>  <hbond:GLY:164>  (55) 
0

>  <hbond:HIS:40>  (55) 
0

>  <pistack:HIS:40>  (55) 
0

>  <hydroph_interaction:LEU:125>  (55) 
0

>  <hydroph_interaction:PHE:170>  (55) 
0

>  <hydroph_interaction:HIS:40>  (55) 
0

>  <pication:HIS:40>  (55) 
0

>  <hbond:THR:142>  (55) 
0

>  <hbond:HIS:161>  (55) 
0

>  <hbond:GLY:166>  (55) 
0

>  <hbond:VAL:162>  (55) 
0

>  <hydroph_interaction:ASN:165>  (55) 
0

>  <hbond:ASN:126>  (55) 
0

>  <hbond:ARG:143>  (55) 
0

>  <hbond:GLU:71>  (55) 
0

>  <saltbridge:HIS:161>  (55) 
0

>  <hbond:ALA:144>  (55) 
0

>  <hbond:GLY:145>  (55) 
0

>  <hbond:GLN:146>  (55) 
0

>  <hbond:CYS:147>  (55) 
0

>  <halogenbond:ASN:126>  (55) 
0

>  <saltbridge:HIS:40>  (55) 
1

>  <hbond:LEU:127>  (55) 
0

>  <hbond:THR:130>  (55) 
0

>  <hydroph_interaction:GLU:71>  (55) 
0

>  <hydroph_interaction:THR:130>  (55) 
0

>  <saltbridge:ARG:143>  (55) 
0

>  <saltbridge:GLU:71>  (55) 
0

>  <hbond:GLY:129>  (55) 
0

>  <halogenbond:CYS:147>  (55) 
0

>  <hydroph_interaction:THR:39>  (55) 
0

>  <hbond:ASN:69>  (55) 
0

>  <hydroph_interaction:THR:132>  (55) 
0

>  <hbond:TYR:122>  (55) 
0

>  <hydroph_interaction:PHE:109>  (55) 
0

>  <hydroph_interaction:PHE:140>  (55) 
0

>  <hbond:PRO:141>  (55) 
0

$$$$
PV-004294411706-x1329-0A
     RDKit          3D

 43 43  0  0  0  0  0  0  0  0999 V2000
   -5.9800    2.7870   -1.5790 C   0  0  0  0  0  0  0  0  0  0  0  0
   -6.3410    1.5620   -0.7580 C   0  0  0  0  0  0  0  0  0  0  0  0
   -6.7730    0.4680   -1.5900 O   0  0  0  0  0  0  0  0  0  0  0  0
   -6.4780   -0.7630   -1.0750 C   0  0  0  0  0  0  0  0  0  0  0  0
   -6.1490   -0.9030    0.0760 O   0  0  0  0  0  0  0  0  0  0  0  0
   -6.6090   -1.8970   -2.1260 C   0  0  0  0  0  0  0  0  0  0  0  0
   -6.2090   -3.3120   -1.7260 N   0  0  0  0  0  0  0  0  0  0  0  0
   -7.1090   -4.4220   -2.6250 S   0  0  0  0  0  6  0  0  0  0  0  0
   -6.9180   -4.0630   -4.0200 O   0  0  0  0  0  0  0  0  0  0  0  0
   -8.3870   -4.3500   -2.0060 O   0  0  0  0  0  0  0  0  0  0  0  0
   -6.5870   -6.0550   -2.4620 N   0  0  0  0  0  0  0  0  0  0  0  0
   -7.4070   -7.0480   -3.2320 C   0  0  0  0  0  0  0  0  0  0  0  0
   -6.6610   -8.3680   -3.3840 C   0  0  0  0  0  0  0  0  0  0  0  0
   -6.3910   -8.9490   -2.0920 C   0  0  0  0  0  0  0  0  0  0  0  0
   -6.2900   -8.0020   -0.8840 C   0  0  0  0  0  0  0  0  0  0  0  0
   -5.5760   -8.4890    0.2200 C   0  0  0  0  0  0  0  0  0  0  0  0
   -5.1620   -9.6420    0.2950 O   0  0  0  0  0  0  0  0  0  0  0  0
   -5.3960   -7.5600    1.1950 O   0  0  0  0  0  0  0  0  0  0  0  0
   -4.0280   -7.3370    1.5650 C   0  0  0  0  0  0  0  0  0  0  0  0
   -5.7240   -6.6180   -1.3380 C   0  0  0  0  0  0  0  0  0  0  0  0
   -4.3290   -6.8590   -1.9160 C   0  0  0  0  0  0  0  0  0  0  0  0
   -5.2960    2.5020   -2.3740 H   0  0  0  0  0  0  0  0  0  0  0  0
   -6.8700    3.2280   -2.0370 H   0  0  0  0  0  0  0  0  0  0  0  0
   -5.5080    3.5450   -0.9490 H   0  0  0  0  0  0  0  0  0  0  0  0
   -5.4640    1.2170   -0.1930 H   0  0  0  0  0  0  0  0  0  0  0  0
   -7.1050    1.8280   -0.0180 H   0  0  0  0  0  0  0  0  0  0  0  0
   -5.9540   -1.6290   -2.9580 H   0  0  0  0  0  0  0  0  0  0  0  0
   -7.6550   -1.8830   -2.4500 H   0  0  0  0  0  0  0  0  0  0  0  0
   -6.4080   -3.4750   -0.7330 H   0  0  0  0  0  0  0  0  0  0  0  0
   -8.3720   -7.2110   -2.7410 H   0  0  0  0  0  0  0  0  0  0  0  0
   -7.6120   -6.6650   -4.2360 H   0  0  0  0  0  0  0  0  0  0  0  0
   -7.2480   -9.0620   -3.9950 H   0  0  0  0  0  0  0  0  0  0  0  0
   -5.7100   -8.1950   -3.9120 H   0  0  0  0  0  0  0  0  0  0  0  0
   -5.4460   -9.5020   -2.1830 H   0  0  0  0  0  0  0  0  0  0  0  0
   -7.1490   -9.7150   -1.8860 H   0  0  0  0  0  0  0  0  0  0  0  0
   -7.3140   -7.8450   -0.5170 H   0  0  0  0  0  0  0  0  0  0  0  0
   -3.5470   -6.6470    0.8640 H   0  0  0  0  0  0  0  0  0  0  0  0
   -3.4830   -8.2850    1.6110 H   0  0  0  0  0  0  0  0  0  0  0  0
   -4.0140   -6.8820    2.5530 H   0  0  0  0  0  0  0  0  0  0  0  0
   -5.8560   -5.9540   -0.4930 H   0  0  0  0  0  0  0  0  0  0  0  0
   -4.0920   -6.1170   -2.6820 H   0  0  0  0  0  0  0  0  0  0  0  0
   -4.2720   -7.8360   -2.4060 H   0  0  0  0  0  0  0  0  0  0  0  0
   -3.5460   -6.8320   -1.1590 H   0  0  0  0  0  0  0  0  0  0  0  0
  1  2  1  0
  2  3  1  0
  3  4  1  0
  4  5  2  0
  4  6  1  0
  6  7  1  0
  7  8  1  0
  8  9  2  0
  8 10  2  0
  8 11  1  0
 11 12  1  0
 12 13  1  0
 13 14  1  0
 14 15  1  0
 15 16  1  0
 16 17  2  0
 16 18  1  0
 18 19  1  0
 15 20  1  0
 20 21  1  0
 20 11  1  0
  1 22  1  0
  1 23  1  0
  1 24  1  0
  2 25  1  0
  2 26  1  0
  6 27  1  0
  6 28  1  0
  7 29  1  0
 12 30  1  0
 12 31  1  0
 13 32  1  0
 13 33  1  0
 14 34  1  0
 14 35  1  0
 15 36  1  0
 19 37  1  0
 19 38  1  0
 19 39  1  0
 20 40  1  0
 21 41  1  0
 21 42  1  0
 21 43  1  0
A    1
 C1 
A    2
 C2 
A    3
 O1 
A    4
 C3 
A    5
 O2 
A    6
 C4 
A    7
 N1 
A    8
 S1 
A    9
 O3 
A   10
 O4 
A   11
 N2 
A   12
 C5 
A   13
 C6 
A   14
 C7 
A   15
 C8 
A   16
 C9 
A   17
 O5 
A   18
 O6 
A   19
 C10
A   20
 C11
A   21
 C12
A   22
 H1 
A   23
 H2 
A   24
 H3 
A   25
 H4 
A   26
 H5 
A   27
 H6 
A   28
 H7 
A   29
 H8 
A   30
 H9 
A   31
 H10
A   32
 H11
A   33
 H12
A   34
 H13
A   35
 H14
A   36
 H15
A   37
 H16
A   38
 H17
A   39
 H18
A   40
 H19
A   41
 H20
A   42
 H21
A   43
 H22
M  END
>  <ref_pdb>  (56) 
x0147_0A

>  <ref_mols>  (56) 
x1329_0A,x1052_1AS1

>  <original SMILES>  (56) 
[H]N(C([H])([H])C(=O)OC([H])([H])C([H])([H])[H])S(=O)(=O)N1C([H])([H])C([H])([H])C([H])([H])C([H])(C(=O)OC([H])([H])[H])C1([H])C([H])([H])[H]

>  <index>  (56) 
626

>  <∆∆G>  (56) 
-7.529865

>  <comRMSD>  (56) 
0.704682

>  <N_constrained_atoms>  (56) 
20.0

>  <N_unconstrained_atoms>  (56) 
2.0

>  <LE>  (56) 
0.342267

>  <percent_hybrid>  (56) 
30.0

>  <max_hit_Tanimoto>  (56) 
0.43765

>  <largest_ring>  (56) 
6

>  <N_interactions_kept>  (56) 
0.0

>  <N_interactions_lost>  (56) 
2.5

>  <interaction_uniqueness_metric>  (56) 
0.187459

>  <N_HA>  (56) 
21

>  <N_rotatable_bonds>  (56) 
9

>  <N_interactions>  (56) 
7

>  <N_PAINS>  (56) 
0

>  <UFF_Gibbs>  (56) 
100.950014

>  <strain_per_HA>  (56) 
4.807121

>  <ad_hoc_penalty>  (56) 
-29.529034

>  <cluster>  (56) 
976

>  <ranked>  (56) 
61.0

>  <merger_rank>  (56) 
1

>  <hydroph_interaction:LEU:127>  (56) 
1

>  <hbond:GLY:128>  (56) 
1

>  <hydroph_interaction:ALA:144>  (56) 
0

>  <hbond:GLY:164>  (56) 
1

>  <hbond:HIS:40>  (56) 
0

>  <pistack:HIS:40>  (56) 
0

>  <hydroph_interaction:LEU:125>  (56) 
1

>  <hydroph_interaction:PHE:170>  (56) 
1

>  <hydroph_interaction:HIS:40>  (56) 
0

>  <pication:HIS:40>  (56) 
0

>  <hbond:THR:142>  (56) 
0

>  <hbond:HIS:161>  (56) 
0

>  <hbond:GLY:166>  (56) 
0

>  <hbond:VAL:162>  (56) 
0

>  <hydroph_interaction:ASN:165>  (56) 
1

>  <hbond:ASN:126>  (56) 
0

>  <hbond:ARG:143>  (56) 
0

>  <hbond:GLU:71>  (56) 
0

>  <saltbridge:HIS:161>  (56) 
0

>  <hbond:ALA:144>  (56) 
0

>  <hbond:GLY:145>  (56) 
0

>  <hbond:GLN:146>  (56) 
0

>  <hbond:CYS:147>  (56) 
0

>  <halogenbond:ASN:126>  (56) 
0

>  <saltbridge:HIS:40>  (56) 
1

>  <hbond:LEU:127>  (56) 
0

>  <hbond:THR:130>  (56) 
0

>  <hydroph_interaction:GLU:71>  (56) 
0

>  <hydroph_interaction:THR:130>  (56) 
0

>  <saltbridge:ARG:143>  (56) 
0

>  <saltbridge:GLU:71>  (56) 
0

>  <hbond:GLY:129>  (56) 
0

>  <halogenbond:CYS:147>  (56) 
0

>  <hydroph_interaction:THR:39>  (56) 
0

>  <hbond:ASN:69>  (56) 
0

>  <hydroph_interaction:THR:132>  (56) 
0

>  <hbond:TYR:122>  (56) 
0

>  <hydroph_interaction:PHE:109>  (56) 
0

>  <hydroph_interaction:PHE:140>  (56) 
0

>  <hbond:PRO:141>  (56) 
0

$$$$
Z3229479417-x2149-0AS1
     RDKit          3D

 23 24  0  0  0  0  0  0  0  0999 V2000
  -14.3720   -1.6050   -7.8150 C   0  0  0  0  0  0  0  0  0  0  0  0
  -13.1450   -2.4890   -7.7420 C   0  0  0  0  0  0  0  0  0  0  0  0
  -13.1940   -4.0070   -7.6240 C   0  0  0  0  0  0  0  0  0  0  0  0
  -11.5730   -4.5930   -7.5860 S   0  0  0  0  0  0  0  0  0  0  0  0
  -10.8920   -2.9990   -7.7200 C   0  0  0  0  0  0  0  0  0  0  0  0
   -9.1580   -2.5810   -7.7960 S   0  0  0  0  0  0  0  0  0  0  0  0
   -8.5360   -4.1910   -7.4700 C   0  0  0  0  0  0  0  0  0  0  0  0
   -9.2620   -4.9000   -6.3380 C   0  0  0  0  0  0  0  0  0  0  0  0
   -8.7950   -6.2770   -5.9910 C   0  0  0  0  0  0  0  0  0  0  0  0
   -7.7430   -6.8780   -6.6770 C   0  0  0  0  0  0  0  0  0  0  0  0
   -7.0980   -6.2150   -7.7090 C   0  0  0  0  0  0  0  0  0  0  0  0
   -7.4810   -4.8200   -8.1480 C   0  0  0  0  0  0  0  0  0  0  0  0
   -6.8220   -4.1970   -9.1650 O   0  0  0  0  0  0  0  0  0  0  0  0
  -11.8460   -1.9170   -7.7880 N   0  0  0  0  0  0  0  0  0  0  0  0
  -14.3620   -0.9000   -6.9830 H   0  0  0  0  0  0  0  0  0  0  0  0
  -14.3830   -1.0290   -8.7490 H   0  0  0  0  0  0  0  0  0  0  0  0
  -15.2800   -2.2090   -7.7470 H   0  0  0  0  0  0  0  0  0  0  0  0
  -14.0490   -4.6640   -7.5700 H   0  0  0  0  0  0  0  0  0  0  0  0
  -10.0810   -4.4350   -5.7980 H   0  0  0  0  0  0  0  0  0  0  0  0
   -9.2910   -6.8170   -5.1850 H   0  0  0  0  0  0  0  0  0  0  0  0
   -7.4250   -7.8790   -6.4020 H   0  0  0  0  0  0  0  0  0  0  0  0
   -6.2960   -6.8010   -8.1610 H   0  0  0  0  0  0  0  0  0  0  0  0
   -7.3160   -3.4110   -9.4500 H   0  0  0  0  0  0  0  0  0  0  0  0
  1  2  1  0
  2  3  2  0
  3  4  1  0
  4  5  1  0
  5  6  1  0
  6  7  1  0
  7  8  2  0
  8  9  1  0
  9 10  2  0
 10 11  1  0
 11 12  2  0
 12 13  1  0
  5 14  2  0
 14  2  1  0
 12  7  1  0
  1 15  1  0
  1 16  1  0
  1 17  1  0
  3 18  1  0
  8 19  1  0
  9 20  1  0
 10 21  1  0
 11 22  1  0
 13 23  1  0
A    1
 C1 
A    2
 C2 
A    3
 C3 
A    4
 S1 
A    5
 C4 
A    6
 S2 
A    7
 C5 
A    8
 C6 
A    9
 C7 
A   10
 C8 
A   11
 C9 
A   12
 C10
A   13
 O1 
A   14
 N1 
A   15
 H1 
A   16
 H2 
A   17
 H3 
A   18
 H4 
A   19
 H5 
A   20
 H6 
A   21
 H7 
A   22
 H8 
A   23
 H9 
M  END
>  <ref_pdb>  (57) 
x0147_0A

>  <ref_mols>  (57) 
x2149_0AS1,x1498_0A

>  <original SMILES>  (57) 
[H]Oc1c([H])c([H])c([H])c([H])c1Sc1nc(C([H])([H])[H])c([H])s1

>  <index>  (57) 
9160

>  <∆∆G>  (57) 
-7.454665

>  <comRMSD>  (57) 
0.53156

>  <N_constrained_atoms>  (57) 
14.0

>  <N_unconstrained_atoms>  (57) 
0.0

>  <LE>  (57) 
0.532476

>  <percent_hybrid>  (57) 
50.0

>  <max_hit_Tanimoto>  (57) 
0.162896

>  <largest_ring>  (57) 
6

>  <N_interactions_kept>  (57) 
0.0

>  <N_interactions_lost>  (57) 
1.5

>  <interaction_uniqueness_metric>  (57) 
0.187438

>  <N_HA>  (57) 
14

>  <N_rotatable_bonds>  (57) 
4

>  <N_interactions>  (57) 
3

>  <N_PAINS>  (57) 
0

>  <UFF_Gibbs>  (57) 
94.46194

>  <strain_per_HA>  (57) 
6.747233

>  <ad_hoc_penalty>  (57) 
-29.43775

>  <cluster>  (57) 
5185

>  <ranked>  (57) 
63.0

>  <merger_rank>  (57) 
1

>  <hydroph_interaction:LEU:127>  (57) 
0

>  <hbond:GLY:128>  (57) 
0

>  <hydroph_interaction:ALA:144>  (57) 
1

>  <hbond:GLY:164>  (57) 
0

>  <hbond:HIS:40>  (57) 
0

>  <pistack:HIS:40>  (57) 
0

>  <hydroph_interaction:LEU:125>  (57) 
0

>  <hydroph_interaction:PHE:170>  (57) 
0

>  <hydroph_interaction:HIS:40>  (57) 
0

>  <pication:HIS:40>  (57) 
0

>  <hbond:THR:142>  (57) 
0

>  <hbond:HIS:161>  (57) 
1

>  <hbond:GLY:166>  (57) 
0

>  <hbond:VAL:162>  (57) 
0

>  <hydroph_interaction:ASN:165>  (57) 
0

>  <hbond:ASN:126>  (57) 
0

>  <hbond:ARG:143>  (57) 
1

>  <hbond:GLU:71>  (57) 
0

>  <saltbridge:HIS:161>  (57) 
0

>  <hbond:ALA:144>  (57) 
0

>  <hbond:GLY:145>  (57) 
0

>  <hbond:GLN:146>  (57) 
0

>  <hbond:CYS:147>  (57) 
0

>  <halogenbond:ASN:126>  (57) 
0

>  <saltbridge:HIS:40>  (57) 
0

>  <hbond:LEU:127>  (57) 
0

>  <hbond:THR:130>  (57) 
0

>  <hydroph_interaction:GLU:71>  (57) 
0

>  <hydroph_interaction:THR:130>  (57) 
0

>  <saltbridge:ARG:143>  (57) 
0

>  <saltbridge:GLU:71>  (57) 
0

>  <hbond:GLY:129>  (57) 
0

>  <halogenbond:CYS:147>  (57) 
0

>  <hydroph_interaction:THR:39>  (57) 
0

>  <hbond:ASN:69>  (57) 
0

>  <hydroph_interaction:THR:132>  (57) 
0

>  <hbond:TYR:122>  (57) 
0

>  <hydroph_interaction:PHE:109>  (57) 
0

>  <hydroph_interaction:PHE:140>  (57) 
0

>  <hbond:PRO:141>  (57) 
0

$$$$
Z287034848-x2149-0AS1
     RDKit          3D

 26 27  0  0  0  0  0  0  0  0999 V2000
  -14.1940   -1.3780   -8.0020 C   0  0  0  0  0  0  0  0  0  0  0  0
  -13.0210   -2.3190   -7.8270 C   0  0  0  0  0  0  0  0  0  0  0  0
  -13.2410   -3.8060   -7.7880 C   0  0  0  0  0  0  0  0  0  0  0  0
  -11.7020   -4.7140   -7.5840 S   0  0  0  0  0  0  0  0  0  0  0  0
  -10.7970   -3.1190   -7.5590 C   0  0  0  0  0  0  0  0  0  0  0  0
   -9.3480   -2.9870   -7.4200 N   0  0  0  0  0  0  0  0  0  0  0  0
   -8.7910   -4.2070   -7.2370 C   0  0  0  0  0  0  0  0  0  0  0  0
   -9.4270   -4.9540   -6.1150 C   0  0  0  0  0  0  0  0  0  0  0  0
   -8.9220   -6.3380   -5.7780 C   0  0  0  0  0  0  0  0  0  0  0  0
   -7.8040   -6.7910   -6.6510 C   0  0  0  0  0  0  0  0  0  0  0  0
   -7.2450   -6.0490   -7.6920 C   0  0  0  0  0  0  0  0  0  0  0  0
   -7.7360   -4.7780   -7.9760 C   0  0  0  0  0  0  0  0  0  0  0  0
   -7.1550   -4.0950   -9.0020 C   0  0  0  0  0  0  0  0  0  0  0  0
  -11.6960   -1.9410   -7.6970 N   0  0  0  0  0  0  0  0  0  0  0  0
  -14.2100   -0.6280   -7.2040 H   0  0  0  0  0  0  0  0  0  0  0  0
  -14.1440   -0.8560   -8.9630 H   0  0  0  0  0  0  0  0  0  0  0  0
  -15.1360   -1.9330   -7.9630 H   0  0  0  0  0  0  0  0  0  0  0  0
  -14.2120   -4.3060   -7.8750 H   0  0  0  0  0  0  0  0  0  0  0  0
   -9.1230   -2.4010   -6.6220 H   0  0  0  0  0  0  0  0  0  0  0  0
  -10.2400   -4.4500   -5.5870 H   0  0  0  0  0  0  0  0  0  0  0  0
   -9.2600   -7.0350   -4.9950 H   0  0  0  0  0  0  0  0  0  0  0  0
   -7.3830   -7.7840   -6.4650 H   0  0  0  0  0  0  0  0  0  0  0  0
   -6.4280   -6.4700   -8.2720 H   0  0  0  0  0  0  0  0  0  0  0  0
   -7.7290   -3.1810   -9.1650 H   0  0  0  0  0  0  0  0  0  0  0  0
   -6.1220   -3.8030   -8.9300 H   0  0  0  0  0  0  0  0  0  0  0  0
   -7.2200   -4.7250   -9.8910 H   0  0  0  0  0  0  0  0  0  0  0  0
  1  2  1  0
  2  3  2  0
  3  4  1  0
  4  5  1  0
  5  6  1  0
  6  7  1  0
  7  8  2  0
  8  9  1  0
  9 10  2  0
 10 11  1  0
 11 12  2  0
 12 13  1  0
  5 14  2  0
 14  2  1  0
 12  7  1  0
  1 15  1  0
  1 16  1  0
  1 17  1  0
  3 18  1  0
  6 19  1  0
  8 20  1  0
  9 21  1  0
 10 22  1  0
 11 23  1  0
 13 24  1  0
 13 25  1  0
 13 26  1  0
A    1
 C1 
A    2
 C2 
A    3
 C3 
A    4
 S1 
A    5
 C4 
A    6
 N1 
A    7
 C5 
A    8
 C6 
A    9
 C7 
A   10
 C8 
A   11
 C9 
A   12
 C10
A   13
 C11
A   14
 N2 
A   15
 H1 
A   16
 H2 
A   17
 H3 
A   18
 H4 
A   19
 H5 
A   20
 H6 
A   21
 H7 
A   22
 H8 
A   23
 H9 
A   24
 H10
A   25
 H11
A   26
 H12
M  END
>  <ref_pdb>  (58) 
x0147_0A

>  <ref_mols>  (58) 
x2149_0AS1,x1498_0A

>  <original SMILES>  (58) 
[H]c1sc(N([H])c2c([H])c([H])c([H])c([H])c2C([H])([H])[H])nc1C([H])([H])[H]

>  <index>  (58) 
9173

>  <∆∆G>  (58) 
-6.743422

>  <comRMSD>  (58) 
0.545613

>  <N_constrained_atoms>  (58) 
14.0

>  <N_unconstrained_atoms>  (58) 
0.0

>  <LE>  (58) 
0.481673

>  <percent_hybrid>  (58) 
50.0

>  <max_hit_Tanimoto>  (58) 
0.16476

>  <largest_ring>  (58) 
6

>  <N_interactions_kept>  (58) 
0.0

>  <N_interactions_lost>  (58) 
1.5

>  <interaction_uniqueness_metric>  (58) 
0.176104

>  <N_HA>  (58) 
14

>  <N_rotatable_bonds>  (58) 
4

>  <N_interactions>  (58) 
4

>  <N_PAINS>  (58) 
0

>  <UFF_Gibbs>  (58) 
112.622728

>  <strain_per_HA>  (58) 
8.044423

>  <ad_hoc_penalty>  (58) 
-29.359537

>  <cluster>  (58) 
5172

>  <ranked>  (58) 
65.0

>  <merger_rank>  (58) 
2

>  <hydroph_interaction:LEU:127>  (58) 
0

>  <hbond:GLY:128>  (58) 
0

>  <hydroph_interaction:ALA:144>  (58) 
1

>  <hbond:GLY:164>  (58) 
1

>  <hbond:HIS:40>  (58) 
0

>  <pistack:HIS:40>  (58) 
0

>  <hydroph_interaction:LEU:125>  (58) 
0

>  <hydroph_interaction:PHE:170>  (58) 
0

>  <hydroph_interaction:HIS:40>  (58) 
0

>  <pication:HIS:40>  (58) 
0

>  <hbond:THR:142>  (58) 
0

>  <hbond:HIS:161>  (58) 
0

>  <hbond:GLY:166>  (58) 
1

>  <hbond:VAL:162>  (58) 
0

>  <hydroph_interaction:ASN:165>  (58) 
0

>  <hbond:ASN:126>  (58) 
0

>  <hbond:ARG:143>  (58) 
1

>  <hbond:GLU:71>  (58) 
0

>  <saltbridge:HIS:161>  (58) 
0

>  <hbond:ALA:144>  (58) 
0

>  <hbond:GLY:145>  (58) 
0

>  <hbond:GLN:146>  (58) 
0

>  <hbond:CYS:147>  (58) 
0

>  <halogenbond:ASN:126>  (58) 
0

>  <saltbridge:HIS:40>  (58) 
0

>  <hbond:LEU:127>  (58) 
0

>  <hbond:THR:130>  (58) 
0

>  <hydroph_interaction:GLU:71>  (58) 
0

>  <hydroph_interaction:THR:130>  (58) 
0

>  <saltbridge:ARG:143>  (58) 
0

>  <saltbridge:GLU:71>  (58) 
0

>  <hbond:GLY:129>  (58) 
0

>  <halogenbond:CYS:147>  (58) 
0

>  <hydroph_interaction:THR:39>  (58) 
0

>  <hbond:ASN:69>  (58) 
0

>  <hydroph_interaction:THR:132>  (58) 
0

>  <hbond:TYR:122>  (58) 
0

>  <hydroph_interaction:PHE:109>  (58) 
0

>  <hydroph_interaction:PHE:140>  (58) 
0

>  <hbond:PRO:141>  (58) 
0

$$$$
Z48853893-x2149-0AS1
     RDKit          3D

 23 24  0  0  0  0  0  0  0  0999 V2000
  -13.9570   -1.3320   -7.9770 C   0  0  0  0  0  0  0  0  0  0  0  0
  -12.9100   -2.3720   -7.7090 C   0  0  0  0  0  0  0  0  0  0  0  0
  -13.1690   -3.7180   -7.8970 C   0  0  0  0  0  0  0  0  0  0  0  0
  -11.7320   -4.6820   -7.4950 S   0  0  0  0  0  0  0  0  0  0  0  0
  -10.8790   -3.1600   -7.0880 C   0  0  0  0  0  0  0  0  0  0  0  0
   -9.4880   -3.0770   -6.6090 N   0  0  0  0  0  0  0  0  0  0  0  0
   -8.6170   -4.1280   -7.1230 C   0  0  0  0  0  0  0  0  0  0  0  0
   -7.9840   -3.8930   -8.4630 C   0  0  0  0  0  0  0  0  0  0  0  0
   -7.0820   -4.9500   -9.0490 C   0  0  0  0  0  0  0  0  0  0  0  0
   -6.8540   -6.2040   -8.2450 C   0  0  0  0  0  0  0  0  0  0  0  0
   -7.4880   -6.4460   -6.8910 C   0  0  0  0  0  0  0  0  0  0  0  0
   -8.4040   -5.3140   -6.3620 C   0  0  0  0  0  0  0  0  0  0  0  0
  -11.7000   -1.9810   -7.2720 N   0  0  0  0  0  0  0  0  0  0  0  0
  -14.9450   -1.8010   -8.0390 H   0  0  0  0  0  0  0  0  0  0  0  0
  -13.9850   -0.5910   -7.1690 H   0  0  0  0  0  0  0  0  0  0  0  0
  -13.7550   -0.8050   -8.9110 H   0  0  0  0  0  0  0  0  0  0  0  0
  -14.1180   -4.1140   -8.2410 H   0  0  0  0  0  0  0  0  0  0  0  0
   -9.0860   -2.1560   -6.7250 H   0  0  0  0  0  0  0  0  0  0  0  0
   -8.1980   -2.9570   -8.9820 H   0  0  0  0  0  0  0  0  0  0  0  0
   -6.6030   -4.8370  -10.0210 H   0  0  0  0  0  0  0  0  0  0  0  0
   -6.2000   -6.9710   -8.6660 H   0  0  0  0  0  0  0  0  0  0  0  0
   -7.2720   -7.3830   -6.3720 H   0  0  0  0  0  0  0  0  0  0  0  0
   -8.8960   -5.4160   -5.4000 H   0  0  0  0  0  0  0  0  0  0  0  0
  1  2  1  0
  2  3  2  0
  3  4  1  0
  4  5  1  0
  5  6  1  0
  6  7  1  0
  7  8  2  0
  8  9  1  0
  9 10  2  0
 10 11  1  0
 11 12  2  0
  5 13  2  0
 13  2  1  0
 12  7  1  0
  1 14  1  0
  1 15  1  0
  1 16  1  0
  3 17  1  0
  6 18  1  0
  8 19  1  0
  9 20  1  0
 10 21  1  0
 11 22  1  0
 12 23  1  0
A    1
 C1 
A    2
 C2 
A    3
 C3 
A    4
 S1 
A    5
 C4 
A    6
 N1 
A    7
 C5 
A    8
 C6 
A    9
 C7 
A   10
 C8 
A   11
 C9 
A   12
 C10
A   13
 N2 
A   14
 H1 
A   15
 H2 
A   16
 H3 
A   17
 H4 
A   18
 H5 
A   19
 H6 
A   20
 H7 
A   21
 H8 
A   22
 H9 
A   23
 H10
M  END
>  <ref_pdb>  (59) 
x0147_0A

>  <ref_mols>  (59) 
x2149_0AS1,x1498_0A

>  <original SMILES>  (59) 
[H]c1sc(N([H])c2c([H])c([H])c([H])c([H])c2[H])nc1C([H])([H])[H]

>  <index>  (59) 
9163

>  <∆∆G>  (59) 
-5.841349

>  <comRMSD>  (59) 
0.942225

>  <N_constrained_atoms>  (59) 
8.0

>  <N_unconstrained_atoms>  (59) 
6.0

>  <LE>  (59) 
0.417239

>  <percent_hybrid>  (59) 
15.0

>  <max_hit_Tanimoto>  (59) 
0.201729

>  <largest_ring>  (59) 
6

>  <N_interactions_kept>  (59) 
1.5

>  <N_interactions_lost>  (59) 
0.0

>  <interaction_uniqueness_metric>  (59) 
0.075053

>  <N_HA>  (59) 
13

>  <N_rotatable_bonds>  (59) 
3

>  <N_interactions>  (59) 
2

>  <N_PAINS>  (59) 
0

>  <UFF_Gibbs>  (59) 
66.236211

>  <strain_per_HA>  (59) 
5.095054

>  <ad_hoc_penalty>  (59) 
-29.314479

>  <cluster>  (59) 
5182

>  <ranked>  (59) 
66.0

>  <merger_rank>  (59) 
3

>  <hydroph_interaction:LEU:127>  (59) 
0

>  <hbond:GLY:128>  (59) 
0

>  <hydroph_interaction:ALA:144>  (59) 
0

>  <hbond:GLY:164>  (59) 
1

>  <hbond:HIS:40>  (59) 
0

>  <pistack:HIS:40>  (59) 
0

>  <hydroph_interaction:LEU:125>  (59) 
0

>  <hydroph_interaction:PHE:170>  (59) 
0

>  <hydroph_interaction:HIS:40>  (59) 
0

>  <pication:HIS:40>  (59) 
0

>  <hbond:THR:142>  (59) 
0

>  <hbond:HIS:161>  (59) 
0

>  <hbond:GLY:166>  (59) 
1

>  <hbond:VAL:162>  (59) 
0

>  <hydroph_interaction:ASN:165>  (59) 
0

>  <hbond:ASN:126>  (59) 
0

>  <hbond:ARG:143>  (59) 
0

>  <hbond:GLU:71>  (59) 
0

>  <saltbridge:HIS:161>  (59) 
0

>  <hbond:ALA:144>  (59) 
0

>  <hbond:GLY:145>  (59) 
0

>  <hbond:GLN:146>  (59) 
0

>  <hbond:CYS:147>  (59) 
0

>  <halogenbond:ASN:126>  (59) 
0

>  <saltbridge:HIS:40>  (59) 
0

>  <hbond:LEU:127>  (59) 
0

>  <hbond:THR:130>  (59) 
0

>  <hydroph_interaction:GLU:71>  (59) 
0

>  <hydroph_interaction:THR:130>  (59) 
0

>  <saltbridge:ARG:143>  (59) 
0

>  <saltbridge:GLU:71>  (59) 
0

>  <hbond:GLY:129>  (59) 
0

>  <halogenbond:CYS:147>  (59) 
0

>  <hydroph_interaction:THR:39>  (59) 
0

>  <hbond:ASN:69>  (59) 
0

>  <hydroph_interaction:THR:132>  (59) 
0

>  <hbond:TYR:122>  (59) 
0

>  <hydroph_interaction:PHE:109>  (59) 
0

>  <hydroph_interaction:PHE:140>  (59) 
0

>  <hbond:PRO:141>  (59) 
0

$$$$
Z3656065532-x0771-1AS2
     RDKit          3D

 37 39  0  0  0  0  0  0  0  0999 V2000
  -13.0250   -1.5780   -6.8630 C   0  0  0  0  0  0  0  0  0  0  0  0
  -11.9150   -2.6210   -6.7090 C   0  0  0  0  0  0  0  0  0  0  0  0
  -10.9950   -2.2140   -5.7200 C   0  0  0  0  0  0  0  0  0  0  0  0
  -12.5880   -3.9350   -6.1740 C   0  0  0  0  0  0  0  0  0  0  0  0
  -11.6290   -5.0860   -6.2240 C   0  0  0  0  0  0  0  0  0  0  0  0
  -11.9400   -6.2240   -5.8810 O   0  0  0  0  0  0  0  0  0  0  0  0
  -10.3330   -4.8610   -6.6850 C   0  0  0  0  0  0  0  0  0  0  0  0
   -9.3090   -5.6880   -6.2850 C   0  0  0  0  0  0  0  0  0  0  0  0
   -8.0180   -5.5020   -6.7030 C   0  0  0  0  0  0  0  0  0  0  0  0
   -7.0550   -6.4740   -6.0230 C   0  0  0  0  0  0  0  0  0  0  0  0
   -6.7860   -7.8500   -6.1120 C   0  0  0  0  0  0  0  0  0  0  0  0
   -7.2840   -9.0370   -6.9080 C   0  0  0  0  0  0  0  0  0  0  0  0
   -6.7830  -10.2240   -6.0930 C   0  0  0  0  0  0  0  0  0  0  0  0
   -6.3830   -9.6330   -4.8430 O   0  0  0  0  0  0  0  0  0  0  0  0
   -5.7870   -8.4680   -5.2380 C   0  0  0  0  0  0  0  0  0  0  0  0
   -7.6560   -4.4830   -7.6070 C   0  0  0  0  0  0  0  0  0  0  0  0
   -8.7390   -3.5190   -8.0830 C   0  0  0  0  0  0  0  0  0  0  0  0
  -10.1310   -3.7850   -7.5240 C   0  0  0  0  0  0  0  0  0  0  0  0
  -11.2140   -2.9150   -7.8550 O   0  0  0  0  0  0  0  0  0  0  0  0
  -13.2110   -1.3510   -7.9190 H   0  0  0  0  0  0  0  0  0  0  0  0
  -12.7650   -0.6340   -6.3770 H   0  0  0  0  0  0  0  0  0  0  0  0
  -13.9690   -1.9260   -6.4310 H   0  0  0  0  0  0  0  0  0  0  0  0
  -11.2610   -1.3870   -5.0700 H   0  0  0  0  0  0  0  0  0  0  0  0
  -10.7810   -3.0640   -5.0680 H   0  0  0  0  0  0  0  0  0  0  0  0
  -10.0560   -1.9530   -6.2250 H   0  0  0  0  0  0  0  0  0  0  0  0
  -13.4660   -4.1810   -6.7810 H   0  0  0  0  0  0  0  0  0  0  0  0
  -12.9180   -3.7910   -5.1370 H   0  0  0  0  0  0  0  0  0  0  0  0
   -9.4310   -6.5350   -5.5980 H   0  0  0  0  0  0  0  0  0  0  0  0
   -6.4390   -6.0010   -5.2660 H   0  0  0  0  0  0  0  0  0  0  0  0
   -8.3570   -8.9470   -6.8800 H   0  0  0  0  0  0  0  0  0  0  0  0
   -7.0150   -9.0520   -7.9610 H   0  0  0  0  0  0  0  0  0  0  0  0
   -7.4690  -11.0350   -5.8660 H   0  0  0  0  0  0  0  0  0  0  0  0
   -5.9190  -10.7050   -6.5540 H   0  0  0  0  0  0  0  0  0  0  0  0
   -5.5570   -7.8560   -4.3540 H   0  0  0  0  0  0  0  0  0  0  0  0
   -4.8510   -8.6900   -5.7380 H   0  0  0  0  0  0  0  0  0  0  0  0
   -6.6300   -4.3690   -7.9350 H   0  0  0  0  0  0  0  0  0  0  0  0
   -8.5230   -2.7000   -8.7570 H   0  0  0  0  0  0  0  0  0  0  0  0
  1  2  1  0
  2  3  1  0
  2  4  1  0
  4  5  1  0
  5  6  2  0
  5  7  1  0
  7  8  2  0
  8  9  1  0
  9 10  1  0
 10 11  2  3
 11 12  1  0
 12 13  1  0
 13 14  1  0
 14 15  1  0
  9 16  2  0
 16 17  1  0
 17 18  2  0
 18 19  1  0
 19  2  1  0
 18  7  1  0
 15 11  1  0
  1 20  1  0
  1 21  1  0
  1 22  1  0
  3 23  1  0
  3 24  1  0
  3 25  1  0
  4 26  1  0
  4 27  1  0
  8 28  1  0
 10 29  1  0
 12 30  1  0
 12 31  1  0
 13 32  1  0
 13 33  1  0
 15 34  1  0
 15 35  1  0
 16 36  1  0
 17 37  1  0
A    1
 C1 
A    2
 C2 
A    3
 C3 
A    4
 C4 
A    5
 C5 
A    6
 O1 
A    7
 C6 
A    8
 C7 
A    9
 C8 
A   10
 C9 
A   11
 C10
A   12
 C11
A   13
 C12
A   14
 O2 
A   15
 C13
A   16
 C14
A   17
 C15
A   18
 C16
A   19
 O3 
A   20
 H1 
A   21
 H2 
A   22
 H3 
A   23
 H4 
A   24
 H5 
A   25
 H6 
A   26
 H7 
A   27
 H8 
A   28
 H9 
A   29
 H10
A   30
 H11
A   31
 H12
A   32
 H13
A   33
 H14
A   34
 H15
A   35
 H16
A   36
 H17
A   37
 H18
M  END
>  <ref_pdb>  (60) 
x0147_0A

>  <ref_mols>  (60) 
x0771_1AS2,x1604_0A

>  <original SMILES>  (60) 
[H]C(=C1C([H])([H])OC([H])([H])C1([H])[H])c1c([H])c([H])c2c(c1[H])C(=O)C([H])([H])C(C([H])([H])[H])(C([H])([H])[H])O2

>  <index>  (60) 
13975

>  <∆∆G>  (60) 
-5.896782

>  <comRMSD>  (60) 
0.917835

>  <N_constrained_atoms>  (60) 
19.0

>  <N_unconstrained_atoms>  (60) 
1.0

>  <LE>  (60) 
0.294839

>  <percent_hybrid>  (60) 
23.0

>  <max_hit_Tanimoto>  (60) 
0.351526

>  <largest_ring>  (60) 
6

>  <N_interactions_kept>  (60) 
3.0

>  <N_interactions_lost>  (60) 
0.0

>  <interaction_uniqueness_metric>  (60) 
0.064685

>  <N_HA>  (60) 
19

>  <N_rotatable_bonds>  (60) 
3

>  <N_interactions>  (60) 
1

>  <N_PAINS>  (60) 
0

>  <UFF_Gibbs>  (60) 
134.602594

>  <strain_per_HA>  (60) 
7.08431

>  <ad_hoc_penalty>  (60) 
-29.29482

>  <cluster>  (60) 
3836

>  <ranked>  (60) 
67.0

>  <merger_rank>  (60) 
2

>  <hydroph_interaction:LEU:127>  (60) 
0

>  <hbond:GLY:128>  (60) 
0

>  <hydroph_interaction:ALA:144>  (60) 
0

>  <hbond:GLY:164>  (60) 
0

>  <hbond:HIS:40>  (60) 
0

>  <pistack:HIS:40>  (60) 
0

>  <hydroph_interaction:LEU:125>  (60) 
0

>  <hydroph_interaction:PHE:170>  (60) 
0

>  <hydroph_interaction:HIS:40>  (60) 
0

>  <pication:HIS:40>  (60) 
0

>  <hbond:THR:142>  (60) 
0

>  <hbond:HIS:161>  (60) 
0

>  <hbond:GLY:166>  (60) 
1

>  <hbond:VAL:162>  (60) 
0

>  <hydroph_interaction:ASN:165>  (60) 
0

>  <hbond:ASN:126>  (60) 
0

>  <hbond:ARG:143>  (60) 
0

>  <hbond:GLU:71>  (60) 
0

>  <saltbridge:HIS:161>  (60) 
0

>  <hbond:ALA:144>  (60) 
0

>  <hbond:GLY:145>  (60) 
0

>  <hbond:GLN:146>  (60) 
0

>  <hbond:CYS:147>  (60) 
0

>  <halogenbond:ASN:126>  (60) 
0

>  <saltbridge:HIS:40>  (60) 
0

>  <hbond:LEU:127>  (60) 
0

>  <hbond:THR:130>  (60) 
0

>  <hydroph_interaction:GLU:71>  (60) 
0

>  <hydroph_interaction:THR:130>  (60) 
0

>  <saltbridge:ARG:143>  (60) 
0

>  <saltbridge:GLU:71>  (60) 
0

>  <hbond:GLY:129>  (60) 
0

>  <halogenbond:CYS:147>  (60) 
0

>  <hydroph_interaction:THR:39>  (60) 
0

>  <hbond:ASN:69>  (60) 
0

>  <hydroph_interaction:THR:132>  (60) 
0

>  <hbond:TYR:122>  (60) 
0

>  <hydroph_interaction:PHE:109>  (60) 
0

>  <hydroph_interaction:PHE:140>  (60) 
0

>  <hbond:PRO:141>  (60) 
0

$$$$
Z4276404715-x1919-0A
     RDKit          3D

 48 49  0  0  0  0  0  0  0  0999 V2000
   -5.4280    0.2950   -1.9690 C   0  0  0  0  0  0  0  0  0  0  0  0
   -6.1230    0.2140   -0.6200 C   0  0  0  0  0  0  0  0  0  0  0  0
   -7.2480   -0.8250   -0.6280 C   0  0  0  0  0  0  0  0  0  0  0  0
   -6.6910   -2.1280   -0.6730 O   0  0  0  0  0  0  0  0  0  0  0  0
   -7.5980   -3.1270   -1.1410 C   0  0  0  0  0  0  0  0  0  0  0  0
   -6.9830   -4.5070   -1.4360 C   0  0  0  0  0  0  0  0  0  0  0  0
   -7.2770   -4.8650   -3.1530 S   0  0  0  0  0  6  0  0  0  0  0  0
   -6.2440   -4.1890   -3.8960 O   0  0  0  0  0  0  0  0  0  0  0  0
   -8.6690   -4.6190   -3.4520 O   0  0  0  0  0  0  0  0  0  0  0  0
   -7.0440   -6.5360   -3.2640 N   0  0  0  0  0  0  0  0  0  0  0  0
   -5.6880   -7.1150   -3.3220 C   0  0  0  0  0  0  0  0  0  0  0  0
   -5.2990   -7.6430   -1.9600 C   0  0  0  0  0  0  0  0  0  0  0  0
   -6.1300   -8.4530   -1.1920 C   0  0  0  0  0  0  0  0  0  0  0  0
   -5.8310   -8.9560    0.0660 C   0  0  0  0  0  0  0  0  0  0  0  0
   -4.5970   -8.6230    0.6150 C   0  0  0  0  0  0  0  0  0  0  0  0
   -3.7310   -7.8030   -0.1500 C   0  0  0  0  0  0  0  0  0  0  0  0
   -4.0670   -7.3200   -1.4200 C   0  0  0  0  0  0  0  0  0  0  0  0
   -2.4710   -7.5580    0.5890 C   0  0  0  0  0  0  0  0  0  0  0  0
   -2.8820   -8.1420    1.9200 C   0  0  0  0  0  0  0  0  0  0  0  0
   -4.0640   -8.9870    1.8480 N   0  0  0  0  0  0  0  0  0  0  0  0
   -4.8440   -9.0210    2.9400 C   0  0  0  0  0  0  0  0  0  0  0  0
   -5.7920  -10.0250    2.7950 C   0  0  0  0  0  0  0  0  0  0  0  0
   -5.1770    1.3310   -2.1990 H   0  0  0  0  0  0  0  0  0  0  0  0
   -4.5060   -0.2780   -1.9520 H   0  0  0  0  0  0  0  0  0  0  0  0
   -6.0750   -0.0770   -2.7670 H   0  0  0  0  0  0  0  0  0  0  0  0
   -5.3750    0.0070    0.1500 H   0  0  0  0  0  0  0  0  0  0  0  0
   -6.5620    1.1850   -0.3610 H   0  0  0  0  0  0  0  0  0  0  0  0
   -7.8620   -0.6300   -1.5160 H   0  0  0  0  0  0  0  0  0  0  0  0
   -7.9150   -0.7160    0.2360 H   0  0  0  0  0  0  0  0  0  0  0  0
   -8.4000   -3.2100   -0.3990 H   0  0  0  0  0  0  0  0  0  0  0  0
   -8.0860   -2.8130   -2.0710 H   0  0  0  0  0  0  0  0  0  0  0  0
   -5.9040   -4.5400   -1.2660 H   0  0  0  0  0  0  0  0  0  0  0  0
   -7.4500   -5.2840   -0.8180 H   0  0  0  0  0  0  0  0  0  0  0  0
   -7.7250   -6.9490   -3.9060 H   0  0  0  0  0  0  0  0  0  0  0  0
   -4.9580   -6.3550   -3.6290 H   0  0  0  0  0  0  0  0  0  0  0  0
   -5.6540   -7.9240   -4.0600 H   0  0  0  0  0  0  0  0  0  0  0  0
   -7.1140   -8.7300   -1.5940 H   0  0  0  0  0  0  0  0  0  0  0  0
   -6.5410   -9.5830    0.5970 H   0  0  0  0  0  0  0  0  0  0  0  0
   -3.4340   -6.7030   -2.0230 H   0  0  0  0  0  0  0  0  0  0  0  0
   -2.2490   -6.5040    0.6620 H   0  0  0  0  0  0  0  0  0  0  0  0
   -1.6410   -8.1150    0.1650 H   0  0  0  0  0  0  0  0  0  0  0  0
   -2.1130   -8.6940    2.4520 H   0  0  0  0  0  0  0  0  0  0  0  0
   -3.1300   -7.3070    2.5860 H   0  0  0  0  0  0  0  0  0  0  0  0
   -4.2400   -9.2500    3.8220 H   0  0  0  0  0  0  0  0  0  0  0  0
   -5.3240   -8.0540    3.1330 H   0  0  0  0  0  0  0  0  0  0  0  0
   -5.8970  -10.5840    3.7320 H   0  0  0  0  0  0  0  0  0  0  0  0
   -6.7730   -9.6220    2.5290 H   0  0  0  0  0  0  0  0  0  0  0  0
   -5.4970  -10.7290    2.0100 H   0  0  0  0  0  0  0  0  0  0  0  0
  1  2  1  0
  2  3  1  0
  3  4  1  0
  4  5  1  0
  5  6  1  0
  6  7  1  0
  7  8  2  0
  7  9  2  0
  7 10  1  0
 10 11  1  0
 11 12  1  0
 12 13  2  0
 13 14  1  0
 14 15  2  0
 15 16  1  0
 16 17  2  0
 16 18  1  0
 18 19  1  0
 19 20  1  0
 20 21  1  0
 21 22  1  0
 17 12  1  0
 20 15  1  0
  1 23  1  0
  1 24  1  0
  1 25  1  0
  2 26  1  0
  2 27  1  0
  3 28  1  0
  3 29  1  0
  5 30  1  0
  5 31  1  0
  6 32  1  0
  6 33  1  0
 10 34  1  0
 11 35  1  0
 11 36  1  0
 13 37  1  0
 14 38  1  0
 17 39  1  0
 18 40  1  0
 18 41  1  0
 19 42  1  0
 19 43  1  0
 21 44  1  0
 21 45  1  0
 22 46  1  0
 22 47  1  0
 22 48  1  0
A    1
 C1 
A    2
 C2 
A    3
 C3 
A    4
 O1 
A    5
 C4 
A    6
 C5 
A    7
 S1 
A    8
 O2 
A    9
 O3 
A   10
 N1 
A   11
 C6 
A   12
 C7 
A   13
 C8 
A   14
 C9 
A   15
 C10
A   16
 C11
A   17
 C12
A   18
 C13
A   19
 C14
A   20
 N2 
A   21
 C15
A   22
 C16
A   23
 H1 
A   24
 H2 
A   25
 H3 
A   26
 H4 
A   27
 H5 
A   28
 H6 
A   29
 H7 
A   30
 H8 
A   31
 H9 
A   32
 H10
A   33
 H11
A   34
 H12
A   35
 H13
A   36
 H14
A   37
 H15
A   38
 H16
A   39
 H17
A   40
 H18
A   41
 H19
A   42
 H20
A   43
 H21
A   44
 H22
A   45
 H23
A   46
 H24
A   47
 H25
A   48
 H26
M  END
>  <ref_pdb>  (61) 
x0147_0A

>  <ref_mols>  (61) 
x1919_0A,x1247_0AS4

>  <original SMILES>  (61) 
[H]c1c([H])c(C([H])([H])N([H])S(=O)(=O)C([H])([H])C([H])([H])OC([H])([H])C([H])([H])C([H])([H])[H])c([H])c2c1N(C([H])([H])C([H])([H])[H])C([H])([H])C2([H])[H]

>  <index>  (61) 
4737

>  <∆∆G>  (61) 
-8.31699

>  <comRMSD>  (61) 
0.459639

>  <N_constrained_atoms>  (61) 
24.0

>  <N_unconstrained_atoms>  (61) 
0.0

>  <LE>  (61) 
0.346541

>  <percent_hybrid>  (61) 
20.0

>  <max_hit_Tanimoto>  (61) 
0.382315

>  <largest_ring>  (61) 
6

>  <N_interactions_kept>  (61) 
3.0

>  <N_interactions_lost>  (61) 
3.5

>  <interaction_uniqueness_metric>  (61) 
0.126081

>  <N_HA>  (61) 
22

>  <N_rotatable_bonds>  (61) 
11

>  <N_interactions>  (61) 
9

>  <N_PAINS>  (61) 
0

>  <UFF_Gibbs>  (61) 
92.653006

>  <strain_per_HA>  (61) 
4.211481

>  <ad_hoc_penalty>  (61) 
-29.277406

>  <cluster>  (61) 
80

>  <ranked>  (61) 
68.0

>  <merger_rank>  (61) 
1

>  <hydroph_interaction:LEU:127>  (61) 
3

>  <hbond:GLY:128>  (61) 
1

>  <hydroph_interaction:ALA:144>  (61) 
0

>  <hbond:GLY:164>  (61) 
1

>  <hbond:HIS:40>  (61) 
0

>  <pistack:HIS:40>  (61) 
1

>  <hydroph_interaction:LEU:125>  (61) 
1

>  <hydroph_interaction:PHE:170>  (61) 
1

>  <hydroph_interaction:HIS:40>  (61) 
1

>  <pication:HIS:40>  (61) 
0

>  <hbond:THR:142>  (61) 
0

>  <hbond:HIS:161>  (61) 
0

>  <hbond:GLY:166>  (61) 
0

>  <hbond:VAL:162>  (61) 
0

>  <hydroph_interaction:ASN:165>  (61) 
0

>  <hbond:ASN:126>  (61) 
0

>  <hbond:ARG:143>  (61) 
0

>  <hbond:GLU:71>  (61) 
0

>  <saltbridge:HIS:161>  (61) 
0

>  <hbond:ALA:144>  (61) 
0

>  <hbond:GLY:145>  (61) 
0

>  <hbond:GLN:146>  (61) 
0

>  <hbond:CYS:147>  (61) 
0

>  <halogenbond:ASN:126>  (61) 
0

>  <saltbridge:HIS:40>  (61) 
0

>  <hbond:LEU:127>  (61) 
0

>  <hbond:THR:130>  (61) 
0

>  <hydroph_interaction:GLU:71>  (61) 
0

>  <hydroph_interaction:THR:130>  (61) 
0

>  <saltbridge:ARG:143>  (61) 
0

>  <saltbridge:GLU:71>  (61) 
0

>  <hbond:GLY:129>  (61) 
0

>  <halogenbond:CYS:147>  (61) 
0

>  <hydroph_interaction:THR:39>  (61) 
0

>  <hbond:ASN:69>  (61) 
0

>  <hydroph_interaction:THR:132>  (61) 
0

>  <hbond:TYR:122>  (61) 
0

>  <hydroph_interaction:PHE:109>  (61) 
0

>  <hydroph_interaction:PHE:140>  (61) 
0

>  <hbond:PRO:141>  (61) 
0

$$$$
Z1921846585-x1071-0A
     RDKit          3D

 38 39  0  0  0  0  0  0  0  0999 V2000
   -5.7500   -0.1630   -2.4210 C   0  0  0  0  0  0  0  0  0  0  0  0
   -6.8150   -0.6720   -1.1080 S   0  0  0  0  0  6  0  0  0  0  0  0
   -5.9490   -0.9310   -0.0110 O   0  0  0  0  0  0  0  0  0  0  0  0
   -7.9090    0.2590   -0.9650 O   0  0  0  0  0  0  0  0  0  0  0  0
   -7.5430   -2.2490   -1.7460 C   0  0  0  0  0  0  0  0  0  0  0  0
   -6.6990   -3.2660   -2.2330 C   0  0  0  0  0  0  0  0  0  0  0  0
   -7.2990   -4.4690   -2.6640 C   0  0  0  0  0  0  0  0  0  0  0  0
   -7.5320   -4.6420   -4.0410 C   0  0  0  0  0  0  0  0  0  0  0  0
   -6.8190   -4.1440   -4.8790 O   0  0  0  0  0  0  0  0  0  0  0  0
   -8.5180   -5.3350   -4.3180 O   0  0  0  0  0  0  0  0  0  0  0  0
   -9.2930   -4.9770   -5.4160 C   0  0  0  0  0  0  0  0  0  0  0  0
   -8.6000   -4.8030   -6.6320 C   0  0  0  0  0  0  0  0  0  0  0  0
   -8.6510   -3.6180   -7.5460 C   0  0  0  0  0  0  0  0  0  0  0  0
   -7.9110   -3.6170   -8.6840 N   0  0  0  0  0  0  0  0  0  0  0  0
   -7.2370   -4.7910   -8.7380 N   0  0  0  0  0  0  0  0  0  0  0  0
   -7.5100   -5.8520   -7.4370 S   0  0  0  0  0  0  0  0  0  0  0  0
   -6.5940   -5.5230   -2.0670 C   0  0  0  0  0  0  0  0  0  0  0  0
   -5.5390   -6.2790   -2.7710 C   0  0  0  0  0  0  0  0  0  0  0  0
   -4.7930   -7.3080   -2.2820 C   0  0  0  0  0  0  0  0  0  0  0  0
   -5.0560   -7.7060   -0.9400 C   0  0  0  0  0  0  0  0  0  0  0  0
   -6.1430   -6.9820   -0.1280 C   0  0  0  0  0  0  0  0  0  0  0  0
   -6.8470   -5.9290   -0.7500 C   0  0  0  0  0  0  0  0  0  0  0  0
   -5.4450   -1.0150   -3.0360 H   0  0  0  0  0  0  0  0  0  0  0  0
   -4.8640    0.3370   -2.0160 H   0  0  0  0  0  0  0  0  0  0  0  0
   -6.3130    0.5240   -3.0500 H   0  0  0  0  0  0  0  0  0  0  0  0
   -8.2240   -1.9460   -2.5470 H   0  0  0  0  0  0  0  0  0  0  0  0
   -8.1610   -2.6480   -0.9340 H   0  0  0  0  0  0  0  0  0  0  0  0
   -5.9510   -3.5150   -1.4740 H   0  0  0  0  0  0  0  0  0  0  0  0
   -6.1190   -2.8540   -3.0700 H   0  0  0  0  0  0  0  0  0  0  0  0
   -8.2960   -4.4950   -2.2090 H   0  0  0  0  0  0  0  0  0  0  0  0
   -9.8310   -4.0430   -5.2110 H   0  0  0  0  0  0  0  0  0  0  0  0
  -10.0660   -5.7380   -5.5690 H   0  0  0  0  0  0  0  0  0  0  0  0
   -9.2980   -2.7800   -7.2520 H   0  0  0  0  0  0  0  0  0  0  0  0
   -5.3190   -5.9890   -3.8050 H   0  0  0  0  0  0  0  0  0  0  0  0
   -4.0180   -7.8560   -2.8080 H   0  0  0  0  0  0  0  0  0  0  0  0
   -4.4480   -8.5320   -0.5560 H   0  0  0  0  0  0  0  0  0  0  0  0
   -6.3080   -7.3280    0.8980 H   0  0  0  0  0  0  0  0  0  0  0  0
   -7.6160   -5.4190   -0.1650 H   0  0  0  0  0  0  0  0  0  0  0  0
  1  2  1  0
  2  3  2  0
  2  4  2  0
  2  5  1  0
  5  6  1  0
  6  7  1  0
  7  8  1  0
  8  9  2  0
  8 10  1  0
 10 11  1  0
 11 12  1  0
 12 13  2  0
 13 14  1  0
 14 15  2  0
 15 16  1  0
  7 17  1  0
 17 18  2  0
 18 19  1  0
 19 20  2  0
 20 21  1  0
 21 22  2  0
 16 12  1  0
 22 17  1  0
  1 23  1  0
  1 24  1  0
  1 25  1  0
  5 26  1  0
  5 27  1  0
  6 28  1  0
  6 29  1  0
  7 30  1  0
 11 31  1  0
 11 32  1  0
 13 33  1  0
 18 34  1  0
 19 35  1  0
 20 36  1  0
 21 37  1  0
 22 38  1  0
A    1
 C1 
A    2
 S1 
A    3
 O1 
A    4
 O2 
A    5
 C2 
A    6
 C3 
A    7
 C4 
A    8
 C5 
A    9
 O3 
A   10
 O4 
A   11
 C6 
A   12
 C7 
A   13
 C8 
A   14
 N1 
A   15
 N2 
A   16
 S2 
A   17
 C9 
A   18
 C10
A   19
 C11
A   20
 C12
A   21
 C13
A   22
 C14
A   23
 H1 
A   24
 H2 
A   25
 H3 
A   26
 H4 
A   27
 H5 
A   28
 H6 
A   29
 H7 
A   30
 H8 
A   31
 H9 
A   32
 H10
A   33
 H11
A   34
 H12
A   35
 H13
A   36
 H14
A   37
 H15
A   38
 H16
M  END
>  <ref_pdb>  (62) 
x0147_0A

>  <ref_mols>  (62) 
x1071_0A,x0789_0AS1

>  <original SMILES>  (62) 
[H]c1nnsc1C([H])([H])OC(=O)C([H])(c1c([H])c([H])c([H])c([H])c1[H])C([H])([H])C([H])([H])S(=O)(=O)C([H])([H])[H]

>  <index>  (62) 
12066

>  <∆∆G>  (62) 
-8.775943

>  <comRMSD>  (62) 
0.492124

>  <N_constrained_atoms>  (62) 
20.0

>  <N_unconstrained_atoms>  (62) 
2.0

>  <LE>  (62) 
0.398907

>  <percent_hybrid>  (62) 
30.0

>  <max_hit_Tanimoto>  (62) 
0.092664

>  <largest_ring>  (62) 
6

>  <N_interactions_kept>  (62) 
1.0

>  <N_interactions_lost>  (62) 
1.0

>  <interaction_uniqueness_metric>  (62) 
0.036737

>  <N_HA>  (62) 
22

>  <N_rotatable_bonds>  (62) 
8

>  <N_interactions>  (62) 
3

>  <N_PAINS>  (62) 
0

>  <UFF_Gibbs>  (62) 
131.414932

>  <strain_per_HA>  (62) 
5.973379

>  <ad_hoc_penalty>  (62) 
-29.233743

>  <cluster>  (62) 
4371

>  <ranked>  (62) 
69.0

>  <merger_rank>  (62) 
3

>  <hydroph_interaction:LEU:127>  (62) 
1

>  <hbond:GLY:128>  (62) 
0

>  <hydroph_interaction:ALA:144>  (62) 
0

>  <hbond:GLY:164>  (62) 
1

>  <hbond:HIS:40>  (62) 
0

>  <pistack:HIS:40>  (62) 
1

>  <hydroph_interaction:LEU:125>  (62) 
0

>  <hydroph_interaction:PHE:170>  (62) 
0

>  <hydroph_interaction:HIS:40>  (62) 
0

>  <pication:HIS:40>  (62) 
0

>  <hbond:THR:142>  (62) 
0

>  <hbond:HIS:161>  (62) 
0

>  <hbond:GLY:166>  (62) 
0

>  <hbond:VAL:162>  (62) 
0

>  <hydroph_interaction:ASN:165>  (62) 
0

>  <hbond:ASN:126>  (62) 
0

>  <hbond:ARG:143>  (62) 
0

>  <hbond:GLU:71>  (62) 
0

>  <saltbridge:HIS:161>  (62) 
0

>  <hbond:ALA:144>  (62) 
0

>  <hbond:GLY:145>  (62) 
0

>  <hbond:GLN:146>  (62) 
0

>  <hbond:CYS:147>  (62) 
0

>  <halogenbond:ASN:126>  (62) 
0

>  <saltbridge:HIS:40>  (62) 
0

>  <hbond:LEU:127>  (62) 
0

>  <hbond:THR:130>  (62) 
0

>  <hydroph_interaction:GLU:71>  (62) 
0

>  <hydroph_interaction:THR:130>  (62) 
0

>  <saltbridge:ARG:143>  (62) 
0

>  <saltbridge:GLU:71>  (62) 
0

>  <hbond:GLY:129>  (62) 
0

>  <halogenbond:CYS:147>  (62) 
0

>  <hydroph_interaction:THR:39>  (62) 
0

>  <hbond:ASN:69>  (62) 
0

>  <hydroph_interaction:THR:132>  (62) 
0

>  <hbond:TYR:122>  (62) 
0

>  <hydroph_interaction:PHE:109>  (62) 
0

>  <hydroph_interaction:PHE:140>  (62) 
0

>  <hbond:PRO:141>  (62) 
0

$$$$
Z2518200846-x1071-0AS4
     RDKit          3D

 38 39  0  0  0  0  0  0  0  0999 V2000
   -6.5350   -3.4640   -2.5490 N   0  0  0  0  0  0  0  0  0  0  0  0
   -6.8170   -4.7800   -3.1260 C   0  0  0  0  0  0  0  0  0  0  0  0
   -7.4400   -5.0260   -4.2390 N   0  0  0  0  0  0  0  0  0  0  0  0
   -7.6360   -6.4180   -4.7120 C   0  0  0  0  0  0  0  0  0  0  0  0
   -8.6050   -6.4740   -5.9100 C   0  0  0  0  0  0  0  0  0  0  0  0
   -8.4710   -5.2610   -6.8460 C   0  0  0  0  0  0  0  0  0  0  0  0
   -9.3460   -4.0610   -6.5650 C   0  0  0  0  0  0  0  0  0  0  0  0
   -9.2170   -2.8290   -7.4830 C   0  0  0  0  0  0  0  0  0  0  0  0
   -8.1940   -2.9400   -8.6130 C   0  0  0  0  0  0  0  0  0  0  0  0
   -7.3640   -4.1980   -8.8210 C   0  0  0  0  0  0  0  0  0  0  0  0
   -7.4650   -5.2990   -8.0270 C   0  0  0  0  0  0  0  0  0  0  0  0
   -6.4610   -6.6110   -8.4290 Cl  0  0  0  0  0  0  0  0  0  0  0  0
   -6.3320   -5.7940   -2.3140 N   0  0  0  0  0  0  0  0  0  0  0  0
   -6.9890   -5.9930   -1.0090 C   0  0  0  0  0  0  0  0  0  0  0  0
   -6.5030   -7.2710   -0.3080 C   0  0  0  0  0  0  0  0  0  0  0  0
   -5.1180   -7.2690   -0.5210 C   0  0  0  0  0  0  0  0  0  0  0  0
   -4.6680   -7.3660   -1.9730 C   0  0  0  0  0  0  0  0  0  0  0  0
   -5.8390   -6.9370   -2.8550 C   0  0  0  0  0  0  0  0  0  0  0  0
   -7.3420   -2.9960   -2.1400 H   0  0  0  0  0  0  0  0  0  0  0  0
   -5.8510   -3.5690   -1.8010 H   0  0  0  0  0  0  0  0  0  0  0  0
   -6.6400   -6.8190   -4.9380 H   0  0  0  0  0  0  0  0  0  0  0  0
   -8.0350   -7.0480   -3.9110 H   0  0  0  0  0  0  0  0  0  0  0  0
   -8.4260   -7.3910   -6.4800 H   0  0  0  0  0  0  0  0  0  0  0  0
   -9.6290   -6.5360   -5.5310 H   0  0  0  0  0  0  0  0  0  0  0  0
  -10.0520   -4.0550   -5.7300 H   0  0  0  0  0  0  0  0  0  0  0  0
   -9.8230   -1.9340   -7.3240 H   0  0  0  0  0  0  0  0  0  0  0  0
   -8.0410   -2.1050   -9.2940 H   0  0  0  0  0  0  0  0  0  0  0  0
   -6.6500   -4.2320   -9.6470 H   0  0  0  0  0  0  0  0  0  0  0  0
   -8.0660   -6.0650   -1.1890 H   0  0  0  0  0  0  0  0  0  0  0  0
   -6.8160   -5.1240   -0.3790 H   0  0  0  0  0  0  0  0  0  0  0  0
   -6.9640   -8.1700   -0.7070 H   0  0  0  0  0  0  0  0  0  0  0  0
   -6.8760   -7.3030    0.7120 H   0  0  0  0  0  0  0  0  0  0  0  0
   -4.7560   -6.3220   -0.1110 H   0  0  0  0  0  0  0  0  0  0  0  0
   -4.5620   -8.0340    0.0350 H   0  0  0  0  0  0  0  0  0  0  0  0
   -4.4520   -8.4190   -2.1660 H   0  0  0  0  0  0  0  0  0  0  0  0
   -3.7370   -6.8530   -2.1920 H   0  0  0  0  0  0  0  0  0  0  0  0
   -5.5570   -6.6710   -3.8710 H   0  0  0  0  0  0  0  0  0  0  0  0
   -6.6630   -7.6140   -3.0290 H   0  0  0  0  0  0  0  0  0  0  0  0
  1  2  1  0
  2  3  2  3
  3  4  1  0
  4  5  1  0
  5  6  1  0
  6  7  2  0
  7  8  1  0
  8  9  2  0
  9 10  1  0
 10 11  2  0
 11 12  1  0
  2 13  1  0
 13 14  1  0
 14 15  1  0
 15 16  1  0
 16 17  1  0
 17 18  1  0
 11  6  1  0
 18 13  1  0
  1 19  1  0
  1 20  1  0
  4 21  1  0
  4 22  1  0
  5 23  1  0
  5 24  1  0
  7 25  1  0
  8 26  1  0
  9 27  1  0
 10 28  1  0
 14 29  1  0
 14 30  1  0
 15 31  1  0
 15 32  1  0
 16 33  1  0
 16 34  1  0
 17 35  1  0
 17 36  1  0
 18 37  1  0
 18 38  1  0
A    1
 N1 
A    2
 C1 
A    3
 N2 
A    4
 C2 
A    5
 C3 
A    6
 C4 
A    7
 C5 
A    8
 C6 
A    9
 C7 
A   10
 C8 
A   11
 C9 
A   12
CL1 
A   13
 N3 
A   14
 C10
A   15
 C11
A   16
 C12
A   17
 C13
A   18
 C14
A   19
 H1 
A   20
 H2 
A   21
 H3 
A   22
 H4 
A   23
 H5 
A   24
 H6 
A   25
 H7 
A   26
 H8 
A   27
 H9 
A   28
 H10
A   29
 H11
A   30
 H12
A   31
 H13
A   32
 H14
A   33
 H15
A   34
 H16
A   35
 H17
A   36
 H18
A   37
 H19
A   38
 H20
M  END
>  <ref_pdb>  (63) 
x0147_0A

>  <ref_mols>  (63) 
x1071_0AS4,x0980_0BS5

>  <original SMILES>  (63) 
[H]c1c([H])c([H])c(C([H])([H])C([H])([H])N=C(N([H])[H])N2C([H])([H])C([H])([H])C([H])([H])C([H])([H])C2([H])[H])c(Cl)c1[H]

>  <index>  (63) 
10503

>  <∆∆G>  (63) 
-4.430221

>  <comRMSD>  (63) 
0.626466

>  <N_constrained_atoms>  (63) 
15.0

>  <N_unconstrained_atoms>  (63) 
3.0

>  <LE>  (63) 
0.246123

>  <percent_hybrid>  (63) 
40.0

>  <max_hit_Tanimoto>  (63) 
0.146907

>  <largest_ring>  (63) 
6

>  <N_interactions_kept>  (63) 
0.5

>  <N_interactions_lost>  (63) 
1.0

>  <interaction_uniqueness_metric>  (63) 
0.143834

>  <N_HA>  (63) 
18

>  <N_rotatable_bonds>  (63) 
3

>  <N_interactions>  (63) 
6

>  <N_PAINS>  (63) 
0

>  <UFF_Gibbs>  (63) 
247.146451

>  <strain_per_HA>  (63) 
13.730282

>  <ad_hoc_penalty>  (63) 
-29.194408

>  <cluster>  (63) 
4778

>  <ranked>  (63) 
70.0

>  <merger_rank>  (63) 
1

>  <hydroph_interaction:LEU:127>  (63) 
0

>  <hbond:GLY:128>  (63) 
1

>  <hydroph_interaction:ALA:144>  (63) 
1

>  <hbond:GLY:164>  (63) 
3

>  <hbond:HIS:40>  (63) 
0

>  <pistack:HIS:40>  (63) 
0

>  <hydroph_interaction:LEU:125>  (63) 
0

>  <hydroph_interaction:PHE:170>  (63) 
0

>  <hydroph_interaction:HIS:40>  (63) 
0

>  <pication:HIS:40>  (63) 
0

>  <hbond:THR:142>  (63) 
0

>  <hbond:HIS:161>  (63) 
0

>  <hbond:GLY:166>  (63) 
0

>  <hbond:VAL:162>  (63) 
0

>  <hydroph_interaction:ASN:165>  (63) 
0

>  <hbond:ASN:126>  (63) 
0

>  <hbond:ARG:143>  (63) 
0

>  <hbond:GLU:71>  (63) 
0

>  <saltbridge:HIS:161>  (63) 
0

>  <hbond:ALA:144>  (63) 
0

>  <hbond:GLY:145>  (63) 
0

>  <hbond:GLN:146>  (63) 
0

>  <hbond:CYS:147>  (63) 
0

>  <halogenbond:ASN:126>  (63) 
0

>  <saltbridge:HIS:40>  (63) 
0

>  <hbond:LEU:127>  (63) 
0

>  <hbond:THR:130>  (63) 
0

>  <hydroph_interaction:GLU:71>  (63) 
0

>  <hydroph_interaction:THR:130>  (63) 
0

>  <saltbridge:ARG:143>  (63) 
0

>  <saltbridge:GLU:71>  (63) 
0

>  <hbond:GLY:129>  (63) 
0

>  <halogenbond:CYS:147>  (63) 
1

>  <hydroph_interaction:THR:39>  (63) 
0

>  <hbond:ASN:69>  (63) 
0

>  <hydroph_interaction:THR:132>  (63) 
0

>  <hbond:TYR:122>  (63) 
0

>  <hydroph_interaction:PHE:109>  (63) 
0

>  <hydroph_interaction:PHE:140>  (63) 
0

>  <hbond:PRO:141>  (63) 
0

$$$$
Z4913460285-x1071-0AS5
     RDKit          3D

 27 27  0  0  0  0  0  0  0  0999 V2000
   -4.5990   -8.4770   -1.4290 C   0  0  0  0  0  0  0  0  0  0  0  0
   -5.5360   -7.3150   -1.2550 C   0  0  0  0  0  0  0  0  0  0  0  0
   -5.4790   -6.0250   -2.0560 C   0  0  0  0  0  0  0  0  0  0  0  0
   -6.5600   -5.1370   -1.5870 C   0  0  0  0  0  0  0  0  0  0  0  0
   -6.7560   -3.7660   -2.1870 C   0  0  0  0  0  0  0  0  0  0  0  0
   -6.4010   -3.4180   -3.3250 O   0  0  0  0  0  0  0  0  0  0  0  0
   -7.4370   -2.9640   -1.1630 N   0  0  0  0  0  0  0  0  0  0  0  0
   -7.9360   -1.6650   -1.6550 C   0  0  0  0  0  0  0  0  0  0  0  0
   -6.7820   -0.4130   -1.1210 P   0  0  0  0  0  5  0  0  0  0  0  0
   -7.7850    1.0510   -1.0360 C   0  0  0  0  0  0  0  0  0  0  0  0
   -5.6080   -0.1270   -2.4250 C   0  0  0  0  0  0  0  0  0  0  0  0
   -6.1400   -0.7080    0.1880 O   0  0  0  0  0  0  0  0  0  0  0  0
   -7.3500   -5.7640   -0.5130 N   0  0  0  0  0  0  0  0  0  0  0  0
   -6.8550   -7.2900   -0.0720 S   0  0  0  0  0  0  0  0  0  0  0  0
   -4.5320   -8.7260   -2.4930 H   0  0  0  0  0  0  0  0  0  0  0  0
   -4.9720   -9.3660   -0.9100 H   0  0  0  0  0  0  0  0  0  0  0  0
   -3.6090   -8.2490   -1.0170 H   0  0  0  0  0  0  0  0  0  0  0  0
   -4.7790   -5.7610   -2.8430 H   0  0  0  0  0  0  0  0  0  0  0  0
   -7.0960   -3.0460   -0.2110 H   0  0  0  0  0  0  0  0  0  0  0  0
   -8.0010   -1.7100   -2.7300 H   0  0  0  0  0  0  0  0  0  0  0  0
   -8.9260   -1.3910   -1.3120 H   0  0  0  0  0  0  0  0  0  0  0  0
   -7.1660    1.9450   -1.0410 H   0  0  0  0  0  0  0  0  0  0  0  0
   -8.4330    1.1240   -1.9140 H   0  0  0  0  0  0  0  0  0  0  0  0
   -8.3900    1.0550   -0.1300 H   0  0  0  0  0  0  0  0  0  0  0  0
   -4.6530    0.1750   -2.0110 H   0  0  0  0  0  0  0  0  0  0  0  0
   -5.9550    0.6600   -3.0830 H   0  0  0  0  0  0  0  0  0  0  0  0
   -5.4530   -1.0360   -3.0130 H   0  0  0  0  0  0  0  0  0  0  0  0
  1  2  1  0
  2  3  2  0
  3  4  1  0
  4  5  1  0
  5  6  2  0
  5  7  1  0
  7  8  1  0
  8  9  1  0
  9 10  1  0
  9 11  1  0
  9 12  2  0
  4 13  2  0
 13 14  1  0
 14  2  1  0
  1 15  1  0
  1 16  1  0
  1 17  1  0
  3 18  1  0
  7 19  1  0
  8 20  1  0
  8 21  1  0
 10 22  1  0
 10 23  1  0
 10 24  1  0
 11 25  1  0
 11 26  1  0
 11 27  1  0
A    1
 C1 
A    2
 C2 
A    3
 C3 
A    4
 C4 
A    5
 C5 
A    6
 O1 
A    7
 N1 
A    8
 C6 
A    9
 P1 
A   10
 C7 
A   11
 C8 
A   12
 O2 
A   13
 N2 
A   14
 S1 
A   15
 H1 
A   16
 H2 
A   17
 H3 
A   18
 H4 
A   19
 H5 
A   20
 H6 
A   21
 H7 
A   22
 H8 
A   23
 H9 
A   24
 H10
A   25
 H11
A   26
 H12
A   27
 H13
M  END
>  <ref_pdb>  (64) 
x0147_0A

>  <ref_mols>  (64) 
x1071_0AS5,x1052_1AS2

>  <original SMILES>  (64) 
[H]c1c(C(=O)N([H])C([H])([H])P(=O)(C([H])([H])[H])C([H])([H])[H])nsc1C([H])([H])[H]

>  <index>  (64) 
17549

>  <∆∆G>  (64) 
-8.0357

>  <comRMSD>  (64) 
0.506122

>  <N_constrained_atoms>  (64) 
12.0

>  <N_unconstrained_atoms>  (64) 
2.0

>  <LE>  (64) 
0.573979

>  <percent_hybrid>  (64) 
34.0

>  <max_hit_Tanimoto>  (64) 
0.122288

>  <largest_ring>  (64) 
5

>  <N_interactions_kept>  (64) 
1.0

>  <N_interactions_lost>  (64) 
1.5

>  <interaction_uniqueness_metric>  (64) 
0.049272

>  <N_HA>  (64) 
14

>  <N_rotatable_bonds>  (64) 
6

>  <N_interactions>  (64) 
4

>  <N_PAINS>  (64) 
0

>  <UFF_Gibbs>  (64) 
67.718752

>  <strain_per_HA>  (64) 
4.837019

>  <ad_hoc_penalty>  (64) 
-28.949218

>  <cluster>  (64) 
2817

>  <ranked>  (64) 
74.0

>  <merger_rank>  (64) 
3

>  <hydroph_interaction:LEU:127>  (64) 
1

>  <hbond:GLY:128>  (64) 
1

>  <hydroph_interaction:ALA:144>  (64) 
0

>  <hbond:GLY:164>  (64) 
1

>  <hbond:HIS:40>  (64) 
0

>  <pistack:HIS:40>  (64) 
0

>  <hydroph_interaction:LEU:125>  (64) 
0

>  <hydroph_interaction:PHE:170>  (64) 
0

>  <hydroph_interaction:HIS:40>  (64) 
1

>  <pication:HIS:40>  (64) 
0

>  <hbond:THR:142>  (64) 
0

>  <hbond:HIS:161>  (64) 
0

>  <hbond:GLY:166>  (64) 
0

>  <hbond:VAL:162>  (64) 
0

>  <hydroph_interaction:ASN:165>  (64) 
0

>  <hbond:ASN:126>  (64) 
0

>  <hbond:ARG:143>  (64) 
0

>  <hbond:GLU:71>  (64) 
0

>  <saltbridge:HIS:161>  (64) 
0

>  <hbond:ALA:144>  (64) 
0

>  <hbond:GLY:145>  (64) 
0

>  <hbond:GLN:146>  (64) 
0

>  <hbond:CYS:147>  (64) 
0

>  <halogenbond:ASN:126>  (64) 
0

>  <saltbridge:HIS:40>  (64) 
0

>  <hbond:LEU:127>  (64) 
0

>  <hbond:THR:130>  (64) 
0

>  <hydroph_interaction:GLU:71>  (64) 
0

>  <hydroph_interaction:THR:130>  (64) 
0

>  <saltbridge:ARG:143>  (64) 
0

>  <saltbridge:GLU:71>  (64) 
0

>  <hbond:GLY:129>  (64) 
0

>  <halogenbond:CYS:147>  (64) 
0

>  <hydroph_interaction:THR:39>  (64) 
0

>  <hbond:ASN:69>  (64) 
0

>  <hydroph_interaction:THR:132>  (64) 
0

>  <hbond:TYR:122>  (64) 
0

>  <hydroph_interaction:PHE:109>  (64) 
0

>  <hydroph_interaction:PHE:140>  (64) 
0

>  <hbond:PRO:141>  (64) 
0

$$$$
Z3568122146-x1071-0AS2
     RDKit          3D

 41 41  0  0  0  0  0  0  0  0999 V2000
   -7.9970    0.3500   -1.3190 C   0  0  0  0  0  0  0  0  0  0  0  0
   -6.6500   -0.7960   -1.2240 S   0  0  0  0  0  6  0  0  0  0  0  0
   -5.6270   -0.3600   -2.1540 O   0  0  0  0  0  0  0  0  0  0  0  0
   -6.3440   -0.8860    0.1700 O   0  0  0  0  0  0  0  0  0  0  0  0
   -7.3650   -2.3720   -1.7290 C   0  0  0  0  0  0  0  0  0  0  0  0
   -6.4580   -3.2660   -2.1500 C   0  0  0  0  0  0  0  0  0  0  0  0
   -6.7810   -4.5800   -2.7350 C   0  0  0  0  0  0  0  0  0  0  0  0
   -7.6600   -4.6440   -3.5930 O   0  0  0  0  0  0  0  0  0  0  0  0
   -6.0710   -5.7360   -2.3470 C   0  0  0  0  0  0  0  0  0  0  0  0
   -6.3060   -6.2290   -1.0150 O   0  0  0  0  0  0  0  0  0  0  0  0
   -5.4990   -7.2800   -0.7490 C   0  0  0  0  0  0  0  0  0  0  0  0
   -5.3890   -8.1770   -1.5420 O   0  0  0  0  0  0  0  0  0  0  0  0
   -4.7870   -7.2450    0.4480 C   0  0  1  0  0  0  0  0  0  0  0  0
   -5.4330   -8.0650    1.5890 C   0  0  0  0  0  0  0  0  0  0  0  0
   -4.4800   -8.0610    2.7790 C   0  0  0  0  0  0  0  0  0  0  0  0
   -3.1230   -8.6180    2.3410 C   0  0  2  0  0  0  0  0  0  0  0  0
   -2.0960   -8.6230    3.2790 C   0  0  0  0  0  0  0  0  0  0  0  0
   -2.6060   -7.9570    1.2670 C   0  0  0  0  0  0  0  0  0  0  0  0
   -3.3910   -7.8380    0.1280 C   0  0  0  0  0  0  0  0  0  0  0  0
   -8.1530    0.6510   -2.3580 H   0  0  0  0  0  0  0  0  0  0  0  0
   -8.9040   -0.1350   -0.9410 H   0  0  0  0  0  0  0  0  0  0  0  0
   -7.7980    1.2310   -0.6990 H   0  0  0  0  0  0  0  0  0  0  0  0
   -7.9350   -2.7870   -0.8910 H   0  0  0  0  0  0  0  0  0  0  0  0
   -8.0820   -2.1840   -2.5350 H   0  0  0  0  0  0  0  0  0  0  0  0
   -5.8470   -2.7320   -2.8820 H   0  0  0  0  0  0  0  0  0  0  0  0
   -5.8140   -3.4680   -1.2930 H   0  0  0  0  0  0  0  0  0  0  0  0
   -6.2860   -6.5340   -3.0680 H   0  0  0  0  0  0  0  0  0  0  0  0
   -4.9960   -5.5490   -2.4340 H   0  0  0  0  0  0  0  0  0  0  0  0
   -4.6570   -6.2160    0.7920 H   0  0  0  0  0  0  0  0  0  0  0  0
   -6.4400   -7.7430    1.8550 H   0  0  0  0  0  0  0  0  0  0  0  0
   -5.6280   -9.0570    1.1740 H   0  0  0  0  0  0  0  0  0  0  0  0
   -4.8860   -8.5850    3.6390 H   0  0  0  0  0  0  0  0  0  0  0  0
   -4.3940   -7.0770    3.2340 H   0  0  0  0  0  0  0  0  0  0  0  0
   -3.3560   -9.6060    1.9220 H   0  0  0  0  0  0  0  0  0  0  0  0
   -1.4590   -7.7520    3.0890 H   0  0  0  0  0  0  0  0  0  0  0  0
   -2.2460   -8.5970    4.3490 H   0  0  0  0  0  0  0  0  0  0  0  0
   -1.4570   -9.4930    3.0970 H   0  0  0  0  0  0  0  0  0  0  0  0
   -2.3000   -6.9480    1.5720 H   0  0  0  0  0  0  0  0  0  0  0  0
   -1.7060   -8.4930    0.9450 H   0  0  0  0  0  0  0  0  0  0  0  0
   -3.5220   -8.8150   -0.3400 H   0  0  0  0  0  0  0  0  0  0  0  0
   -2.9100   -7.1980   -0.6110 H   0  0  0  0  0  0  0  0  0  0  0  0
  1  2  1  0
  2  3  2  0
  2  4  2  0
  2  5  1  0
  5  6  1  0
  6  7  1  0
  7  8  2  0
  7  9  1  0
  9 10  1  0
 10 11  1  0
 11 12  2  0
 11 13  1  0
 13 14  1  0
 14 15  1  0
 15 16  1  0
 16 17  1  0
 16 18  1  0
 18 19  1  0
 19 13  1  0
  1 20  1  0
  1 21  1  0
  1 22  1  0
  5 23  1  0
  5 24  1  0
  6 25  1  0
  6 26  1  0
  9 27  1  0
  9 28  1  0
 13 29  1  1
 14 30  1  0
 14 31  1  0
 15 32  1  0
 15 33  1  0
 16 34  1  6
 17 35  1  0
 17 36  1  0
 17 37  1  0
 18 38  1  0
 18 39  1  0
 19 40  1  0
 19 41  1  0
A    1
 C1 
A    2
 S1 
A    3
 O1 
A    4
 O2 
A    5
 C2 
A    6
 C3 
A    7
 C4 
A    8
 O3 
A    9
 C5 
A   10
 O4 
A   11
 C6 
A   12
 O5 
A   13
 C7 
A   14
 C8 
A   15
 C9 
A   16
 C10
A   17
 C11
A   18
 C12
A   19
 C13
A   20
 H1 
A   21
 H2 
A   22
 H3 
A   23
 H4 
A   24
 H5 
A   25
 H6 
A   26
 H7 
A   27
 H8 
A   28
 H9 
A   29
 H10
A   30
 H11
A   31
 H12
A   32
 H13
A   33
 H14
A   34
 H15
A   35
 H16
A   36
 H17
A   37
 H18
A   38
 H19
A   39
 H20
A   40
 H21
A   41
 H22
M  END
>  <ref_pdb>  (65) 
x0147_0A

>  <ref_mols>  (65) 
x1071_0AS2,x1083_0A

>  <original SMILES>  (65) 
[H]C([H])(OC(=O)[C@]1([H])C([H])([H])C([H])([H])[C@@]([H])(C([H])([H])[H])C([H])([H])C1([H])[H])C(=O)C([H])([H])C([H])([H])S(=O)(=O)C([H])([H])[H]

>  <index>  (65) 
9970

>  <∆∆G>  (65) 
-5.630729

>  <comRMSD>  (65) 
0.875408

>  <N_constrained_atoms>  (65) 
18.0

>  <N_unconstrained_atoms>  (65) 
1.0

>  <LE>  (65) 
0.296354

>  <percent_hybrid>  (65) 
45.0

>  <max_hit_Tanimoto>  (65) 
0.082969

>  <largest_ring>  (65) 
6

>  <N_interactions_kept>  (65) 
4.0

>  <N_interactions_lost>  (65) 
1.0

>  <interaction_uniqueness_metric>  (65) 
0.150849

>  <N_HA>  (65) 
19

>  <N_rotatable_bonds>  (65) 
8

>  <N_interactions>  (65) 
6

>  <N_PAINS>  (65) 
0

>  <UFF_Gibbs>  (65) 
134.052721

>  <strain_per_HA>  (65) 
7.055369

>  <ad_hoc_penalty>  (65) 
-28.94823

>  <cluster>  (65) 
811

>  <ranked>  (65) 
75.0

>  <merger_rank>  (65) 
1

>  <hydroph_interaction:LEU:127>  (65) 
2

>  <hbond:GLY:128>  (65) 
0

>  <hydroph_interaction:ALA:144>  (65) 
0

>  <hbond:GLY:164>  (65) 
1

>  <hbond:HIS:40>  (65) 
0

>  <pistack:HIS:40>  (65) 
0

>  <hydroph_interaction:LEU:125>  (65) 
0

>  <hydroph_interaction:PHE:170>  (65) 
0

>  <hydroph_interaction:HIS:40>  (65) 
1

>  <pication:HIS:40>  (65) 
0

>  <hbond:THR:142>  (65) 
0

>  <hbond:HIS:161>  (65) 
0

>  <hbond:GLY:166>  (65) 
0

>  <hbond:VAL:162>  (65) 
0

>  <hydroph_interaction:ASN:165>  (65) 
0

>  <hbond:ASN:126>  (65) 
0

>  <hbond:ARG:143>  (65) 
0

>  <hbond:GLU:71>  (65) 
0

>  <saltbridge:HIS:161>  (65) 
0

>  <hbond:ALA:144>  (65) 
0

>  <hbond:GLY:145>  (65) 
0

>  <hbond:GLN:146>  (65) 
0

>  <hbond:CYS:147>  (65) 
0

>  <halogenbond:ASN:126>  (65) 
0

>  <saltbridge:HIS:40>  (65) 
1

>  <hbond:LEU:127>  (65) 
0

>  <hbond:THR:130>  (65) 
0

>  <hydroph_interaction:GLU:71>  (65) 
0

>  <hydroph_interaction:THR:130>  (65) 
1

>  <saltbridge:ARG:143>  (65) 
0

>  <saltbridge:GLU:71>  (65) 
0

>  <hbond:GLY:129>  (65) 
0

>  <halogenbond:CYS:147>  (65) 
0

>  <hydroph_interaction:THR:39>  (65) 
0

>  <hbond:ASN:69>  (65) 
0

>  <hydroph_interaction:THR:132>  (65) 
0

>  <hbond:TYR:122>  (65) 
0

>  <hydroph_interaction:PHE:109>  (65) 
0

>  <hydroph_interaction:PHE:140>  (65) 
0

>  <hbond:PRO:141>  (65) 
0

$$$$
PV-002466938149-x2149-0AS6
     RDKit          3D

 37 39  0  0  0  0  0  0  0  0999 V2000
   -6.3400   -6.8880   -8.8110 C   0  0  0  0  0  0  0  0  0  0  0  0
   -6.9680   -6.0670   -7.8150 N   0  0  0  0  0  0  0  0  0  0  0  0
   -7.6050   -6.2500   -6.6130 C   0  0  0  0  0  0  0  0  0  0  0  0
   -7.4420   -7.3290   -5.6180 C   0  0  0  0  0  0  0  0  0  0  0  0
   -7.7890   -6.8390   -4.3490 N   0  0  0  0  0  0  0  0  0  0  0  0
   -6.9530   -5.9990   -3.7050 C   0  0  0  0  0  0  0  0  0  0  0  0
   -7.2810   -4.8880   -3.3530 O   0  0  0  0  0  0  0  0  0  0  0  0
   -5.7430   -6.6080   -3.5290 N   0  0  0  0  0  0  0  0  0  0  0  0
   -5.7270   -8.0190   -3.2260 C   0  0  0  0  0  0  0  0  0  0  0  0
   -5.2400   -8.2050   -1.9360 C   0  0  0  0  0  0  0  0  0  0  0  0
   -5.9830   -9.0410   -0.8990 C   0  0  0  0  0  0  0  0  0  0  0  0
   -5.3850   -9.1640    0.4090 C   0  0  0  0  0  0  0  0  0  0  0  0
   -4.1740   -8.5300    0.6780 C   0  0  0  0  0  0  0  0  0  0  0  0
   -3.4950   -8.5560    1.8550 O   0  0  0  0  0  0  0  0  0  0  0  0
   -2.4290   -7.6290    1.5550 C   0  0  0  0  0  0  0  0  0  0  0  0
   -2.3790   -7.2600    0.1670 O   0  0  0  0  0  0  0  0  0  0  0  0
   -3.5320   -7.7850   -0.2870 C   0  0  0  0  0  0  0  0  0  0  0  0
   -4.0290   -7.6040   -1.5800 C   0  0  0  0  0  0  0  0  0  0  0  0
   -8.4580   -5.2970   -6.3510 N   0  0  0  0  0  0  0  0  0  0  0  0
   -8.3660   -4.4650   -7.3990 N   0  0  0  0  0  0  0  0  0  0  0  0
   -7.2770   -4.8150   -8.1800 C   0  0  0  0  0  0  0  0  0  0  0  0
   -6.7000   -4.1590   -9.0280 O   0  0  0  0  0  0  0  0  0  0  0  0
   -5.2900   -6.8250   -8.7080 H   0  0  0  0  0  0  0  0  0  0  0  0
   -6.5750   -6.4820   -9.7890 H   0  0  0  0  0  0  0  0  0  0  0  0
   -6.6630   -7.9260   -8.7770 H   0  0  0  0  0  0  0  0  0  0  0  0
   -6.3890   -7.6070   -5.5670 H   0  0  0  0  0  0  0  0  0  0  0  0
   -8.0350   -8.2100   -5.8750 H   0  0  0  0  0  0  0  0  0  0  0  0
   -8.7770   -6.7190   -4.1730 H   0  0  0  0  0  0  0  0  0  0  0  0
   -4.9400   -6.2910   -4.0780 H   0  0  0  0  0  0  0  0  0  0  0  0
   -5.0590   -8.4860   -3.9580 H   0  0  0  0  0  0  0  0  0  0  0  0
   -6.7120   -8.4810   -3.3360 H   0  0  0  0  0  0  0  0  0  0  0  0
   -6.9280   -9.5320   -1.1250 H   0  0  0  0  0  0  0  0  0  0  0  0
   -5.7930   -9.7260    1.2550 H   0  0  0  0  0  0  0  0  0  0  0  0
   -1.4690   -8.0820    1.8310 H   0  0  0  0  0  0  0  0  0  0  0  0
   -2.5700   -6.7170    2.1410 H   0  0  0  0  0  0  0  0  0  0  0  0
   -3.4790   -7.0060   -2.2970 H   0  0  0  0  0  0  0  0  0  0  0  0
   -8.9020   -3.6110   -7.4810 H   0  0  0  0  0  0  0  0  0  0  0  0
  1  2  1  0
  2  3  1  0
  3  4  1  0
  4  5  1  0
  5  6  1  0
  6  7  2  0
  6  8  1  0
  8  9  1  0
  9 10  1  0
 10 11  2  0
 11 12  1  0
 12 13  2  0
 13 14  1  0
 14 15  1  0
 15 16  1  0
 16 17  1  0
 17 18  2  0
  3 19  2  0
 19 20  1  0
 20 21  1  0
 21 22  2  0
 21  2  1  0
 18 10  1  0
 17 13  1  0
  1 23  1  0
  1 24  1  0
  1 25  1  0
  4 26  1  0
  4 27  1  0
  5 28  1  0
  8 29  1  0
  9 30  1  0
  9 31  1  0
 11 32  1  0
 12 33  1  0
 15 34  1  0
 15 35  1  0
 18 36  1  0
 20 37  1  0
A    1
 C1 
A    2
 N1 
A    3
 C2 
A    4
 C3 
A    5
 N2 
A    6
 C4 
A    7
 O1 
A    8
 N3 
A    9
 C5 
A   10
 C6 
A   11
 C7 
A   12
 C8 
A   13
 C9 
A   14
 O2 
A   15
 C10
A   16
 O3 
A   17
 C11
A   18
 C12
A   19
 N4 
A   20
 N5 
A   21
 C13
A   22
 O4 
A   23
 H1 
A   24
 H2 
A   25
 H3 
A   26
 H4 
A   27
 H5 
A   28
 H6 
A   29
 H7 
A   30
 H8 
A   31
 H9 
A   32
 H10
A   33
 H11
A   34
 H12
A   35
 H13
A   36
 H14
A   37
 H15
M  END
>  <ref_pdb>  (66) 
x0147_0A

>  <ref_mols>  (66) 
x2149_0AS6,x1140_0A

>  <original SMILES>  (66) 
[H]c1c([H])c(C([H])([H])N([H])C(=O)N([H])C([H])([H])c2nn([H])c(=O)n2C([H])([H])[H])c([H])c2c1OC([H])([H])O2

>  <index>  (66) 
1016

>  <∆∆G>  (66) 
-8.400607

>  <comRMSD>  (66) 
0.857786

>  <N_constrained_atoms>  (66) 
21.0

>  <N_unconstrained_atoms>  (66) 
2.0

>  <LE>  (66) 
0.365244

>  <percent_hybrid>  (66) 
34.0

>  <max_hit_Tanimoto>  (66) 
0.410738

>  <largest_ring>  (66) 
6

>  <N_interactions_kept>  (66) 
2.0

>  <N_interactions_lost>  (66) 
2.5

>  <interaction_uniqueness_metric>  (66) 
0.076325

>  <N_HA>  (66) 
22

>  <N_rotatable_bonds>  (66) 
5

>  <N_interactions>  (66) 
4

>  <N_PAINS>  (66) 
0

>  <UFF_Gibbs>  (66) 
110.036891

>  <strain_per_HA>  (66) 
5.001654

>  <ad_hoc_penalty>  (66) 
-28.938623

>  <cluster>  (66) 
2739

>  <ranked>  (66) 
76.0

>  <merger_rank>  (66) 
1

>  <hydroph_interaction:LEU:127>  (66) 
1

>  <hbond:GLY:128>  (66) 
0

>  <hydroph_interaction:ALA:144>  (66) 
0

>  <hbond:GLY:164>  (66) 
0

>  <hbond:HIS:40>  (66) 
1

>  <pistack:HIS:40>  (66) 
1

>  <hydroph_interaction:LEU:125>  (66) 
0

>  <hydroph_interaction:PHE:170>  (66) 
0

>  <hydroph_interaction:HIS:40>  (66) 
0

>  <pication:HIS:40>  (66) 
0

>  <hbond:THR:142>  (66) 
0

>  <hbond:HIS:161>  (66) 
0

>  <hbond:GLY:166>  (66) 
0

>  <hbond:VAL:162>  (66) 
1

>  <hydroph_interaction:ASN:165>  (66) 
0

>  <hbond:ASN:126>  (66) 
0

>  <hbond:ARG:143>  (66) 
0

>  <hbond:GLU:71>  (66) 
0

>  <saltbridge:HIS:161>  (66) 
0

>  <hbond:ALA:144>  (66) 
0

>  <hbond:GLY:145>  (66) 
0

>  <hbond:GLN:146>  (66) 
0

>  <hbond:CYS:147>  (66) 
0

>  <halogenbond:ASN:126>  (66) 
0

>  <saltbridge:HIS:40>  (66) 
0

>  <hbond:LEU:127>  (66) 
0

>  <hbond:THR:130>  (66) 
0

>  <hydroph_interaction:GLU:71>  (66) 
0

>  <hydroph_interaction:THR:130>  (66) 
0

>  <saltbridge:ARG:143>  (66) 
0

>  <saltbridge:GLU:71>  (66) 
0

>  <hbond:GLY:129>  (66) 
0

>  <halogenbond:CYS:147>  (66) 
0

>  <hydroph_interaction:THR:39>  (66) 
0

>  <hbond:ASN:69>  (66) 
0

>  <hydroph_interaction:THR:132>  (66) 
0

>  <hbond:TYR:122>  (66) 
0

>  <hydroph_interaction:PHE:109>  (66) 
0

>  <hydroph_interaction:PHE:140>  (66) 
0

>  <hbond:PRO:141>  (66) 
0

$$$$
Z1286658941-x1071-0A
     RDKit          3D

 45 46  0  0  0  0  0  0  0  0999 V2000
   -5.7440    0.0930   -2.2030 C   0  0  0  0  0  0  0  0  0  0  0  0
   -6.8870   -0.6140   -1.0480 S   0  0  0  0  0  6  0  0  0  0  0  0
   -6.0800   -0.8570    0.1020 O   0  0  0  0  0  0  0  0  0  0  0  0
   -8.0340    0.2600   -0.9450 O   0  0  0  0  0  0  0  0  0  0  0  0
   -7.4230   -2.2120   -1.6790 C   0  0  0  0  0  0  0  0  0  0  0  0
   -6.2740   -3.0800   -2.1750 C   0  0  0  0  0  0  0  0  0  0  0  0
   -6.6030   -4.3260   -2.9960 C   0  0  0  0  0  0  0  0  0  0  0  0
   -6.9170   -4.1900   -4.1780 O   0  0  0  0  0  0  0  0  0  0  0  0
   -6.4730   -5.5810   -2.3990 N   0  0  0  0  0  0  0  0  0  0  0  0
   -7.0770   -5.8210   -1.0660 C   0  0  0  0  0  0  0  0  0  0  0  0
   -6.3240   -6.7130   -0.3010 C   0  0  0  0  0  0  0  0  0  0  0  0
   -5.8120   -7.9790   -0.9890 C   0  0  0  0  0  0  0  0  0  0  0  0
   -5.0100   -8.8720   -0.0760 C   0  0  0  0  0  0  0  0  0  0  0  0
   -4.1490   -8.2110    0.7640 N   0  0  0  0  0  0  0  0  0  0  0  0
   -3.0130   -7.4560    0.3160 C   0  0  0  0  0  0  0  0  0  0  0  0
   -2.3320   -7.2550    1.5040 C   0  0  0  0  0  0  0  0  0  0  0  0
   -3.1730   -7.4310    2.5880 C   0  0  0  0  0  0  0  0  0  0  0  0
   -4.1020   -8.3510    2.1110 C   0  0  0  0  0  0  0  0  0  0  0  0
   -4.7340   -9.1300    2.8040 O   0  0  0  0  0  0  0  0  0  0  0  0
   -4.9990   -7.5290   -2.2000 C   0  0  0  0  0  0  0  0  0  0  0  0
   -5.8610   -6.7250   -3.0860 C   0  0  0  0  0  0  0  0  0  0  0  0
   -6.1350    1.0420   -2.5680 H   0  0  0  0  0  0  0  0  0  0  0  0
   -5.6020   -0.5880   -3.0450 H   0  0  0  0  0  0  0  0  0  0  0  0
   -4.7860    0.2270   -1.6930 H   0  0  0  0  0  0  0  0  0  0  0  0
   -8.1250   -2.0410   -2.5020 H   0  0  0  0  0  0  0  0  0  0  0  0
   -7.9560   -2.7180   -0.8660 H   0  0  0  0  0  0  0  0  0  0  0  0
   -5.6220   -3.3370   -1.3450 H   0  0  0  0  0  0  0  0  0  0  0  0
   -5.6830   -2.4720   -2.8620 H   0  0  0  0  0  0  0  0  0  0  0  0
   -8.0980   -6.1990   -1.1860 H   0  0  0  0  0  0  0  0  0  0  0  0
   -7.1460   -4.8840   -0.5150 H   0  0  0  0  0  0  0  0  0  0  0  0
   -6.9060   -7.0670    0.5600 H   0  0  0  0  0  0  0  0  0  0  0  0
   -5.4570   -6.1610    0.0830 H   0  0  0  0  0  0  0  0  0  0  0  0
   -6.6520   -8.5750   -1.3670 H   0  0  0  0  0  0  0  0  0  0  0  0
   -5.7230   -9.3840    0.5820 H   0  0  0  0  0  0  0  0  0  0  0  0
   -4.4390   -9.6560   -0.5490 H   0  0  0  0  0  0  0  0  0  0  0  0
   -3.3960   -6.5810   -0.1900 H   0  0  0  0  0  0  0  0  0  0  0  0
   -2.4150   -8.0460   -0.3900 H   0  0  0  0  0  0  0  0  0  0  0  0
   -1.4120   -7.8300    1.5940 H   0  0  0  0  0  0  0  0  0  0  0  0
   -2.0480   -6.1990    1.5120 H   0  0  0  0  0  0  0  0  0  0  0  0
   -2.6480   -7.8860    3.4340 H   0  0  0  0  0  0  0  0  0  0  0  0
   -3.6820   -6.5120    2.8890 H   0  0  0  0  0  0  0  0  0  0  0  0
   -4.1280   -6.9380   -1.8960 H   0  0  0  0  0  0  0  0  0  0  0  0
   -4.6260   -8.4030   -2.7500 H   0  0  0  0  0  0  0  0  0  0  0  0
   -6.6740   -7.3400   -3.4940 H   0  0  0  0  0  0  0  0  0  0  0  0
   -5.2520   -6.3890   -3.9300 H   0  0  0  0  0  0  0  0  0  0  0  0
  1  2  1  0
  2  3  2  0
  2  4  2  0
  2  5  1  0
  5  6  1  0
  6  7  1  0
  7  8  2  0
  7  9  1  0
  9 10  1  0
 10 11  1  0
 11 12  1  0
 12 13  1  0
 13 14  1  0
 14 15  1  0
 15 16  1  0
 16 17  1  0
 17 18  1  0
 18 19  2  0
 12 20  1  0
 20 21  1  0
 21  9  1  0
 18 14  1  0
  1 22  1  0
  1 23  1  0
  1 24  1  0
  5 25  1  0
  5 26  1  0
  6 27  1  0
  6 28  1  0
 10 29  1  0
 10 30  1  0
 11 31  1  0
 11 32  1  0
 12 33  1  0
 13 34  1  0
 13 35  1  0
 15 36  1  0
 15 37  1  0
 16 38  1  0
 16 39  1  0
 17 40  1  0
 17 41  1  0
 20 42  1  0
 20 43  1  0
 21 44  1  0
 21 45  1  0
A    1
 C1 
A    2
 S1 
A    3
 O1 
A    4
 O2 
A    5
 C2 
A    6
 C3 
A    7
 C4 
A    8
 O3 
A    9
 N1 
A   10
 C5 
A   11
 C6 
A   12
 C7 
A   13
 C8 
A   14
 N2 
A   15
 C9 
A   16
 C10
A   17
 C11
A   18
 C12
A   19
 O4 
A   20
 C13
A   21
 C14
A   22
 H1 
A   23
 H2 
A   24
 H3 
A   25
 H4 
A   26
 H5 
A   27
 H6 
A   28
 H7 
A   29
 H8 
A   30
 H9 
A   31
 H10
A   32
 H11
A   33
 H12
A   34
 H13
A   35
 H14
A   36
 H15
A   37
 H16
A   38
 H17
A   39
 H18
A   40
 H19
A   41
 H20
A   42
 H21
A   43
 H22
A   44
 H23
A   45
 H24
M  END
>  <ref_pdb>  (67) 
x0147_0A

>  <ref_mols>  (67) 
x1071_0A,x1247_0AS1

>  <original SMILES>  (67) 
[H]C1([H])C(=O)N(C([H])([H])C2([H])C([H])([H])C([H])([H])N(C(=O)C([H])([H])C([H])([H])S(=O)(=O)C([H])([H])[H])C([H])([H])C2([H])[H])C([H])([H])C1([H])[H]

>  <index>  (67) 
1885

>  <∆∆G>  (67) 
-8.188954

>  <comRMSD>  (67) 
0.474415

>  <N_constrained_atoms>  (67) 
20.0

>  <N_unconstrained_atoms>  (67) 
1.0

>  <LE>  (67) 
0.38995

>  <percent_hybrid>  (67) 
30.0

>  <max_hit_Tanimoto>  (67) 
0.322738

>  <largest_ring>  (67) 
6

>  <N_interactions_kept>  (67) 
2.0

>  <N_interactions_lost>  (67) 
1.0

>  <interaction_uniqueness_metric>  (67) 
0.020194

>  <N_HA>  (67) 
21

>  <N_rotatable_bonds>  (67) 
6

>  <N_interactions>  (67) 
2

>  <N_PAINS>  (67) 
0

>  <UFF_Gibbs>  (67) 
95.276668

>  <strain_per_HA>  (67) 
4.536963

>  <ad_hoc_penalty>  (67) 
-28.884428

>  <cluster>  (67) 
1578

>  <ranked>  (67) 
78.0

>  <merger_rank>  (67) 
1

>  <hydroph_interaction:LEU:127>  (67) 
1

>  <hbond:GLY:128>  (67) 
0

>  <hydroph_interaction:ALA:144>  (67) 
0

>  <hbond:GLY:164>  (67) 
1

>  <hbond:HIS:40>  (67) 
0

>  <pistack:HIS:40>  (67) 
0

>  <hydroph_interaction:LEU:125>  (67) 
0

>  <hydroph_interaction:PHE:170>  (67) 
0

>  <hydroph_interaction:HIS:40>  (67) 
0

>  <pication:HIS:40>  (67) 
0

>  <hbond:THR:142>  (67) 
0

>  <hbond:HIS:161>  (67) 
0

>  <hbond:GLY:166>  (67) 
0

>  <hbond:VAL:162>  (67) 
0

>  <hydroph_interaction:ASN:165>  (67) 
0

>  <hbond:ASN:126>  (67) 
0

>  <hbond:ARG:143>  (67) 
0

>  <hbond:GLU:71>  (67) 
0

>  <saltbridge:HIS:161>  (67) 
0

>  <hbond:ALA:144>  (67) 
0

>  <hbond:GLY:145>  (67) 
0

>  <hbond:GLN:146>  (67) 
0

>  <hbond:CYS:147>  (67) 
0

>  <halogenbond:ASN:126>  (67) 
0

>  <saltbridge:HIS:40>  (67) 
0

>  <hbond:LEU:127>  (67) 
0

>  <hbond:THR:130>  (67) 
0

>  <hydroph_interaction:GLU:71>  (67) 
0

>  <hydroph_interaction:THR:130>  (67) 
0

>  <saltbridge:ARG:143>  (67) 
0

>  <saltbridge:GLU:71>  (67) 
0

>  <hbond:GLY:129>  (67) 
0

>  <halogenbond:CYS:147>  (67) 
0

>  <hydroph_interaction:THR:39>  (67) 
0

>  <hbond:ASN:69>  (67) 
0

>  <hydroph_interaction:THR:132>  (67) 
0

>  <hbond:TYR:122>  (67) 
0

>  <hydroph_interaction:PHE:109>  (67) 
0

>  <hydroph_interaction:PHE:140>  (67) 
0

>  <hbond:PRO:141>  (67) 
0

$$$$
Z730650254-x1919-0AS6
     RDKit          3D

 38 38  0  0  0  0  0  0  0  0999 V2000
   -5.5200    0.3880   -1.8920 C   0  0  0  0  0  0  0  0  0  0  0  0
   -6.2080    0.1030   -0.5720 C   0  0  0  0  0  0  0  0  0  0  0  0
   -7.2090   -1.0190   -0.6710 C   0  0  0  0  0  0  0  0  0  0  0  0
   -6.8290   -2.1410   -1.4210 C   0  0  0  0  0  0  0  0  0  0  0  0
   -7.6190   -3.2900   -1.4070 C   0  0  0  0  0  0  0  0  0  0  0  0
   -7.0040   -4.5010   -1.7540 C   0  0  0  0  0  0  0  0  0  0  0  0
   -6.1020   -5.0160   -1.1090 O   0  0  0  0  0  0  0  0  0  0  0  0
   -7.5390   -5.0710   -2.9050 N   0  0  0  0  0  0  0  0  0  0  0  0
   -8.8010   -4.5840   -3.5150 C   0  0  0  0  0  0  0  0  0  0  0  0
   -9.3450   -5.5540   -4.5830 C   0  0  0  0  0  0  0  0  0  0  0  0
   -8.6810   -5.3510   -5.9380 C   0  0  0  0  0  0  0  0  0  0  0  0
   -7.7290   -6.4500   -6.4460 C   0  0  0  0  0  0  0  0  0  0  0  0
   -7.1170   -6.1110   -7.7870 C   0  0  0  0  0  0  0  0  0  0  0  0
   -7.4590   -4.8200   -8.4800 C   0  0  0  0  0  0  0  0  0  0  0  0
   -6.8890   -4.5400   -9.6720 O   0  0  0  0  0  0  0  0  0  0  0  0
   -8.3510   -3.9110   -7.9170 C   0  0  0  0  0  0  0  0  0  0  0  0
   -8.9420   -4.1750   -6.6780 C   0  0  0  0  0  0  0  0  0  0  0  0
   -5.9890   -0.1530   -2.7250 H   0  0  0  0  0  0  0  0  0  0  0  0
   -5.5350    1.4580   -2.1220 H   0  0  0  0  0  0  0  0  0  0  0  0
   -4.4830    0.0620   -1.8610 H   0  0  0  0  0  0  0  0  0  0  0  0
   -5.4520   -0.1550    0.1770 H   0  0  0  0  0  0  0  0  0  0  0  0
   -6.7240    0.9990   -0.2170 H   0  0  0  0  0  0  0  0  0  0  0  0
   -7.4740   -1.3230    0.3440 H   0  0  0  0  0  0  0  0  0  0  0  0
   -8.1110   -0.6030   -1.1280 H   0  0  0  0  0  0  0  0  0  0  0  0
   -6.7140   -1.8330   -2.4640 H   0  0  0  0  0  0  0  0  0  0  0  0
   -5.8190   -2.4030   -1.1210 H   0  0  0  0  0  0  0  0  0  0  0  0
   -8.0960   -3.3410   -0.4330 H   0  0  0  0  0  0  0  0  0  0  0  0
   -8.4370   -3.1540   -2.1200 H   0  0  0  0  0  0  0  0  0  0  0  0
   -6.8670   -5.5730   -3.4880 H   0  0  0  0  0  0  0  0  0  0  0  0
   -8.5730   -3.6100   -3.9670 H   0  0  0  0  0  0  0  0  0  0  0  0
   -9.5230   -4.4170   -2.7080 H   0  0  0  0  0  0  0  0  0  0  0  0
   -9.3090   -6.5910   -4.2440 H   0  0  0  0  0  0  0  0  0  0  0  0
  -10.4180   -5.3590   -4.7040 H   0  0  0  0  0  0  0  0  0  0  0  0
   -7.5080   -7.3690   -5.9050 H   0  0  0  0  0  0  0  0  0  0  0  0
   -6.4210   -6.8170   -8.2450 H   0  0  0  0  0  0  0  0  0  0  0  0
   -7.3370   -5.0850  -10.3570 H   0  0  0  0  0  0  0  0  0  0  0  0
   -8.5820   -2.9900   -8.4460 H   0  0  0  0  0  0  0  0  0  0  0  0
   -9.6270   -3.4330   -6.2750 H   0  0  0  0  0  0  0  0  0  0  0  0
  1  2  1  0
  2  3  1  0
  3  4  1  0
  4  5  1  0
  5  6  1  0
  6  7  2  0
  6  8  1  0
  8  9  1  0
  9 10  1  0
 10 11  1  0
 11 12  2  0
 12 13  1  0
 13 14  2  0
 14 15  1  0
 14 16  1  0
 16 17  2  0
 17 11  1  0
  1 18  1  0
  1 19  1  0
  1 20  1  0
  2 21  1  0
  2 22  1  0
  3 23  1  0
  3 24  1  0
  4 25  1  0
  4 26  1  0
  5 27  1  0
  5 28  1  0
  8 29  1  0
  9 30  1  0
  9 31  1  0
 10 32  1  0
 10 33  1  0
 12 34  1  0
 13 35  1  0
 15 36  1  0
 16 37  1  0
 17 38  1  0
A    1
 C1 
A    2
 C2 
A    3
 C3 
A    4
 C4 
A    5
 C5 
A    6
 C6 
A    7
 O1 
A    8
 N1 
A    9
 C7 
A   10
 C8 
A   11
 C9 
A   12
 C10
A   13
 C11
A   14
 C12
A   15
 O2 
A   16
 C13
A   17
 C14
A   18
 H1 
A   19
 H2 
A   20
 H3 
A   21
 H4 
A   22
 H5 
A   23
 H6 
A   24
 H7 
A   25
 H8 
A   26
 H9 
A   27
 H10
A   28
 H11
A   29
 H12
A   30
 H13
A   31
 H14
A   32
 H15
A   33
 H16
A   34
 H17
A   35
 H18
A   36
 H19
A   37
 H20
A   38
 H21
M  END
>  <ref_pdb>  (68) 
x0147_0A

>  <ref_mols>  (68) 
x1919_0AS6,x1498_0A

>  <original SMILES>  (68) 
[H]Oc1c([H])c([H])c(C([H])([H])C([H])([H])N([H])C(=O)C([H])([H])C([H])([H])C([H])([H])C([H])([H])C([H])([H])[H])c([H])c1[H]

>  <index>  (68) 
1934

>  <∆∆G>  (68) 
-8.892324

>  <comRMSD>  (68) 
0.676914

>  <N_constrained_atoms>  (68) 
16.0

>  <N_unconstrained_atoms>  (68) 
2.0

>  <LE>  (68) 
0.494018

>  <percent_hybrid>  (68) 
44.0

>  <max_hit_Tanimoto>  (68) 
0.103203

>  <largest_ring>  (68) 
6

>  <N_interactions_kept>  (68) 
2.5

>  <N_interactions_lost>  (68) 
1.0

>  <interaction_uniqueness_metric>  (68) 
0.102061

>  <N_HA>  (68) 
17

>  <N_rotatable_bonds>  (68) 
9

>  <N_interactions>  (68) 
4

>  <N_PAINS>  (68) 
0

>  <UFF_Gibbs>  (68) 
140.255358

>  <strain_per_HA>  (68) 
8.250267

>  <ad_hoc_penalty>  (68) 
-28.855783

>  <cluster>  (68) 
681

>  <ranked>  (68) 
79.0

>  <merger_rank>  (68) 
1

>  <hydroph_interaction:LEU:127>  (68) 
1

>  <hbond:GLY:128>  (68) 
0

>  <hydroph_interaction:ALA:144>  (68) 
0

>  <hbond:GLY:164>  (68) 
0

>  <hbond:HIS:40>  (68) 
0

>  <pistack:HIS:40>  (68) 
0

>  <hydroph_interaction:LEU:125>  (68) 
1

>  <hydroph_interaction:PHE:170>  (68) 
1

>  <hydroph_interaction:HIS:40>  (68) 
0

>  <pication:HIS:40>  (68) 
0

>  <hbond:THR:142>  (68) 
1

>  <hbond:HIS:161>  (68) 
0

>  <hbond:GLY:166>  (68) 
0

>  <hbond:VAL:162>  (68) 
0

>  <hydroph_interaction:ASN:165>  (68) 
0

>  <hbond:ASN:126>  (68) 
0

>  <hbond:ARG:143>  (68) 
0

>  <hbond:GLU:71>  (68) 
0

>  <saltbridge:HIS:161>  (68) 
0

>  <hbond:ALA:144>  (68) 
0

>  <hbond:GLY:145>  (68) 
0

>  <hbond:GLN:146>  (68) 
0

>  <hbond:CYS:147>  (68) 
0

>  <halogenbond:ASN:126>  (68) 
0

>  <saltbridge:HIS:40>  (68) 
0

>  <hbond:LEU:127>  (68) 
0

>  <hbond:THR:130>  (68) 
0

>  <hydroph_interaction:GLU:71>  (68) 
0

>  <hydroph_interaction:THR:130>  (68) 
0

>  <saltbridge:ARG:143>  (68) 
0

>  <saltbridge:GLU:71>  (68) 
0

>  <hbond:GLY:129>  (68) 
0

>  <halogenbond:CYS:147>  (68) 
0

>  <hydroph_interaction:THR:39>  (68) 
0

>  <hbond:ASN:69>  (68) 
0

>  <hydroph_interaction:THR:132>  (68) 
0

>  <hbond:TYR:122>  (68) 
0

>  <hydroph_interaction:PHE:109>  (68) 
0

>  <hydroph_interaction:PHE:140>  (68) 
0

>  <hbond:PRO:141>  (68) 
0

$$$$
Z4277584540-x1919-0AS10
     RDKit          3D

 52 53  0  0  0  0  0  0  0  0999 V2000
   -5.5060    0.2510   -1.8930 C   0  0  0  0  0  0  0  0  0  0  0  0
   -6.1020    0.1840   -0.5040 C   0  0  0  0  0  0  0  0  0  0  0  0
   -7.1240   -0.7690   -0.5380 C   0  0  0  0  0  0  0  0  0  0  0  0
   -6.9370   -1.9310   -1.2780 C   0  0  0  0  0  0  0  0  0  0  0  0
   -7.8150   -2.9840   -1.1210 C   0  0  0  0  0  0  0  0  0  0  0  0
   -7.3970   -4.2610   -1.4870 C   0  0  0  0  0  0  0  0  0  0  0  0
   -7.5370   -4.3450   -3.2500 S   0  0  0  0  0  6  0  0  0  0  0  0
   -6.2340   -4.1230   -3.8270 O   0  0  0  0  0  0  0  0  0  0  0  0
   -8.6350   -3.4770   -3.5690 O   0  0  0  0  0  0  0  0  0  0  0  0
   -8.0990   -5.8660   -3.6990 N   0  0  0  0  0  0  0  0  0  0  0  0
   -9.0140   -5.8320   -4.8310 C   0  0  0  0  0  0  0  0  0  0  0  0
   -8.1640   -6.0270   -6.0760 C   0  0  1  0  0  0  0  0  0  0  0  0
   -7.5360   -4.8980   -6.5800 N   0  0  0  0  0  0  0  0  0  0  0  0
   -7.6570   -4.2690   -7.9070 C   0  0  0  0  0  0  0  0  0  0  0  0
   -8.7640   -3.2290   -7.9950 C   0  0  0  0  0  0  0  0  0  0  0  0
   -6.9840   -4.3960   -8.9560 O   0  0  0  0  0  0  0  0  0  0  0  0
   -7.1010   -6.9300   -5.4120 C   0  0  2  0  0  0  0  0  0  0  0  0
   -7.1640   -8.2820   -6.0480 C   0  0  0  0  0  0  0  0  0  0  0  0
   -7.5420   -9.4090   -5.4550 N   0  0  0  0  0  0  0  0  0  0  0  0
   -7.4230  -10.3680   -6.4110 C   0  0  0  0  0  0  0  0  0  0  0  0
   -6.9720   -9.7940   -7.5720 C   0  0  0  0  0  0  0  0  0  0  0  0
   -6.8080   -8.4620   -7.3570 N   0  0  0  0  0  0  0  0  0  0  0  0
   -6.3390   -7.4150   -8.3210 C   0  0  0  0  0  0  0  0  0  0  0  0
   -7.2020   -6.8440   -4.0020 C   0  0  0  0  0  0  0  0  0  0  0  0
   -6.2010   -0.1240   -2.6450 H   0  0  0  0  0  0  0  0  0  0  0  0
   -4.5780   -0.3210   -1.9240 H   0  0  0  0  0  0  0  0  0  0  0  0
   -5.2720    1.2850   -2.1490 H   0  0  0  0  0  0  0  0  0  0  0  0
   -5.3380   -0.0840    0.2250 H   0  0  0  0  0  0  0  0  0  0  0  0
   -6.4980    1.1540   -0.1970 H   0  0  0  0  0  0  0  0  0  0  0  0
   -8.0410   -0.2730   -0.8670 H   0  0  0  0  0  0  0  0  0  0  0  0
   -7.3280   -1.0790    0.4940 H   0  0  0  0  0  0  0  0  0  0  0  0
   -6.9230   -1.6430   -2.3340 H   0  0  0  0  0  0  0  0  0  0  0  0
   -5.9350   -2.3070   -1.0970 H   0  0  0  0  0  0  0  0  0  0  0  0
   -8.7180   -2.7520   -1.6890 H   0  0  0  0  0  0  0  0  0  0  0  0
   -8.1840   -3.0010   -0.1050 H   0  0  0  0  0  0  0  0  0  0  0  0
   -8.0310   -5.0340   -1.0370 H   0  0  0  0  0  0  0  0  0  0  0  0
   -6.3470   -4.4520   -1.2160 H   0  0  0  0  0  0  0  0  0  0  0  0
   -9.5400   -4.8730   -4.8700 H   0  0  0  0  0  0  0  0  0  0  0  0
   -9.7510   -6.6360   -4.7380 H   0  0  0  0  0  0  0  0  0  0  0  0
   -8.7340   -6.5400   -6.8580 H   0  0  0  0  0  0  0  0  0  0  0  0
   -7.1780   -4.2800   -5.8600 H   0  0  0  0  0  0  0  0  0  0  0  0
   -9.6480   -3.7680   -8.3460 H   0  0  0  0  0  0  0  0  0  0  0  0
   -8.7130   -2.3280   -8.5900 H   0  0  0  0  0  0  0  0  0  0  0  0
   -9.0000   -2.8690   -6.9900 H   0  0  0  0  0  0  0  0  0  0  0  0
   -6.1090   -6.5740   -5.6390 H   0  0  0  0  0  0  0  0  0  0  0  0
   -7.6420  -11.4270   -6.2890 H   0  0  0  0  0  0  0  0  0  0  0  0
   -6.8050  -10.4120   -8.4540 H   0  0  0  0  0  0  0  0  0  0  0  0
   -6.4030   -7.7960   -9.3370 H   0  0  0  0  0  0  0  0  0  0  0  0
   -5.2990   -7.1680   -8.0900 H   0  0  0  0  0  0  0  0  0  0  0  0
   -6.9770   -6.5350   -8.2250 H   0  0  0  0  0  0  0  0  0  0  0  0
   -7.6100   -7.7790   -3.6090 H   0  0  0  0  0  0  0  0  0  0  0  0
   -6.2310   -6.6860   -3.5250 H   0  0  0  0  0  0  0  0  0  0  0  0
  1  2  1  0
  2  3  1  0
  3  4  1  0
  4  5  1  0
  5  6  1  0
  6  7  1  0
  7  8  2  0
  7  9  2  0
  7 10  1  0
 10 11  1  0
 11 12  1  0
 12 13  1  0
 13 14  1  0
 14 15  1  0
 14 16  2  0
 12 17  1  0
 17 18  1  0
 18 19  2  0
 19 20  1  0
 20 21  2  0
 21 22  1  0
 22 23  1  0
 17 24  1  0
 24 10  1  0
 22 18  1  0
  1 25  1  0
  1 26  1  0
  1 27  1  0
  2 28  1  0
  2 29  1  0
  3 30  1  0
  3 31  1  0
  4 32  1  0
  4 33  1  0
  5 34  1  0
  5 35  1  0
  6 36  1  0
  6 37  1  0
 11 38  1  0
 11 39  1  0
 12 40  1  6
 13 41  1  0
 15 42  1  0
 15 43  1  0
 15 44  1  0
 17 45  1  6
 20 46  1  0
 21 47  1  0
 23 48  1  0
 23 49  1  0
 23 50  1  0
 24 51  1  0
 24 52  1  0
A    1
 C1 
A    2
 C2 
A    3
 C3 
A    4
 C4 
A    5
 C5 
A    6
 C6 
A    7
 S1 
A    8
 O1 
A    9
 O2 
A   10
 N1 
A   11
 C7 
A   12
 C8 
A   13
 N2 
A   14
 C9 
A   15
 C10
A   16
 O3 
A   17
 C11
A   18
 C12
A   19
 N3 
A   20
 C13
A   21
 C14
A   22
 N4 
A   23
 C15
A   24
 C16
A   25
 H1 
A   26
 H2 
A   27
 H3 
A   28
 H4 
A   29
 H5 
A   30
 H6 
A   31
 H7 
A   32
 H8 
A   33
 H9 
A   34
 H10
A   35
 H11
A   36
 H12
A   37
 H13
A   38
 H14
A   39
 H15
A   40
 H16
A   41
 H17
A   42
 H18
A   43
 H19
A   44
 H20
A   45
 H21
A   46
 H22
A   47
 H23
A   48
 H24
A   49
 H25
A   50
 H26
A   51
 H27
A   52
 H28
M  END
>  <ref_pdb>  (69) 
x0147_0A

>  <ref_mols>  (69) 
x1919_0AS10,x0771_0A

>  <original SMILES>  (69) 
[H]c1nc([C@]2([H])C([H])([H])N(S(=O)(=O)C([H])([H])C([H])([H])C([H])([H])C([H])([H])C([H])([H])C([H])([H])[H])C([H])([H])[C@@]2([H])N([H])C(=O)C([H])([H])[H])n(C([H])([H])[H])c1[H]

>  <index>  (69) 
6456

>  <∆∆G>  (69) 
-9.269158

>  <comRMSD>  (69) 
0.768945

>  <N_constrained_atoms>  (69) 
23.0

>  <N_unconstrained_atoms>  (69) 
2.0

>  <LE>  (69) 
0.370766

>  <percent_hybrid>  (69) 
48.0

>  <max_hit_Tanimoto>  (69) 
0.11306

>  <largest_ring>  (69) 
5

>  <N_interactions_kept>  (69) 
2.5

>  <N_interactions_lost>  (69) 
1.5

>  <interaction_uniqueness_metric>  (69) 
0.12399

>  <N_HA>  (69) 
24

>  <N_rotatable_bonds>  (69) 
11

>  <N_interactions>  (69) 
5

>  <N_PAINS>  (69) 
0

>  <UFF_Gibbs>  (69) 
194.267098

>  <strain_per_HA>  (69) 
8.094429

>  <ad_hoc_penalty>  (69) 
-28.844226

>  <cluster>  (69) 
2407

>  <ranked>  (69) 
80.0

>  <merger_rank>  (69) 
1

>  <hydroph_interaction:LEU:127>  (69) 
0

>  <hbond:GLY:128>  (69) 
0

>  <hydroph_interaction:ALA:144>  (69) 
0

>  <hbond:GLY:164>  (69) 
2

>  <hbond:HIS:40>  (69) 
0

>  <pistack:HIS:40>  (69) 
0

>  <hydroph_interaction:LEU:125>  (69) 
1

>  <hydroph_interaction:PHE:170>  (69) 
1

>  <hydroph_interaction:HIS:40>  (69) 
0

>  <pication:HIS:40>  (69) 
1

>  <hbond:THR:142>  (69) 
0

>  <hbond:HIS:161>  (69) 
0

>  <hbond:GLY:166>  (69) 
0

>  <hbond:VAL:162>  (69) 
0

>  <hydroph_interaction:ASN:165>  (69) 
0

>  <hbond:ASN:126>  (69) 
0

>  <hbond:ARG:143>  (69) 
0

>  <hbond:GLU:71>  (69) 
0

>  <saltbridge:HIS:161>  (69) 
0

>  <hbond:ALA:144>  (69) 
0

>  <hbond:GLY:145>  (69) 
0

>  <hbond:GLN:146>  (69) 
0

>  <hbond:CYS:147>  (69) 
0

>  <halogenbond:ASN:126>  (69) 
0

>  <saltbridge:HIS:40>  (69) 
0

>  <hbond:LEU:127>  (69) 
0

>  <hbond:THR:130>  (69) 
0

>  <hydroph_interaction:GLU:71>  (69) 
0

>  <hydroph_interaction:THR:130>  (69) 
0

>  <saltbridge:ARG:143>  (69) 
0

>  <saltbridge:GLU:71>  (69) 
0

>  <hbond:GLY:129>  (69) 
0

>  <halogenbond:CYS:147>  (69) 
0

>  <hydroph_interaction:THR:39>  (69) 
0

>  <hbond:ASN:69>  (69) 
0

>  <hydroph_interaction:THR:132>  (69) 
0

>  <hbond:TYR:122>  (69) 
0

>  <hydroph_interaction:PHE:109>  (69) 
0

>  <hydroph_interaction:PHE:140>  (69) 
0

>  <hbond:PRO:141>  (69) 
0

$$$$
Z2590789181-x2149-0AS2
     RDKit          3D

 34 36  0  0  0  0  0  0  0  0999 V2000
   -6.6800   -4.7020   -8.9080 O   0  0  0  0  0  0  0  0  0  0  0  0
   -7.2450   -5.2330   -7.9350 C   0  0  0  0  0  0  0  0  0  0  0  0
   -8.4560   -4.6940   -7.2310 C   0  0  0  0  0  0  0  0  0  0  0  0
   -8.6820   -5.6440   -6.0650 C   0  0  0  0  0  0  0  0  0  0  0  0
   -7.3030   -6.2860   -5.8520 C   0  0  1  0  0  0  0  0  0  0  0  0
   -7.5970   -7.6330   -5.1380 C   0  0  0  0  0  0  0  0  0  0  0  0
   -7.2290   -7.6730   -3.8470 N   0  0  0  0  0  0  0  0  0  0  0  0
   -5.7870   -7.9960   -3.6610 C   0  0  0  0  0  0  0  0  0  0  0  0
   -5.3360   -8.1530   -2.2500 C   0  0  0  0  0  0  0  0  0  0  0  0
   -6.0880   -8.8710   -1.2720 C   0  0  0  0  0  0  0  0  0  0  0  0
   -5.6180   -9.0120    0.0580 C   0  0  0  0  0  0  0  0  0  0  0  0
   -4.4230   -8.4820    0.4960 C   0  0  0  0  0  0  0  0  0  0  0  0
   -3.7890   -8.5170    1.7550 O   0  0  0  0  0  0  0  0  0  0  0  0
   -2.6230   -7.8140    1.5590 C   0  0  0  0  0  0  0  0  0  0  0  0
   -2.5890   -7.3990    0.2700 C   0  0  0  0  0  0  0  0  0  0  0  0
   -3.6800   -7.7890   -0.4200 C   0  0  0  0  0  0  0  0  0  0  0  0
   -4.1010   -7.5780   -1.8660 C   0  0  0  0  0  0  0  0  0  0  0  0
   -6.9490   -6.4010   -7.2270 N   0  0  0  0  0  0  0  0  0  0  0  0
   -8.2730   -3.6730   -6.8840 H   0  0  0  0  0  0  0  0  0  0  0  0
   -9.2990   -4.6990   -7.9250 H   0  0  0  0  0  0  0  0  0  0  0  0
   -9.4570   -6.3440   -6.3980 H   0  0  0  0  0  0  0  0  0  0  0  0
   -9.1920   -5.0880   -5.2890 H   0  0  0  0  0  0  0  0  0  0  0  0
   -6.5510   -5.7710   -5.2800 H   0  0  0  0  0  0  0  0  0  0  0  0
   -7.0340   -8.4310   -5.6270 H   0  0  0  0  0  0  0  0  0  0  0  0
   -8.6670   -7.8490   -5.2240 H   0  0  0  0  0  0  0  0  0  0  0  0
   -7.8950   -8.1160   -3.2100 H   0  0  0  0  0  0  0  0  0  0  0  0
   -5.5900   -8.8690   -4.2930 H   0  0  0  0  0  0  0  0  0  0  0  0
   -5.2330   -7.2160   -4.1860 H   0  0  0  0  0  0  0  0  0  0  0  0
   -7.0400   -9.3210   -1.5410 H   0  0  0  0  0  0  0  0  0  0  0  0
   -6.2430   -9.5670    0.7400 H   0  0  0  0  0  0  0  0  0  0  0  0
   -1.8250   -7.5930    2.2680 H   0  0  0  0  0  0  0  0  0  0  0  0
   -1.7760   -6.8280   -0.1530 H   0  0  0  0  0  0  0  0  0  0  0  0
   -3.4840   -7.0220   -2.5680 H   0  0  0  0  0  0  0  0  0  0  0  0
   -6.2900   -7.0740   -7.6020 H   0  0  0  0  0  0  0  0  0  0  0  0
  1  2  2  0
  2  3  1  0
  3  4  1  0
  4  5  1  0
  5  6  1  0
  6  7  1  0
  7  8  1  0
  8  9  1  0
  9 10  2  0
 10 11  1  0
 11 12  2  0
 12 13  1  0
 13 14  1  0
 14 15  2  0
 15 16  1  0
 16 17  2  0
  5 18  1  0
 18  2  1  0
 17  9  1  0
 16 12  1  0
  3 19  1  0
  3 20  1  0
  4 21  1  0
  4 22  1  0
  5 23  1  1
  6 24  1  0
  6 25  1  0
  7 26  1  0
  8 27  1  0
  8 28  1  0
 10 29  1  0
 11 30  1  0
 14 31  1  0
 15 32  1  0
 17 33  1  0
 18 34  1  0
A    1
 O1 
A    2
 C1 
A    3
 C2 
A    4
 C3 
A    5
 C4 
A    6
 C5 
A    7
 N1 
A    8
 C6 
A    9
 C7 
A   10
 C8 
A   11
 C9 
A   12
 C10
A   13
 O2 
A   14
 C11
A   15
 C12
A   16
 C13
A   17
 C14
A   18
 N2 
A   19
 H1 
A   20
 H2 
A   21
 H3 
A   22
 H4 
A   23
 H5 
A   24
 H6 
A   25
 H7 
A   26
 H8 
A   27
 H9 
A   28
 H10
A   29
 H11
A   30
 H12
A   31
 H13
A   32
 H14
A   33
 H15
A   34
 H16
M  END
>  <ref_pdb>  (70) 
x0147_0A

>  <ref_mols>  (70) 
x2149_0AS2,x1140_0AS2

>  <original SMILES>  (70) 
[H]c1oc2c([H])c([H])c(C([H])([H])N([H])C([H])([H])[C@@]3([H])N([H])C(=O)C([H])([H])C3([H])[H])c([H])c2c1[H]

>  <index>  (70) 
9487

>  <∆∆G>  (70) 
-7.34866

>  <comRMSD>  (70) 
0.453769

>  <N_constrained_atoms>  (70) 
17.0

>  <N_unconstrained_atoms>  (70) 
2.0

>  <LE>  (70) 
0.386772

>  <percent_hybrid>  (70) 
42.0

>  <max_hit_Tanimoto>  (70) 
0.165966

>  <largest_ring>  (70) 
6

>  <N_interactions_kept>  (70) 
2.5

>  <N_interactions_lost>  (70) 
1.0

>  <interaction_uniqueness_metric>  (70) 
0.032151

>  <N_HA>  (70) 
18

>  <N_rotatable_bonds>  (70) 
4

>  <N_interactions>  (70) 
2

>  <N_PAINS>  (70) 
0

>  <UFF_Gibbs>  (70) 
86.955037

>  <strain_per_HA>  (70) 
4.830809

>  <ad_hoc_penalty>  (70) 
-28.721478

>  <cluster>  (70) 
2240

>  <ranked>  (70) 
81.0

>  <merger_rank>  (70) 
1

>  <hydroph_interaction:LEU:127>  (70) 
0

>  <hbond:GLY:128>  (70) 
0

>  <hydroph_interaction:ALA:144>  (70) 
0

>  <hbond:GLY:164>  (70) 
0

>  <hbond:HIS:40>  (70) 
0

>  <pistack:HIS:40>  (70) 
1

>  <hydroph_interaction:LEU:125>  (70) 
0

>  <hydroph_interaction:PHE:170>  (70) 
0

>  <hydroph_interaction:HIS:40>  (70) 
1

>  <pication:HIS:40>  (70) 
0

>  <hbond:THR:142>  (70) 
0

>  <hbond:HIS:161>  (70) 
0

>  <hbond:GLY:166>  (70) 
0

>  <hbond:VAL:162>  (70) 
0

>  <hydroph_interaction:ASN:165>  (70) 
0

>  <hbond:ASN:126>  (70) 
0

>  <hbond:ARG:143>  (70) 
0

>  <hbond:GLU:71>  (70) 
0

>  <saltbridge:HIS:161>  (70) 
0

>  <hbond:ALA:144>  (70) 
0

>  <hbond:GLY:145>  (70) 
0

>  <hbond:GLN:146>  (70) 
0

>  <hbond:CYS:147>  (70) 
0

>  <halogenbond:ASN:126>  (70) 
0

>  <saltbridge:HIS:40>  (70) 
0

>  <hbond:LEU:127>  (70) 
0

>  <hbond:THR:130>  (70) 
0

>  <hydroph_interaction:GLU:71>  (70) 
0

>  <hydroph_interaction:THR:130>  (70) 
0

>  <saltbridge:ARG:143>  (70) 
0

>  <saltbridge:GLU:71>  (70) 
0

>  <hbond:GLY:129>  (70) 
0

>  <halogenbond:CYS:147>  (70) 
0

>  <hydroph_interaction:THR:39>  (70) 
0

>  <hbond:ASN:69>  (70) 
0

>  <hydroph_interaction:THR:132>  (70) 
0

>  <hbond:TYR:122>  (70) 
0

>  <hydroph_interaction:PHE:109>  (70) 
0

>  <hydroph_interaction:PHE:140>  (70) 
0

>  <hbond:PRO:141>  (70) 
0

$$$$
Z2643960977-x1084-0A
     RDKit          3D

 43 44  0  0  0  0  0  0  0  0999 V2000
   -2.8600   -7.5830    2.5420 C   0  0  0  0  0  0  0  0  0  0  0  0
   -3.4720   -8.8370    1.9070 C   0  0  0  0  0  0  0  0  0  0  0  0
   -4.0260   -8.3590    0.5750 C   0  0  0  0  0  0  0  0  0  0  0  0
   -3.0570   -7.6670   -0.3280 C   0  0  0  0  0  0  0  0  0  0  0  0
   -3.4730   -7.1280   -1.6720 C   0  0  0  0  0  0  0  0  0  0  0  0
   -4.9300   -7.3660   -1.9540 C   0  0  0  0  0  0  0  0  0  0  0  0
   -5.2700   -6.7720   -3.3000 C   0  0  0  0  0  0  0  0  0  0  0  0
   -6.6810   -6.2830   -3.1430 C   0  0  0  0  0  0  0  0  0  0  0  0
   -7.3860   -6.3860   -2.1590 O   0  0  0  0  0  0  0  0  0  0  0  0
   -7.1230   -5.6570   -4.3710 N   0  0  0  0  0  0  0  0  0  0  0  0
   -7.2580   -6.7600   -5.3560 C   0  0  0  0  0  0  0  0  0  0  0  0
   -8.5680   -6.6420   -6.1680 C   0  0  0  0  0  0  0  0  0  0  0  0
   -8.5240   -5.3690   -7.0280 C   0  0  0  0  0  0  0  0  0  0  0  0
   -7.3050   -5.2030   -7.9100 C   0  0  0  0  0  0  0  0  0  0  0  0
   -7.1060   -4.1320   -8.7100 N   0  0  0  0  0  0  0  0  0  0  0  0
   -8.0720   -3.1840   -8.6830 C   0  0  0  0  0  0  0  0  0  0  0  0
   -9.2280   -3.2010   -7.9510 C   0  0  0  0  0  0  0  0  0  0  0  0
   -9.4990   -4.3700   -7.0550 C   0  0  0  0  0  0  0  0  0  0  0  0
  -10.6660   -4.3980   -6.3150 C   0  0  0  0  0  0  0  0  0  0  0  0
   -5.8010   -8.0320   -1.0760 C   0  0  0  0  0  0  0  0  0  0  0  0
   -5.3560   -8.5210    0.1660 C   0  0  0  0  0  0  0  0  0  0  0  0
   -2.1750   -7.8250    3.3590 H   0  0  0  0  0  0  0  0  0  0  0  0
   -3.6460   -6.9400    2.9580 H   0  0  0  0  0  0  0  0  0  0  0  0
   -2.3030   -6.9930    1.8020 H   0  0  0  0  0  0  0  0  0  0  0  0
   -4.3190   -9.1900    2.5110 H   0  0  0  0  0  0  0  0  0  0  0  0
   -2.7340   -9.6400    1.8290 H   0  0  0  0  0  0  0  0  0  0  0  0
   -2.0230   -7.5530    0.0030 H   0  0  0  0  0  0  0  0  0  0  0  0
   -2.7310   -6.6320   -2.2980 H   0  0  0  0  0  0  0  0  0  0  0  0
   -5.1840   -7.5020   -4.1110 H   0  0  0  0  0  0  0  0  0  0  0  0
   -4.6280   -5.9240   -3.5250 H   0  0  0  0  0  0  0  0  0  0  0  0
   -7.8850   -4.9970   -4.3030 H   0  0  0  0  0  0  0  0  0  0  0  0
   -6.3390   -6.7150   -5.9250 H   0  0  0  0  0  0  0  0  0  0  0  0
   -7.1390   -7.6680   -4.7760 H   0  0  0  0  0  0  0  0  0  0  0  0
   -8.6990   -7.5350   -6.7580 H   0  0  0  0  0  0  0  0  0  0  0  0
   -9.4270   -6.6170   -5.4870 H   0  0  0  0  0  0  0  0  0  0  0  0
   -6.5090   -5.9550   -7.9390 H   0  0  0  0  0  0  0  0  0  0  0  0
   -7.9040   -2.3330   -9.3050 H   0  0  0  0  0  0  0  0  0  0  0  0
   -9.9260   -2.3680   -8.0330 H   0  0  0  0  0  0  0  0  0  0  0  0
  -11.0370   -3.3930   -6.0760 H   0  0  0  0  0  0  0  0  0  0  0  0
  -10.5030   -4.9550   -5.3840 H   0  0  0  0  0  0  0  0  0  0  0  0
  -11.4470   -4.9190   -6.8810 H   0  0  0  0  0  0  0  0  0  0  0  0
   -6.8500   -8.1760   -1.3500 H   0  0  0  0  0  0  0  0  0  0  0  0
   -6.0690   -9.0270    0.8120 H   0  0  0  0  0  0  0  0  0  0  0  0
  1  2  1  0
  2  3  1  0
  3  4  2  0
  4  5  1  0
  5  6  2  0
  6  7  1  0
  7  8  1  0
  8  9  2  0
  8 10  1  0
 10 11  1  0
 11 12  1  0
 12 13  1  0
 13 14  2  0
 14 15  1  0
 15 16  2  0
 16 17  1  0
 17 18  2  0
 18 19  1  0
  6 20  1  0
 20 21  2  0
 21  3  1  0
 18 13  1  0
  1 22  1  0
  1 23  1  0
  1 24  1  0
  2 25  1  0
  2 26  1  0
  4 27  1  0
  5 28  1  0
  7 29  1  0
  7 30  1  0
 10 31  1  0
 11 32  1  0
 11 33  1  0
 12 34  1  0
 12 35  1  0
 14 36  1  0
 16 37  1  0
 17 38  1  0
 19 39  1  0
 19 40  1  0
 19 41  1  0
 20 42  1  0
 21 43  1  0
A    1
 C1 
A    2
 C2 
A    3
 C3 
A    4
 C4 
A    5
 C5 
A    6
 C6 
A    7
 C7 
A    8
 C8 
A    9
 O1 
A   10
 N1 
A   11
 C9 
A   12
 C10
A   13
 C11
A   14
 C12
A   15
 N2 
A   16
 C13
A   17
 C14
A   18
 C15
A   19
 C16
A   20
 C17
A   21
 C18
A   22
 H1 
A   23
 H2 
A   24
 H3 
A   25
 H4 
A   26
 H5 
A   27
 H6 
A   28
 H7 
A   29
 H8 
A   30
 H9 
A   31
 H10
A   32
 H11
A   33
 H12
A   34
 H13
A   35
 H14
A   36
 H15
A   37
 H16
A   38
 H17
A   39
 H18
A   40
 H19
A   41
 H20
A   42
 H21
A   43
 H22
M  END
>  <ref_pdb>  (71) 
x0147_0A

>  <ref_mols>  (71) 
x1084_0A,x0980_0BS1

>  <original SMILES>  (71) 
[H]c1nc([H])c(C([H])([H])C([H])([H])N([H])C(=O)C([H])([H])c2c([H])c([H])c(C([H])([H])C([H])([H])[H])c([H])c2[H])c(C([H])([H])[H])c1[H]

>  <index>  (71) 
4024

>  <∆∆G>  (71) 
-6.287513

>  <comRMSD>  (71) 
0.682364

>  <N_constrained_atoms>  (71) 
21.0

>  <N_unconstrained_atoms>  (71) 
2.0

>  <LE>  (71) 
0.27337

>  <percent_hybrid>  (71) 
39.0

>  <max_hit_Tanimoto>  (71) 
0.174863

>  <largest_ring>  (71) 
6

>  <N_interactions_kept>  (71) 
2.0

>  <N_interactions_lost>  (71) 
1.0

>  <interaction_uniqueness_metric>  (71) 
0.115725

>  <N_HA>  (71) 
21

>  <N_rotatable_bonds>  (71) 
8

>  <N_interactions>  (71) 
5

>  <N_PAINS>  (71) 
0

>  <UFF_Gibbs>  (71) 
130.78321

>  <strain_per_HA>  (71) 
6.227742

>  <ad_hoc_penalty>  (71) 
-28.699193

>  <cluster>  (71) 
1500

>  <ranked>  (71) 
82.0

>  <merger_rank>  (71) 
1

>  <hydroph_interaction:LEU:127>  (71) 
1

>  <hbond:GLY:128>  (71) 
0

>  <hydroph_interaction:ALA:144>  (71) 
1

>  <hbond:GLY:164>  (71) 
1

>  <hbond:HIS:40>  (71) 
0

>  <pistack:HIS:40>  (71) 
0

>  <hydroph_interaction:LEU:125>  (71) 
0

>  <hydroph_interaction:PHE:170>  (71) 
0

>  <hydroph_interaction:HIS:40>  (71) 
1

>  <pication:HIS:40>  (71) 
1

>  <hbond:THR:142>  (71) 
0

>  <hbond:HIS:161>  (71) 
0

>  <hbond:GLY:166>  (71) 
0

>  <hbond:VAL:162>  (71) 
0

>  <hydroph_interaction:ASN:165>  (71) 
0

>  <hbond:ASN:126>  (71) 
0

>  <hbond:ARG:143>  (71) 
0

>  <hbond:GLU:71>  (71) 
0

>  <saltbridge:HIS:161>  (71) 
0

>  <hbond:ALA:144>  (71) 
0

>  <hbond:GLY:145>  (71) 
0

>  <hbond:GLN:146>  (71) 
0

>  <hbond:CYS:147>  (71) 
0

>  <halogenbond:ASN:126>  (71) 
0

>  <saltbridge:HIS:40>  (71) 
0

>  <hbond:LEU:127>  (71) 
0

>  <hbond:THR:130>  (71) 
0

>  <hydroph_interaction:GLU:71>  (71) 
0

>  <hydroph_interaction:THR:130>  (71) 
0

>  <saltbridge:ARG:143>  (71) 
0

>  <saltbridge:GLU:71>  (71) 
0

>  <hbond:GLY:129>  (71) 
0

>  <halogenbond:CYS:147>  (71) 
0

>  <hydroph_interaction:THR:39>  (71) 
0

>  <hbond:ASN:69>  (71) 
0

>  <hydroph_interaction:THR:132>  (71) 
0

>  <hbond:TYR:122>  (71) 
0

>  <hydroph_interaction:PHE:109>  (71) 
0

>  <hydroph_interaction:PHE:140>  (71) 
0

>  <hbond:PRO:141>  (71) 
0

$$$$
Z3226867952-x1919-0AS10
     RDKit          3D

 39 39  0  0  0  0  0  0  0  0999 V2000
   -5.4610    0.3240   -1.9120 C   0  0  0  0  0  0  0  0  0  0  0  0
   -6.1750    0.1950   -0.5880 C   0  0  0  0  0  0  0  0  0  0  0  0
   -7.2360   -0.8630   -0.6750 C   0  0  0  0  0  0  0  0  0  0  0  0
   -6.6500   -2.1540   -0.7320 O   0  0  0  0  0  0  0  0  0  0  0  0
   -7.5000   -3.1280   -1.3470 C   0  0  0  0  0  0  0  0  0  0  0  0
   -6.8050   -4.3260   -1.5440 C   0  0  0  0  0  0  0  0  0  0  0  0
   -6.7230   -4.8590   -2.8360 C   0  0  0  0  0  0  0  0  0  0  0  0
   -6.4280   -4.1860   -3.8300 O   0  0  0  0  0  0  0  0  0  0  0  0
   -7.0320   -6.3010   -2.8240 N   0  0  0  0  0  0  0  0  0  0  0  0
   -7.3190   -6.8820   -4.1500 C   0  0  0  0  0  0  0  0  0  0  0  0
   -8.6930   -6.4530   -4.7160 C   0  0  0  0  0  0  0  0  0  0  0  0
   -8.3490   -5.8360   -5.9420 C   0  0  0  0  0  0  0  0  0  0  0  0
   -8.8370   -4.6030   -6.3890 C   0  0  0  0  0  0  0  0  0  0  0  0
   -8.3530   -4.0390   -7.7140 C   0  0  0  0  0  0  0  0  0  0  0  0
   -7.4300   -4.7220   -8.5020 C   0  0  0  0  0  0  0  0  0  0  0  0
   -6.9120   -4.3280   -9.6700 O   0  0  0  0  0  0  0  0  0  0  0  0
   -6.9650   -5.9600   -8.0550 C   0  0  0  0  0  0  0  0  0  0  0  0
   -7.4390   -6.5200   -6.7490 C   0  0  0  0  0  0  0  0  0  0  0  0
   -4.4800   -0.1450   -1.8730 H   0  0  0  0  0  0  0  0  0  0  0  0
   -5.3310    1.3770   -2.1740 H   0  0  0  0  0  0  0  0  0  0  0  0
   -6.0360   -0.1580   -2.7080 H   0  0  0  0  0  0  0  0  0  0  0  0
   -6.6260    1.1520   -0.3060 H   0  0  0  0  0  0  0  0  0  0  0  0
   -5.4500   -0.0460    0.1930 H   0  0  0  0  0  0  0  0  0  0  0  0
   -7.8600   -0.8360    0.2250 H   0  0  0  0  0  0  0  0  0  0  0  0
   -7.8950   -0.7060   -1.5380 H   0  0  0  0  0  0  0  0  0  0  0  0
   -7.7850   -2.7340   -2.3290 H   0  0  0  0  0  0  0  0  0  0  0  0
   -8.4070   -3.2760   -0.7560 H   0  0  0  0  0  0  0  0  0  0  0  0
   -7.2410   -5.1120   -0.9250 H   0  0  0  0  0  0  0  0  0  0  0  0
   -5.7770   -4.1730   -1.2270 H   0  0  0  0  0  0  0  0  0  0  0  0
   -6.5480   -6.8710   -2.1330 H   0  0  0  0  0  0  0  0  0  0  0  0
   -6.5040   -6.5580   -4.8080 H   0  0  0  0  0  0  0  0  0  0  0  0
   -7.2670   -7.9760   -4.0880 H   0  0  0  0  0  0  0  0  0  0  0  0
   -9.3440   -7.3140   -4.8810 H   0  0  0  0  0  0  0  0  0  0  0  0
   -9.1970   -5.7450   -4.0510 H   0  0  0  0  0  0  0  0  0  0  0  0
   -9.5550   -4.0630   -5.7640 H   0  0  0  0  0  0  0  0  0  0  0  0
   -8.7280   -3.0690   -8.0640 H   0  0  0  0  0  0  0  0  0  0  0  0
   -7.0480   -3.3740   -9.7550 H   0  0  0  0  0  0  0  0  0  0  0  0
   -6.2450   -6.5190   -8.6640 H   0  0  0  0  0  0  0  0  0  0  0  0
   -7.0540   -7.4800   -6.4270 H   0  0  0  0  0  0  0  0  0  0  0  0
  1  2  1  0
  2  3  1  0
  3  4  1  0
  4  5  1  0
  5  6  1  0
  6  7  1  0
  7  8  2  0
  7  9  1  0
  9 10  1  0
 10 11  1  0
 11 12  1  0
 12 13  2  0
 13 14  1  0
 14 15  2  0
 15 16  1  0
 15 17  1  0
 17 18  2  0
 18 12  1  0
  1 19  1  0
  1 20  1  0
  1 21  1  0
  2 22  1  0
  2 23  1  0
  3 24  1  0
  3 25  1  0
  5 26  1  0
  5 27  1  0
  6 28  1  0
  6 29  1  0
  9 30  1  0
 10 31  1  0
 10 32  1  0
 11 33  1  0
 11 34  1  0
 13 35  1  0
 14 36  1  0
 16 37  1  0
 17 38  1  0
 18 39  1  0
A    1
 C1 
A    2
 C2 
A    3
 C3 
A    4
 O1 
A    5
 C4 
A    6
 C5 
A    7
 C6 
A    8
 O2 
A    9
 N1 
A   10
 C7 
A   11
 C8 
A   12
 C9 
A   13
 C10
A   14
 C11
A   15
 C12
A   16
 O3 
A   17
 C13
A   18
 C14
A   19
 H1 
A   20
 H2 
A   21
 H3 
A   22
 H4 
A   23
 H5 
A   24
 H6 
A   25
 H7 
A   26
 H8 
A   27
 H9 
A   28
 H10
A   29
 H11
A   30
 H12
A   31
 H13
A   32
 H14
A   33
 H15
A   34
 H16
A   35
 H17
A   36
 H18
A   37
 H19
A   38
 H20
A   39
 H21
M  END
>  <ref_pdb>  (72) 
x0147_0A

>  <ref_mols>  (72) 
x1919_0AS10,x1498_0A

>  <original SMILES>  (72) 
[H]Oc1c([H])c([H])c(C([H])([H])C([H])([H])N([H])C(=O)C([H])([H])C([H])([H])OC([H])([H])C([H])([H])C([H])([H])[H])c([H])c1[H]

>  <index>  (72) 
1161

>  <∆∆G>  (72) 
-10.603721

>  <comRMSD>  (72) 
0.683675

>  <N_constrained_atoms>  (72) 
17.0

>  <N_unconstrained_atoms>  (72) 
1.0

>  <LE>  (72) 
0.589096

>  <percent_hybrid>  (72) 
42.0

>  <max_hit_Tanimoto>  (72) 
0.098976

>  <largest_ring>  (72) 
6

>  <N_interactions_kept>  (72) 
1.0

>  <N_interactions_lost>  (72) 
2.5

>  <interaction_uniqueness_metric>  (72) 
0.163298

>  <N_HA>  (72) 
18

>  <N_rotatable_bonds>  (72) 
10

>  <N_interactions>  (72) 
5

>  <N_PAINS>  (72) 
0

>  <UFF_Gibbs>  (72) 
108.491166

>  <strain_per_HA>  (72) 
6.027254

>  <ad_hoc_penalty>  (72) 
-28.606297

>  <cluster>  (72) 
124

>  <ranked>  (72) 
83.0

>  <merger_rank>  (72) 
1

>  <hydroph_interaction:LEU:127>  (72) 
0

>  <hbond:GLY:128>  (72) 
1

>  <hydroph_interaction:ALA:144>  (72) 
0

>  <hbond:GLY:164>  (72) 
1

>  <hbond:HIS:40>  (72) 
0

>  <pistack:HIS:40>  (72) 
0

>  <hydroph_interaction:LEU:125>  (72) 
1

>  <hydroph_interaction:PHE:170>  (72) 
1

>  <hydroph_interaction:HIS:40>  (72) 
0

>  <pication:HIS:40>  (72) 
0

>  <hbond:THR:142>  (72) 
0

>  <hbond:HIS:161>  (72) 
1

>  <hbond:GLY:166>  (72) 
0

>  <hbond:VAL:162>  (72) 
0

>  <hydroph_interaction:ASN:165>  (72) 
0

>  <hbond:ASN:126>  (72) 
0

>  <hbond:ARG:143>  (72) 
0

>  <hbond:GLU:71>  (72) 
0

>  <saltbridge:HIS:161>  (72) 
0

>  <hbond:ALA:144>  (72) 
0

>  <hbond:GLY:145>  (72) 
0

>  <hbond:GLN:146>  (72) 
0

>  <hbond:CYS:147>  (72) 
0

>  <halogenbond:ASN:126>  (72) 
0

>  <saltbridge:HIS:40>  (72) 
0

>  <hbond:LEU:127>  (72) 
0

>  <hbond:THR:130>  (72) 
0

>  <hydroph_interaction:GLU:71>  (72) 
0

>  <hydroph_interaction:THR:130>  (72) 
0

>  <saltbridge:ARG:143>  (72) 
0

>  <saltbridge:GLU:71>  (72) 
0

>  <hbond:GLY:129>  (72) 
0

>  <halogenbond:CYS:147>  (72) 
0

>  <hydroph_interaction:THR:39>  (72) 
0

>  <hbond:ASN:69>  (72) 
0

>  <hydroph_interaction:THR:132>  (72) 
0

>  <hbond:TYR:122>  (72) 
0

>  <hydroph_interaction:PHE:109>  (72) 
0

>  <hydroph_interaction:PHE:140>  (72) 
0

>  <hbond:PRO:141>  (72) 
0

$$$$
Z1955663386-x1084-0AS1
     RDKit          3D

 42 43  0  0  0  0  0  0  0  0999 V2000
   -6.0200   -5.6240   -0.8900 C   0  0  0  0  0  0  0  0  0  0  0  0
   -5.6580   -6.2750   -2.2060 C   0  0  0  0  0  0  0  0  0  0  0  0
   -4.7020   -7.3040   -2.1550 C   0  0  0  0  0  0  0  0  0  0  0  0
   -6.8870   -6.7840   -2.8010 N   0  0  0  0  0  0  0  0  0  0  0  0
   -6.9520   -6.9720   -4.1710 C   0  0  0  0  0  0  0  0  0  0  0  0
   -6.8970   -8.0680   -4.7050 O   0  0  0  0  0  0  0  0  0  0  0  0
   -7.0930   -5.7970   -4.8950 C   0  0  0  0  0  0  0  0  0  0  0  0
   -7.1650   -6.0460   -6.3230 O   0  0  0  0  0  0  0  0  0  0  0  0
   -8.0430   -5.1670   -6.8490 C   0  0  0  0  0  0  0  0  0  0  0  0
   -7.8050   -4.0840   -7.6850 C   0  0  0  0  0  0  0  0  0  0  0  0
   -8.9630   -3.1910   -8.0540 C   0  0  0  0  0  0  0  0  0  0  0  0
  -10.2050   -3.5180   -7.5500 C   0  0  0  0  0  0  0  0  0  0  0  0
  -11.2510   -2.7200   -7.8230 O   0  0  0  0  0  0  0  0  0  0  0  0
  -12.0130   -2.5770   -6.6070 C   0  0  0  0  0  0  0  0  0  0  0  0
  -12.9780   -1.5730   -6.7440 C   0  0  0  0  0  0  0  0  0  0  0  0
  -11.0030   -2.1460   -5.5150 C   0  0  0  0  0  0  0  0  0  0  0  0
  -12.6150   -3.9200   -6.1830 C   0  0  0  0  0  0  0  0  0  0  0  0
  -11.6650   -4.9380   -6.3040 C   0  0  0  0  0  0  0  0  0  0  0  0
  -11.9550   -6.0950   -6.0160 O   0  0  0  0  0  0  0  0  0  0  0  0
  -10.3810   -4.6360   -6.7640 C   0  0  0  0  0  0  0  0  0  0  0  0
   -9.3240   -5.4460   -6.4150 C   0  0  0  0  0  0  0  0  0  0  0  0
   -5.3340   -5.9240   -0.0920 H   0  0  0  0  0  0  0  0  0  0  0  0
   -5.9820   -4.5350   -0.9760 H   0  0  0  0  0  0  0  0  0  0  0  0
   -7.0320   -5.9050   -0.5880 H   0  0  0  0  0  0  0  0  0  0  0  0
   -5.2900   -5.5150   -2.8970 H   0  0  0  0  0  0  0  0  0  0  0  0
   -4.5600   -7.6610   -1.1320 H   0  0  0  0  0  0  0  0  0  0  0  0
   -5.0080   -8.1630   -2.7630 H   0  0  0  0  0  0  0  0  0  0  0  0
   -3.7340   -6.9570   -2.5310 H   0  0  0  0  0  0  0  0  0  0  0  0
   -7.5060   -7.3220   -2.2110 H   0  0  0  0  0  0  0  0  0  0  0  0
   -8.0120   -5.2910   -4.5700 H   0  0  0  0  0  0  0  0  0  0  0  0
   -6.2300   -5.1810   -4.6360 H   0  0  0  0  0  0  0  0  0  0  0  0
   -6.8250   -3.8360   -8.0670 H   0  0  0  0  0  0  0  0  0  0  0  0
   -8.8210   -2.3190   -8.6830 H   0  0  0  0  0  0  0  0  0  0  0  0
  -13.1670   -1.3820   -7.8090 H   0  0  0  0  0  0  0  0  0  0  0  0
  -12.6650   -0.6310   -6.2800 H   0  0  0  0  0  0  0  0  0  0  0  0
  -13.9300   -1.8430   -6.2750 H   0  0  0  0  0  0  0  0  0  0  0  0
  -10.8370   -2.9530   -4.7950 H   0  0  0  0  0  0  0  0  0  0  0  0
  -11.3480   -1.2590   -4.9720 H   0  0  0  0  0  0  0  0  0  0  0  0
  -10.0230   -1.9120   -5.9510 H   0  0  0  0  0  0  0  0  0  0  0  0
  -13.4630   -4.1600   -6.8330 H   0  0  0  0  0  0  0  0  0  0  0  0
  -12.9860   -3.8300   -5.1580 H   0  0  0  0  0  0  0  0  0  0  0  0
   -9.4930   -6.3110   -5.7760 H   0  0  0  0  0  0  0  0  0  0  0  0
  1  2  1  0
  2  3  1  0
  2  4  1  0
  4  5  1  0
  5  6  2  0
  5  7  1  0
  7  8  1  0
  8  9  1  0
  9 10  2  0
 10 11  1  0
 11 12  2  0
 12 13  1  0
 13 14  1  0
 14 15  1  0
 14 16  1  0
 14 17  1  0
 17 18  1  0
 18 19  2  0
 18 20  1  0
 20 21  2  0
 21  9  1  0
 20 12  1  0
  1 22  1  0
  1 23  1  0
  1 24  1  0
  2 25  1  0
  3 26  1  0
  3 27  1  0
  3 28  1  0
  4 29  1  0
  7 30  1  0
  7 31  1  0
 10 32  1  0
 11 33  1  0
 15 34  1  0
 15 35  1  0
 15 36  1  0
 16 37  1  0
 16 38  1  0
 16 39  1  0
 17 40  1  0
 17 41  1  0
 21 42  1  0
A    1
 C1 
A    2
 C2 
A    3
 C3 
A    4
 N1 
A    5
 C4 
A    6
 O1 
A    7
 C5 
A    8
 O2 
A    9
 C6 
A   10
 C7 
A   11
 C8 
A   12
 C9 
A   13
 O3 
A   14
 C10
A   15
 C11
A   16
 C12
A   17
 C13
A   18
 C14
A   19
 O4 
A   20
 C15
A   21
 C16
A   22
 H1 
A   23
 H2 
A   24
 H3 
A   25
 H4 
A   26
 H5 
A   27
 H6 
A   28
 H7 
A   29
 H8 
A   30
 H9 
A   31
 H10
A   32
 H11
A   33
 H12
A   34
 H13
A   35
 H14
A   36
 H15
A   37
 H16
A   38
 H17
A   39
 H18
A   40
 H19
A   41
 H20
A   42
 H21
M  END
>  <ref_pdb>  (73) 
x0147_0A

>  <ref_mols>  (73) 
x1084_0AS1,x1604_0A

>  <original SMILES>  (73) 
[H]c1c([H])c2c(c([H])c1OC([H])([H])C(=O)N([H])C([H])(C([H])([H])[H])C([H])([H])[H])C(=O)C([H])([H])C(C([H])([H])[H])(C([H])([H])[H])O2

>  <index>  (73) 
1091

>  <∆∆G>  (73) 
-8.203639

>  <comRMSD>  (73) 
0.77705

>  <N_constrained_atoms>  (73) 
18.0

>  <N_unconstrained_atoms>  (73) 
4.0

>  <LE>  (73) 
0.372893

>  <percent_hybrid>  (73) 
23.0

>  <max_hit_Tanimoto>  (73) 
0.357834

>  <largest_ring>  (73) 
6

>  <N_interactions_kept>  (73) 
2.5

>  <N_interactions_lost>  (73) 
0.0

>  <interaction_uniqueness_metric>  (73) 
0.020194

>  <N_HA>  (73) 
21

>  <N_rotatable_bonds>  (73) 
8

>  <N_interactions>  (73) 
2

>  <N_PAINS>  (73) 
0

>  <UFF_Gibbs>  (73) 
153.281954

>  <strain_per_HA>  (73) 
7.299106

>  <ad_hoc_penalty>  (73) 
-28.480803

>  <cluster>  (73) 
7081

>  <ranked>  (73) 
84.0

>  <merger_rank>  (73) 
2

>  <hydroph_interaction:LEU:127>  (73) 
1

>  <hbond:GLY:128>  (73) 
0

>  <hydroph_interaction:ALA:144>  (73) 
0

>  <hbond:GLY:164>  (73) 
1

>  <hbond:HIS:40>  (73) 
0

>  <pistack:HIS:40>  (73) 
0

>  <hydroph_interaction:LEU:125>  (73) 
0

>  <hydroph_interaction:PHE:170>  (73) 
0

>  <hydroph_interaction:HIS:40>  (73) 
0

>  <pication:HIS:40>  (73) 
0

>  <hbond:THR:142>  (73) 
0

>  <hbond:HIS:161>  (73) 
0

>  <hbond:GLY:166>  (73) 
0

>  <hbond:VAL:162>  (73) 
0

>  <hydroph_interaction:ASN:165>  (73) 
0

>  <hbond:ASN:126>  (73) 
0

>  <hbond:ARG:143>  (73) 
0

>  <hbond:GLU:71>  (73) 
0

>  <saltbridge:HIS:161>  (73) 
0

>  <hbond:ALA:144>  (73) 
0

>  <hbond:GLY:145>  (73) 
0

>  <hbond:GLN:146>  (73) 
0

>  <hbond:CYS:147>  (73) 
0

>  <halogenbond:ASN:126>  (73) 
0

>  <saltbridge:HIS:40>  (73) 
0

>  <hbond:LEU:127>  (73) 
0

>  <hbond:THR:130>  (73) 
0

>  <hydroph_interaction:GLU:71>  (73) 
0

>  <hydroph_interaction:THR:130>  (73) 
0

>  <saltbridge:ARG:143>  (73) 
0

>  <saltbridge:GLU:71>  (73) 
0

>  <hbond:GLY:129>  (73) 
0

>  <halogenbond:CYS:147>  (73) 
0

>  <hydroph_interaction:THR:39>  (73) 
0

>  <hbond:ASN:69>  (73) 
0

>  <hydroph_interaction:THR:132>  (73) 
0

>  <hbond:TYR:122>  (73) 
0

>  <hydroph_interaction:PHE:109>  (73) 
0

>  <hydroph_interaction:PHE:140>  (73) 
0

>  <hbond:PRO:141>  (73) 
0

$$$$
Z2073283434-x1071-0AS2
     RDKit          3D

 31 32  0  0  0  0  0  0  0  0999 V2000
   -7.6020    0.0850   -1.7210 C   0  0  0  0  0  0  0  0  0  0  0  0
   -6.7960   -1.1030   -1.2400 C   0  0  0  0  0  0  0  0  0  0  0  0
   -6.2540   -1.0580   -0.1500 O   0  0  0  0  0  0  0  0  0  0  0  0
   -6.7500   -2.1710   -2.1410 N   0  0  0  0  0  0  0  0  0  0  0  0
   -6.6670   -3.5870   -1.7410 C   0  0  0  0  0  0  0  0  0  0  0  0
   -6.7620   -4.5690   -2.9320 C   0  0  0  0  0  0  0  0  0  0  0  0
   -6.6250   -4.2500   -4.1100 O   0  0  0  0  0  0  0  0  0  0  0  0
   -7.0310   -5.8580   -2.4930 O   0  0  0  0  0  0  0  0  0  0  0  0
   -6.1780   -6.9430   -2.9650 C   0  0  0  0  0  0  0  0  0  0  0  0
   -5.5480   -7.5630   -1.7450 C   0  0  0  0  0  0  0  0  0  0  0  0
   -6.2000   -8.5900   -1.0220 C   0  0  0  0  0  0  0  0  0  0  0  0
   -5.6120   -9.1260    0.1190 C   0  0  0  0  0  0  0  0  0  0  0  0
   -4.3760   -8.6140    0.5180 C   0  0  0  0  0  0  0  0  0  0  0  0
   -3.6600   -9.0060    1.6130 O   0  0  0  0  0  0  0  0  0  0  0  0
   -2.5290   -8.2490    1.6270 C   0  0  0  0  0  0  0  0  0  0  0  0
   -2.5260   -7.3800    0.5420 C   0  0  0  0  0  0  0  0  0  0  0  0
   -3.7140   -7.6160   -0.1730 C   0  0  0  0  0  0  0  0  0  0  0  0
   -4.3050   -7.0910   -1.3270 C   0  0  0  0  0  0  0  0  0  0  0  0
   -8.6240   -0.2210   -1.9490 H   0  0  0  0  0  0  0  0  0  0  0  0
   -7.1450    0.4910   -2.6230 H   0  0  0  0  0  0  0  0  0  0  0  0
   -7.6270    0.8460   -0.9370 H   0  0  0  0  0  0  0  0  0  0  0  0
   -6.9530   -1.9680   -3.1290 H   0  0  0  0  0  0  0  0  0  0  0  0
   -7.4770   -3.8040   -1.0400 H   0  0  0  0  0  0  0  0  0  0  0  0
   -5.7100   -3.7360   -1.2460 H   0  0  0  0  0  0  0  0  0  0  0  0
   -5.3900   -6.5580   -3.6270 H   0  0  0  0  0  0  0  0  0  0  0  0
   -6.7760   -7.6840   -3.5130 H   0  0  0  0  0  0  0  0  0  0  0  0
   -7.1700   -8.9670   -1.3480 H   0  0  0  0  0  0  0  0  0  0  0  0
   -6.0930   -9.9110    0.6890 H   0  0  0  0  0  0  0  0  0  0  0  0
   -1.8420   -8.4300    2.4400 H   0  0  0  0  0  0  0  0  0  0  0  0
   -1.7580   -6.6760    0.3200 H   0  0  0  0  0  0  0  0  0  0  0  0
   -3.8100   -6.3190   -1.8890 H   0  0  0  0  0  0  0  0  0  0  0  0
  1  2  1  0
  2  3  2  0
  2  4  1  0
  4  5  1  0
  5  6  1  0
  6  7  2  0
  6  8  1  0
  8  9  1  0
  9 10  1  0
 10 11  2  0
 11 12  1  0
 12 13  2  0
 13 14  1  0
 14 15  1  0
 15 16  2  0
 16 17  1  0
 17 18  2  0
 18 10  1  0
 17 13  1  0
  1 19  1  0
  1 20  1  0
  1 21  1  0
  4 22  1  0
  5 23  1  0
  5 24  1  0
  9 25  1  0
  9 26  1  0
 11 27  1  0
 12 28  1  0
 15 29  1  0
 16 30  1  0
 18 31  1  0
A    1
 C1 
A    2
 C2 
A    3
 O1 
A    4
 N1 
A    5
 C3 
A    6
 C4 
A    7
 O2 
A    8
 O3 
A    9
 C5 
A   10
 C6 
A   11
 C7 
A   12
 C8 
A   13
 C9 
A   14
 O4 
A   15
 C10
A   16
 C11
A   17
 C12
A   18
 C13
A   19
 H1 
A   20
 H2 
A   21
 H3 
A   22
 H4 
A   23
 H5 
A   24
 H6 
A   25
 H7 
A   26
 H8 
A   27
 H9 
A   28
 H10
A   29
 H11
A   30
 H12
A   31
 H13
M  END
>  <ref_pdb>  (74) 
x0147_0A

>  <ref_mols>  (74) 
x1071_0AS2,x1140_0AS4

>  <original SMILES>  (74) 
[H]c1oc2c([H])c([H])c(C([H])([H])OC(=O)C([H])([H])N([H])C(=O)C([H])([H])[H])c([H])c2c1[H]

>  <index>  (74) 
16517

>  <∆∆G>  (74) 
-7.128141

>  <comRMSD>  (74) 
0.586216

>  <N_constrained_atoms>  (74) 
16.0

>  <N_unconstrained_atoms>  (74) 
2.0

>  <LE>  (74) 
0.396008

>  <percent_hybrid>  (74) 
44.0

>  <max_hit_Tanimoto>  (74) 
0.076152

>  <largest_ring>  (74) 
6

>  <N_interactions_kept>  (74) 
1.0

>  <N_interactions_lost>  (74) 
3.5

>  <interaction_uniqueness_metric>  (74) 
0.105765

>  <N_HA>  (74) 
18

>  <N_rotatable_bonds>  (74) 
5

>  <N_interactions>  (74) 
7

>  <N_PAINS>  (74) 
0

>  <UFF_Gibbs>  (74) 
34.087885

>  <strain_per_HA>  (74) 
1.893761

>  <ad_hoc_penalty>  (74) 
-28.438403

>  <cluster>  (74) 
3157

>  <ranked>  (74) 
85.0

>  <merger_rank>  (74) 
2

>  <hydroph_interaction:LEU:127>  (74) 
2

>  <hbond:GLY:128>  (74) 
1

>  <hydroph_interaction:ALA:144>  (74) 
0

>  <hbond:GLY:164>  (74) 
2

>  <hbond:HIS:40>  (74) 
0

>  <pistack:HIS:40>  (74) 
1

>  <hydroph_interaction:LEU:125>  (74) 
0

>  <hydroph_interaction:PHE:170>  (74) 
0

>  <hydroph_interaction:HIS:40>  (74) 
0

>  <pication:HIS:40>  (74) 
0

>  <hbond:THR:142>  (74) 
0

>  <hbond:HIS:161>  (74) 
0

>  <hbond:GLY:166>  (74) 
0

>  <hbond:VAL:162>  (74) 
0

>  <hydroph_interaction:ASN:165>  (74) 
1

>  <hbond:ASN:126>  (74) 
0

>  <hbond:ARG:143>  (74) 
0

>  <hbond:GLU:71>  (74) 
0

>  <saltbridge:HIS:161>  (74) 
0

>  <hbond:ALA:144>  (74) 
0

>  <hbond:GLY:145>  (74) 
0

>  <hbond:GLN:146>  (74) 
0

>  <hbond:CYS:147>  (74) 
0

>  <halogenbond:ASN:126>  (74) 
0

>  <saltbridge:HIS:40>  (74) 
0

>  <hbond:LEU:127>  (74) 
0

>  <hbond:THR:130>  (74) 
0

>  <hydroph_interaction:GLU:71>  (74) 
0

>  <hydroph_interaction:THR:130>  (74) 
0

>  <saltbridge:ARG:143>  (74) 
0

>  <saltbridge:GLU:71>  (74) 
0

>  <hbond:GLY:129>  (74) 
0

>  <halogenbond:CYS:147>  (74) 
0

>  <hydroph_interaction:THR:39>  (74) 
0

>  <hbond:ASN:69>  (74) 
0

>  <hydroph_interaction:THR:132>  (74) 
0

>  <hbond:TYR:122>  (74) 
0

>  <hydroph_interaction:PHE:109>  (74) 
0

>  <hydroph_interaction:PHE:140>  (74) 
0

>  <hbond:PRO:141>  (74) 
0

$$$$
Z2643901896-x1071-0AS2
     RDKit          3D

 37 38  0  0  0  0  0  0  0  0999 V2000
   -6.3000   -4.8520   -1.0850 C   0  0  0  0  0  0  0  0  0  0  0  0
   -7.2390   -4.2390   -2.0710 C   0  0  0  0  0  0  0  0  0  0  0  0
   -7.0280   -2.9110   -2.5690 C   0  0  0  0  0  0  0  0  0  0  0  0
   -6.7560   -1.3410   -1.6170 S   0  0  0  0  0  6  0  0  0  0  0  0
   -8.2620   -0.4110   -1.7510 C   0  0  0  0  0  0  0  0  0  0  0  0
   -6.6360   -1.5290   -0.2120 O   0  0  0  0  0  0  0  0  0  0  0  0
   -5.7500   -0.5210   -2.2680 O   0  0  0  0  0  0  0  0  0  0  0  0
   -7.2960   -5.2770   -3.2270 C   0  0  0  0  0  0  0  0  0  0  0  0
   -8.3130   -5.4760   -3.8810 O   0  0  0  0  0  0  0  0  0  0  0  0
   -6.0260   -6.0390   -3.4820 N   0  0  0  0  0  0  0  0  0  0  0  0
   -6.0210   -7.5110   -3.2480 C   0  0  0  0  0  0  0  0  0  0  0  0
   -5.4480   -7.8960   -1.8940 C   0  0  0  0  0  0  0  0  0  0  0  0
   -6.2130   -8.6910   -0.9890 C   0  0  0  0  0  0  0  0  0  0  0  0
   -5.6950   -9.0430    0.2700 C   0  0  0  0  0  0  0  0  0  0  0  0
   -4.4420   -8.6280    0.6550 C   0  0  0  0  0  0  0  0  0  0  0  0
   -3.8360   -8.8520    1.7460 O   0  0  0  0  0  0  0  0  0  0  0  0
   -2.5700   -8.1640    1.5550 C   0  0  0  0  0  0  0  0  0  0  0  0
   -2.5300   -7.5800    0.3430 C   0  0  0  0  0  0  0  0  0  0  0  0
   -3.7200   -7.8690   -0.2350 C   0  0  0  0  0  0  0  0  0  0  0  0
   -4.1460   -7.4640   -1.5180 C   0  0  0  0  0  0  0  0  0  0  0  0
   -5.5160   -4.2400   -0.7360 H   0  0  0  0  0  0  0  0  0  0  0  0
   -6.8630   -5.2000   -0.2230 H   0  0  0  0  0  0  0  0  0  0  0  0
   -5.8260   -5.7270   -1.5330 H   0  0  0  0  0  0  0  0  0  0  0  0
   -8.2490   -4.2520   -1.6470 H   0  0  0  0  0  0  0  0  0  0  0  0
   -6.2170   -2.9280   -3.3020 H   0  0  0  0  0  0  0  0  0  0  0  0
   -7.9460   -2.7180   -3.1290 H   0  0  0  0  0  0  0  0  0  0  0  0
   -8.0430    0.6440   -1.9580 H   0  0  0  0  0  0  0  0  0  0  0  0
   -8.8560   -0.4860   -0.8330 H   0  0  0  0  0  0  0  0  0  0  0  0
   -8.8860   -0.8470   -2.5440 H   0  0  0  0  0  0  0  0  0  0  0  0
   -5.1550   -5.5290   -3.3520 H   0  0  0  0  0  0  0  0  0  0  0  0
   -7.0390   -7.8920   -3.3230 H   0  0  0  0  0  0  0  0  0  0  0  0
   -5.4370   -8.0300   -4.0210 H   0  0  0  0  0  0  0  0  0  0  0  0
   -7.2110   -9.0300   -1.2690 H   0  0  0  0  0  0  0  0  0  0  0  0
   -6.2880   -9.6530    0.9640 H   0  0  0  0  0  0  0  0  0  0  0  0
   -1.7450   -8.1140    2.2800 H   0  0  0  0  0  0  0  0  0  0  0  0
   -1.7300   -7.0150   -0.0710 H   0  0  0  0  0  0  0  0  0  0  0  0
   -3.5270   -6.8640   -2.1760 H   0  0  0  0  0  0  0  0  0  0  0  0
  1  2  1  0
  2  3  1  0
  3  4  1  0
  4  5  1  0
  4  6  2  0
  4  7  2  0
  2  8  1  0
  8  9  2  0
  8 10  1  0
 10 11  1  0
 11 12  1  0
 12 13  2  0
 13 14  1  0
 14 15  2  0
 15 16  1  0
 16 17  1  0
 17 18  2  0
 18 19  1  0
 19 20  2  0
 20 12  1  0
 19 15  1  0
  1 21  1  0
  1 22  1  0
  1 23  1  0
  2 24  1  0
  3 25  1  0
  3 26  1  0
  5 27  1  0
  5 28  1  0
  5 29  1  0
 10 30  1  0
 11 31  1  0
 11 32  1  0
 13 33  1  0
 14 34  1  0
 17 35  1  0
 18 36  1  0
 20 37  1  0
A    1
 C1 
A    2
 C2 
A    3
 C3 
A    4
 S1 
A    5
 C4 
A    6
 O1 
A    7
 O2 
A    8
 C5 
A    9
 O3 
A   10
 N1 
A   11
 C6 
A   12
 C7 
A   13
 C8 
A   14
 C9 
A   15
 C10
A   16
 O4 
A   17
 C11
A   18
 C12
A   19
 C13
A   20
 C14
A   21
 H1 
A   22
 H2 
A   23
 H3 
A   24
 H4 
A   25
 H5 
A   26
 H6 
A   27
 H7 
A   28
 H8 
A   29
 H9 
A   30
 H10
A   31
 H11
A   32
 H12
A   33
 H13
A   34
 H14
A   35
 H15
A   36
 H16
A   37
 H17
M  END
>  <ref_pdb>  (75) 
x0147_0A

>  <ref_mols>  (75) 
x1071_0AS2,x1140_0A

>  <original SMILES>  (75) 
[H]c1oc2c([H])c([H])c(C([H])([H])N([H])C(=O)C([H])(C([H])([H])[H])C([H])([H])S(=O)(=O)C([H])([H])[H])c([H])c2c1[H]

>  <index>  (75) 
6543

>  <∆∆G>  (75) 
-7.631171

>  <comRMSD>  (75) 
0.734613

>  <N_constrained_atoms>  (75) 
21.0

>  <N_unconstrained_atoms>  (75) 
0.0

>  <LE>  (75) 
0.363389

>  <percent_hybrid>  (75) 
32.0

>  <max_hit_Tanimoto>  (75) 
0.187755

>  <largest_ring>  (75) 
6

>  <N_interactions_kept>  (75) 
4.0

>  <N_interactions_lost>  (75) 
1.5

>  <interaction_uniqueness_metric>  (75) 
0.068627

>  <N_HA>  (75) 
20

>  <N_rotatable_bonds>  (75) 
7

>  <N_interactions>  (75) 
4

>  <N_PAINS>  (75) 
0

>  <UFF_Gibbs>  (75) 
116.159662

>  <strain_per_HA>  (75) 
5.807954

>  <ad_hoc_penalty>  (75) 
-28.408191

>  <cluster>  (75) 
1410

>  <ranked>  (75) 
86.0

>  <merger_rank>  (75) 
2

>  <hydroph_interaction:LEU:127>  (75) 
1

>  <hbond:GLY:128>  (75) 
0

>  <hydroph_interaction:ALA:144>  (75) 
0

>  <hbond:GLY:164>  (75) 
0

>  <hbond:HIS:40>  (75) 
0

>  <pistack:HIS:40>  (75) 
1

>  <hydroph_interaction:LEU:125>  (75) 
0

>  <hydroph_interaction:PHE:170>  (75) 
0

>  <hydroph_interaction:HIS:40>  (75) 
1

>  <pication:HIS:40>  (75) 
0

>  <hbond:THR:142>  (75) 
0

>  <hbond:HIS:161>  (75) 
0

>  <hbond:GLY:166>  (75) 
0

>  <hbond:VAL:162>  (75) 
1

>  <hydroph_interaction:ASN:165>  (75) 
0

>  <hbond:ASN:126>  (75) 
0

>  <hbond:ARG:143>  (75) 
0

>  <hbond:GLU:71>  (75) 
0

>  <saltbridge:HIS:161>  (75) 
0

>  <hbond:ALA:144>  (75) 
0

>  <hbond:GLY:145>  (75) 
0

>  <hbond:GLN:146>  (75) 
0

>  <hbond:CYS:147>  (75) 
0

>  <halogenbond:ASN:126>  (75) 
0

>  <saltbridge:HIS:40>  (75) 
0

>  <hbond:LEU:127>  (75) 
0

>  <hbond:THR:130>  (75) 
0

>  <hydroph_interaction:GLU:71>  (75) 
0

>  <hydroph_interaction:THR:130>  (75) 
0

>  <saltbridge:ARG:143>  (75) 
0

>  <saltbridge:GLU:71>  (75) 
0

>  <hbond:GLY:129>  (75) 
0

>  <halogenbond:CYS:147>  (75) 
0

>  <hydroph_interaction:THR:39>  (75) 
0

>  <hbond:ASN:69>  (75) 
0

>  <hydroph_interaction:THR:132>  (75) 
0

>  <hbond:TYR:122>  (75) 
0

>  <hydroph_interaction:PHE:109>  (75) 
0

>  <hydroph_interaction:PHE:140>  (75) 
0

>  <hbond:PRO:141>  (75) 
0

$$$$
Z4007139881-x1071-0AS2
     RDKit          3D

 43 43  0  0  0  0  0  0  0  0999 V2000
   -1.8380   -8.6620    3.2340 C   0  0  0  0  0  0  0  0  0  0  0  0
   -2.9950   -8.6250    2.2440 C   0  0  0  0  0  0  0  0  0  0  0  0
   -4.2730   -8.0990    2.8650 C   0  0  0  0  0  0  0  0  0  0  0  0
   -5.3240   -7.9390    1.7680 C   0  0  0  0  0  0  0  0  0  0  0  0
   -5.0330   -7.3440    0.5880 N   0  0  0  0  0  0  0  0  0  0  0  0
   -6.2290   -7.1430   -0.2670 C   0  0  0  0  0  0  0  0  0  0  0  0
   -7.3420   -7.5650    0.0460 O   0  0  0  0  0  0  0  0  0  0  0  0
   -6.0130   -6.3750   -1.5130 C   0  0  0  0  0  0  0  0  0  0  0  0
   -6.8800   -5.5080   -1.7910 O   0  0  0  0  0  0  0  0  0  0  0  0
   -6.6070   -4.4040   -2.5930 C   0  0  0  0  0  0  0  0  0  0  0  0
   -6.6080   -4.3250   -3.8300 O   0  0  0  0  0  0  0  0  0  0  0  0
   -6.2870   -3.1460   -2.0280 C   0  0  0  0  0  0  0  0  0  0  0  0
   -7.3560   -2.3540   -1.5780 C   0  0  0  0  0  0  0  0  0  0  0  0
   -7.0200   -0.5800   -1.3390 P   0  0  0  0  0  5  0  0  0  0  0  0
   -6.4130   -0.2360    0.2850 C   0  0  0  0  0  0  0  0  0  0  0  0
   -5.6640   -0.1170   -2.3930 C   0  0  0  0  0  0  0  0  0  0  0  0
   -8.2340    0.2690   -1.5550 O   0  0  0  0  0  0  0  0  0  0  0  0
   -3.7440   -7.7030   -0.0110 C   0  0  0  0  0  0  0  0  0  0  0  0
   -2.6130   -7.7680    1.0290 C   0  0  0  0  0  0  0  0  0  0  0  0
   -2.1970   -8.5750    4.2630 H   0  0  0  0  0  0  0  0  0  0  0  0
   -1.1550   -7.8290    3.0370 H   0  0  0  0  0  0  0  0  0  0  0  0
   -1.2660   -9.5910    3.1460 H   0  0  0  0  0  0  0  0  0  0  0  0
   -3.1740   -9.6450    1.8870 H   0  0  0  0  0  0  0  0  0  0  0  0
   -4.1040   -7.1310    3.3480 H   0  0  0  0  0  0  0  0  0  0  0  0
   -4.6360   -8.8100    3.6170 H   0  0  0  0  0  0  0  0  0  0  0  0
   -6.1840   -7.4310    2.2200 H   0  0  0  0  0  0  0  0  0  0  0  0
   -5.7070   -8.9400    1.5410 H   0  0  0  0  0  0  0  0  0  0  0  0
   -5.9350   -6.9620   -2.4250 H   0  0  0  0  0  0  0  0  0  0  0  0
   -5.0670   -5.8620   -1.3870 H   0  0  0  0  0  0  0  0  0  0  0  0
   -5.7470   -2.6640   -2.8480 H   0  0  0  0  0  0  0  0  0  0  0  0
   -5.5260   -3.3860   -1.3050 H   0  0  0  0  0  0  0  0  0  0  0  0
   -8.1870   -2.4370   -2.2850 H   0  0  0  0  0  0  0  0  0  0  0  0
   -7.7080   -2.7580   -0.6230 H   0  0  0  0  0  0  0  0  0  0  0  0
   -6.6180    0.8050    0.5540 H   0  0  0  0  0  0  0  0  0  0  0  0
   -5.3370   -0.3530    0.3200 H   0  0  0  0  0  0  0  0  0  0  0  0
   -6.8940   -0.8720    1.0360 H   0  0  0  0  0  0  0  0  0  0  0  0
   -4.7620    0.1070   -1.8120 H   0  0  0  0  0  0  0  0  0  0  0  0
   -5.4060   -0.9200   -3.0790 H   0  0  0  0  0  0  0  0  0  0  0  0
   -5.9280    0.7620   -2.9850 H   0  0  0  0  0  0  0  0  0  0  0  0
   -3.8370   -8.7050   -0.4500 H   0  0  0  0  0  0  0  0  0  0  0  0
   -3.4640   -7.0100   -0.8070 H   0  0  0  0  0  0  0  0  0  0  0  0
   -2.3430   -6.7610    1.3690 H   0  0  0  0  0  0  0  0  0  0  0  0
   -1.7250   -8.2090    0.5800 H   0  0  0  0  0  0  0  0  0  0  0  0
  1  2  1  0
  2  3  1  0
  3  4  1  0
  4  5  1  0
  5  6  1  0
  6  7  2  0
  6  8  1  0
  8  9  1  0
  9 10  1  0
 10 11  2  0
 10 12  1  0
 12 13  1  0
 13 14  1  0
 14 15  1  0
 14 16  1  0
 14 17  2  0
  5 18  1  0
 18 19  1  0
 19  2  1  0
  1 20  1  0
  1 21  1  0
  1 22  1  0
  2 23  1  0
  3 24  1  0
  3 25  1  0
  4 26  1  0
  4 27  1  0
  8 28  1  0
  8 29  1  0
 12 30  1  0
 12 31  1  0
 13 32  1  0
 13 33  1  0
 15 34  1  0
 15 35  1  0
 15 36  1  0
 16 37  1  0
 16 38  1  0
 16 39  1  0
 18 40  1  0
 18 41  1  0
 19 42  1  0
 19 43  1  0
A    1
 C1 
A    2
 C2 
A    3
 C3 
A    4
 C4 
A    5
 N1 
A    6
 C5 
A    7
 O1 
A    8
 C6 
A    9
 O2 
A   10
 C7 
A   11
 O3 
A   12
 C8 
A   13
 C9 
A   14
 P1 
A   15
 C10
A   16
 C11
A   17
 O4 
A   18
 C12
A   19
 C13
A   20
 H1 
A   21
 H2 
A   22
 H3 
A   23
 H4 
A   24
 H5 
A   25
 H6 
A   26
 H7 
A   27
 H8 
A   28
 H9 
A   29
 H10
A   30
 H11
A   31
 H12
A   32
 H13
A   33
 H14
A   34
 H15
A   35
 H16
A   36
 H17
A   37
 H18
A   38
 H19
A   39
 H20
A   40
 H21
A   41
 H22
A   42
 H23
A   43
 H24
M  END
>  <ref_pdb>  (76) 
x0147_0A

>  <ref_mols>  (76) 
x1071_0AS2,x1083_0A

>  <original SMILES>  (76) 
[H]C([H])(OC(=O)C([H])([H])C([H])([H])P(=O)(C([H])([H])[H])C([H])([H])[H])C(=O)N1C([H])([H])C([H])([H])C([H])(C([H])([H])[H])C([H])([H])C1([H])[H]

>  <index>  (76) 
9966

>  <∆∆G>  (76) 
-8.406771

>  <comRMSD>  (76) 
0.824463

>  <N_constrained_atoms>  (76) 
19.0

>  <N_unconstrained_atoms>  (76) 
0.0

>  <LE>  (76) 
0.442462

>  <percent_hybrid>  (76) 
43.0

>  <max_hit_Tanimoto>  (76) 
0.118852

>  <largest_ring>  (76) 
6

>  <N_interactions_kept>  (76) 
4.0

>  <N_interactions_lost>  (76) 
1.0

>  <interaction_uniqueness_metric>  (76) 
0.077643

>  <N_HA>  (76) 
19

>  <N_rotatable_bonds>  (76) 
8

>  <N_interactions>  (76) 
3

>  <N_PAINS>  (76) 
0

>  <UFF_Gibbs>  (76) 
110.24799

>  <strain_per_HA>  (76) 
5.802495

>  <ad_hoc_penalty>  (76) 
-28.403062

>  <cluster>  (76) 
4971

>  <ranked>  (76) 
87.0

>  <merger_rank>  (76) 
2

>  <hydroph_interaction:LEU:127>  (76) 
1

>  <hbond:GLY:128>  (76) 
0

>  <hydroph_interaction:ALA:144>  (76) 
0

>  <hbond:GLY:164>  (76) 
1

>  <hbond:HIS:40>  (76) 
0

>  <pistack:HIS:40>  (76) 
0

>  <hydroph_interaction:LEU:125>  (76) 
0

>  <hydroph_interaction:PHE:170>  (76) 
0

>  <hydroph_interaction:HIS:40>  (76) 
0

>  <pication:HIS:40>  (76) 
0

>  <hbond:THR:142>  (76) 
0

>  <hbond:HIS:161>  (76) 
0

>  <hbond:GLY:166>  (76) 
0

>  <hbond:VAL:162>  (76) 
0

>  <hydroph_interaction:ASN:165>  (76) 
0

>  <hbond:ASN:126>  (76) 
0

>  <hbond:ARG:143>  (76) 
0

>  <hbond:GLU:71>  (76) 
0

>  <saltbridge:HIS:161>  (76) 
0

>  <hbond:ALA:144>  (76) 
0

>  <hbond:GLY:145>  (76) 
0

>  <hbond:GLN:146>  (76) 
0

>  <hbond:CYS:147>  (76) 
0

>  <halogenbond:ASN:126>  (76) 
0

>  <saltbridge:HIS:40>  (76) 
0

>  <hbond:LEU:127>  (76) 
0

>  <hbond:THR:130>  (76) 
0

>  <hydroph_interaction:GLU:71>  (76) 
0

>  <hydroph_interaction:THR:130>  (76) 
1

>  <saltbridge:ARG:143>  (76) 
0

>  <saltbridge:GLU:71>  (76) 
0

>  <hbond:GLY:129>  (76) 
0

>  <halogenbond:CYS:147>  (76) 
0

>  <hydroph_interaction:THR:39>  (76) 
0

>  <hbond:ASN:69>  (76) 
0

>  <hydroph_interaction:THR:132>  (76) 
0

>  <hbond:TYR:122>  (76) 
0

>  <hydroph_interaction:PHE:109>  (76) 
0

>  <hydroph_interaction:PHE:140>  (76) 
0

>  <hbond:PRO:141>  (76) 
0

$$$$
Z138213496-x1919-0AS12
     RDKit          3D

 49 50  0  0  0  0  0  0  0  0999 V2000
   -5.4110    0.7390   -1.4340 N   0  0  0  0  0  0  0  0  0  0  0  0
   -6.1980   -0.0330   -1.1240 C   0  0  0  0  0  0  0  0  0  0  0  0
   -7.1850   -1.0580   -0.8120 C   0  0  0  0  0  0  0  0  0  0  0  0
   -6.7440   -2.3490   -1.4870 C   0  0  0  0  0  0  0  0  0  0  0  0
   -7.6590   -3.5630   -1.3910 C   0  0  0  0  0  0  0  0  0  0  0  0
   -6.9220   -4.8720   -1.7160 C   0  0  0  0  0  0  0  0  0  0  0  0
   -7.6230   -5.5800   -2.8150 N   0  0  0  0  0  0  0  0  0  0  0  0
   -7.3590   -7.0330   -2.8470 C   0  0  0  0  0  0  0  0  0  0  0  0
   -5.8870   -7.3800   -3.1270 C   0  0  0  0  0  0  0  0  0  0  0  0
   -5.2470   -7.8110   -1.8400 C   0  0  0  0  0  0  0  0  0  0  0  0
   -3.9710   -7.3830   -1.5120 C   0  0  0  0  0  0  0  0  0  0  0  0
   -3.3790   -7.7740   -0.3140 C   0  0  0  0  0  0  0  0  0  0  0  0
   -4.0750   -8.6050    0.5610 C   0  0  0  0  0  0  0  0  0  0  0  0
   -5.3530   -9.0440    0.2370 C   0  0  0  0  0  0  0  0  0  0  0  0
   -5.9390   -8.6480   -0.9610 C   0  0  0  0  0  0  0  0  0  0  0  0
   -7.2930   -5.0550   -4.1410 C   0  0  0  0  0  0  0  0  0  0  0  0
   -8.0680   -5.8510   -5.2310 C   0  0  0  0  0  0  0  0  0  0  0  0
   -8.0430   -5.0600   -6.4950 C   0  0  0  0  0  0  0  0  0  0  0  0
   -8.8300   -3.9140   -6.5910 C   0  0  0  0  0  0  0  0  0  0  0  0
   -8.7870   -3.1520   -7.7250 C   0  0  0  0  0  0  0  0  0  0  0  0
   -7.9600   -3.5450   -8.7430 C   0  0  0  0  0  0  0  0  0  0  0  0
   -7.1840   -4.6820   -8.6930 C   0  0  0  0  0  0  0  0  0  0  0  0
   -7.2260   -5.4520   -7.5590 C   0  0  0  0  0  0  0  0  0  0  0  0
   -8.1820   -0.7530   -1.1520 H   0  0  0  0  0  0  0  0  0  0  0  0
   -7.2360   -1.1890    0.2740 H   0  0  0  0  0  0  0  0  0  0  0  0
   -6.6520   -2.1290   -2.5560 H   0  0  0  0  0  0  0  0  0  0  0  0
   -5.7490   -2.6380   -1.1710 H   0  0  0  0  0  0  0  0  0  0  0  0
   -8.5010   -3.4120   -2.0740 H   0  0  0  0  0  0  0  0  0  0  0  0
   -8.0820   -3.6090   -0.3860 H   0  0  0  0  0  0  0  0  0  0  0  0
   -6.9100   -5.4770   -0.8030 H   0  0  0  0  0  0  0  0  0  0  0  0
   -5.8790   -4.6850   -1.9920 H   0  0  0  0  0  0  0  0  0  0  0  0
   -8.0160   -7.5250   -3.5770 H   0  0  0  0  0  0  0  0  0  0  0  0
   -7.6140   -7.4790   -1.8800 H   0  0  0  0  0  0  0  0  0  0  0  0
   -5.8140   -8.1880   -3.8680 H   0  0  0  0  0  0  0  0  0  0  0  0
   -5.3260   -6.5330   -3.5400 H   0  0  0  0  0  0  0  0  0  0  0  0
   -3.4340   -6.7400   -2.1910 H   0  0  0  0  0  0  0  0  0  0  0  0
   -2.3790   -7.4330   -0.0620 H   0  0  0  0  0  0  0  0  0  0  0  0
   -3.6130   -8.9120    1.4950 H   0  0  0  0  0  0  0  0  0  0  0  0
   -5.8960   -9.6940    0.9190 H   0  0  0  0  0  0  0  0  0  0  0  0
   -6.9400   -8.9960   -1.2040 H   0  0  0  0  0  0  0  0  0  0  0  0
   -6.2140   -5.0930   -4.3120 H   0  0  0  0  0  0  0  0  0  0  0  0
   -7.5810   -3.9990   -4.2300 H   0  0  0  0  0  0  0  0  0  0  0  0
   -9.1070   -6.0260   -4.9180 H   0  0  0  0  0  0  0  0  0  0  0  0
   -7.6280   -6.8360   -5.4180 H   0  0  0  0  0  0  0  0  0  0  0  0
   -9.4730   -3.6120   -5.7660 H   0  0  0  0  0  0  0  0  0  0  0  0
   -9.3880   -2.2510   -7.8150 H   0  0  0  0  0  0  0  0  0  0  0  0
   -7.9290   -2.9400   -9.5890 H   0  0  0  0  0  0  0  0  0  0  0  0
   -6.5490   -4.9600   -9.5300 H   0  0  0  0  0  0  0  0  0  0  0  0
   -6.6150   -6.3500   -7.4950 H   0  0  0  0  0  0  0  0  0  0  0  0
  1  2  3  0
  2  3  1  0
  3  4  1  0
  4  5  1  0
  5  6  1  0
  6  7  1  0
  7  8  1  0
  8  9  1  0
  9 10  1  0
 10 11  2  0
 11 12  1  0
 12 13  2  0
 13 14  1  0
 14 15  2  0
  7 16  1  0
 16 17  1  0
 17 18  1  0
 18 19  2  0
 19 20  1  0
 20 21  2  0
 21 22  1  0
 22 23  2  0
 15 10  1  0
 23 18  1  0
  3 24  1  0
  3 25  1  0
  4 26  1  0
  4 27  1  0
  5 28  1  0
  5 29  1  0
  6 30  1  0
  6 31  1  0
  8 32  1  0
  8 33  1  0
  9 34  1  0
  9 35  1  0
 11 36  1  0
 12 37  1  0
 13 38  1  0
 14 39  1  0
 15 40  1  0
 16 41  1  0
 16 42  1  0
 17 43  1  0
 17 44  1  0
 19 45  1  0
 20 46  1  0
 21 47  1  0
 22 48  1  0
 23 49  1  0
A    1
 N1 
A    2
 C1 
A    3
 C2 
A    4
 C3 
A    5
 C4 
A    6
 C5 
A    7
 N2 
A    8
 C6 
A    9
 C7 
A   10
 C8 
A   11
 C9 
A   12
 C10
A   13
 C11
A   14
 C12
A   15
 C13
A   16
 C14
A   17
 C15
A   18
 C16
A   19
 C17
A   20
 C18
A   21
 C19
A   22
 C20
A   23
 C21
A   24
 H1 
A   25
 H2 
A   26
 H3 
A   27
 H4 
A   28
 H5 
A   29
 H6 
A   30
 H7 
A   31
 H8 
A   32
 H9 
A   33
 H10
A   34
 H11
A   35
 H12
A   36
 H13
A   37
 H14
A   38
 H15
A   39
 H16
A   40
 H17
A   41
 H18
A   42
 H19
A   43
 H20
A   44
 H21
A   45
 H22
A   46
 H23
A   47
 H24
A   48
 H25
A   49
 H26
M  END
>  <ref_pdb>  (77) 
x0147_0A

>  <ref_mols>  (77) 
x1919_0AS12,x0980_0BS5

>  <original SMILES>  (77) 
[H]c1c([H])c([H])c(C([H])([H])C([H])([H])N(C([H])([H])C([H])([H])c2c([H])c([H])c([H])c([H])c2[H])C([H])([H])C([H])([H])C([H])([H])C([H])([H])C#N)c([H])c1[H]

>  <index>  (77) 
47

>  <∆∆G>  (77) 
-7.791034

>  <comRMSD>  (77) 
0.696369

>  <N_constrained_atoms>  (77) 
22.0

>  <N_unconstrained_atoms>  (77) 
1.0

>  <LE>  (77) 
0.338741

>  <percent_hybrid>  (77) 
28.0

>  <max_hit_Tanimoto>  (77) 
0.151042

>  <largest_ring>  (77) 
6

>  <N_interactions_kept>  (77) 
2.5

>  <N_interactions_lost>  (77) 
1.0

>  <interaction_uniqueness_metric>  (77) 
0.046047

>  <N_HA>  (77) 
23

>  <N_rotatable_bonds>  (77) 
10

>  <N_interactions>  (77) 
4

>  <N_PAINS>  (77) 
0

>  <UFF_Gibbs>  (77) 
56.32919

>  <strain_per_HA>  (77) 
2.449085

>  <ad_hoc_penalty>  (77) 
-28.328055

>  <cluster>  (77) 
7331

>  <ranked>  (77) 
88.0

>  <merger_rank>  (77) 
3

>  <hydroph_interaction:LEU:127>  (77) 
2

>  <hbond:GLY:128>  (77) 
0

>  <hydroph_interaction:ALA:144>  (77) 
0

>  <hbond:GLY:164>  (77) 
0

>  <hbond:HIS:40>  (77) 
0

>  <pistack:HIS:40>  (77) 
1

>  <hydroph_interaction:LEU:125>  (77) 
0

>  <hydroph_interaction:PHE:170>  (77) 
0

>  <hydroph_interaction:HIS:40>  (77) 
1

>  <pication:HIS:40>  (77) 
0

>  <hbond:THR:142>  (77) 
0

>  <hbond:HIS:161>  (77) 
0

>  <hbond:GLY:166>  (77) 
0

>  <hbond:VAL:162>  (77) 
0

>  <hydroph_interaction:ASN:165>  (77) 
0

>  <hbond:ASN:126>  (77) 
0

>  <hbond:ARG:143>  (77) 
0

>  <hbond:GLU:71>  (77) 
0

>  <saltbridge:HIS:161>  (77) 
0

>  <hbond:ALA:144>  (77) 
0

>  <hbond:GLY:145>  (77) 
0

>  <hbond:GLN:146>  (77) 
0

>  <hbond:CYS:147>  (77) 
0

>  <halogenbond:ASN:126>  (77) 
0

>  <saltbridge:HIS:40>  (77) 
0

>  <hbond:LEU:127>  (77) 
0

>  <hbond:THR:130>  (77) 
0

>  <hydroph_interaction:GLU:71>  (77) 
0

>  <hydroph_interaction:THR:130>  (77) 
0

>  <saltbridge:ARG:143>  (77) 
0

>  <saltbridge:GLU:71>  (77) 
0

>  <hbond:GLY:129>  (77) 
0

>  <halogenbond:CYS:147>  (77) 
0

>  <hydroph_interaction:THR:39>  (77) 
0

>  <hbond:ASN:69>  (77) 
0

>  <hydroph_interaction:THR:132>  (77) 
0

>  <hbond:TYR:122>  (77) 
0

>  <hydroph_interaction:PHE:109>  (77) 
0

>  <hydroph_interaction:PHE:140>  (77) 
0

>  <hbond:PRO:141>  (77) 
0

$$$$
Z1214750501-x1071-0AS2
     RDKit          3D

 37 38  0  0  0  0  0  0  0  0999 V2000
   -7.9530    0.2600   -1.4610 C   0  0  0  0  0  0  0  0  0  0  0  0
   -6.4750   -0.6780   -1.1460 S   0  0  0  0  0  6  0  0  0  0  0  0
   -6.5510   -1.0380    0.2290 O   0  0  0  0  0  0  0  0  0  0  0  0
   -5.3400    0.0360   -1.6860 O   0  0  0  0  0  0  0  0  0  0  0  0
   -6.7700   -2.1340   -2.2130 C   0  0  0  0  0  0  0  0  0  0  0  0
   -6.6590   -3.5950   -1.7720 C   0  0  0  0  0  0  0  0  0  0  0  0
   -6.7640   -4.6300   -2.9240 C   0  0  0  0  0  0  0  0  0  0  0  0
   -6.5860   -4.3250   -4.1010 O   0  0  0  0  0  0  0  0  0  0  0  0
   -7.0890   -5.8870   -2.4800 O   0  0  0  0  0  0  0  0  0  0  0  0
   -6.2590   -6.9860   -2.9400 C   0  0  0  0  0  0  0  0  0  0  0  0
   -5.6250   -7.5790   -1.7030 C   0  0  0  0  0  0  0  0  0  0  0  0
   -6.2880   -8.5360   -0.9000 C   0  0  0  0  0  0  0  0  0  0  0  0
   -5.6700   -9.0330    0.2620 C   0  0  0  0  0  0  0  0  0  0  0  0
   -4.4100   -8.6000    0.6510 C   0  0  0  0  0  0  0  0  0  0  0  0
   -3.6170   -8.9380    1.7650 C   0  0  0  0  0  0  0  0  0  0  0  0
   -2.3430   -8.0750    1.6210 C   0  0  0  0  0  0  0  0  0  0  0  0
   -2.4810   -7.3690    0.4340 C   0  0  0  0  0  0  0  0  0  0  0  0
   -3.7990   -7.6760   -0.1710 C   0  0  0  0  0  0  0  0  0  0  0  0
   -4.3550   -7.1650   -1.3200 C   0  0  0  0  0  0  0  0  0  0  0  0
   -7.7150    1.3200   -1.6070 H   0  0  0  0  0  0  0  0  0  0  0  0
   -8.4120   -0.1120   -2.3830 H   0  0  0  0  0  0  0  0  0  0  0  0
   -8.6530    0.1450   -0.6260 H   0  0  0  0  0  0  0  0  0  0  0  0
   -6.0710   -2.0110   -3.0410 H   0  0  0  0  0  0  0  0  0  0  0  0
   -7.7820   -2.0270   -2.6140 H   0  0  0  0  0  0  0  0  0  0  0  0
   -5.7100   -3.7580   -1.2710 H   0  0  0  0  0  0  0  0  0  0  0  0
   -7.4460   -3.8060   -1.0410 H   0  0  0  0  0  0  0  0  0  0  0  0
   -6.8470   -7.7610   -3.4500 H   0  0  0  0  0  0  0  0  0  0  0  0
   -5.4770   -6.6420   -3.6290 H   0  0  0  0  0  0  0  0  0  0  0  0
   -7.2790   -8.8810   -1.1790 H   0  0  0  0  0  0  0  0  0  0  0  0
   -6.1230   -9.7690    0.9340 H   0  0  0  0  0  0  0  0  0  0  0  0
   -3.3570   -9.9990    1.7520 H   0  0  0  0  0  0  0  0  0  0  0  0
   -4.1360   -8.6950    2.7000 H   0  0  0  0  0  0  0  0  0  0  0  0
   -2.0540   -7.4540    2.4610 H   0  0  0  0  0  0  0  0  0  0  0  0
   -1.4900   -8.7560    1.5110 H   0  0  0  0  0  0  0  0  0  0  0  0
   -2.3580   -6.3240    0.7460 H   0  0  0  0  0  0  0  0  0  0  0  0
   -1.6820   -7.5190   -0.2700 H   0  0  0  0  0  0  0  0  0  0  0  0
   -3.7350   -6.4430   -1.8530 H   0  0  0  0  0  0  0  0  0  0  0  0
  1  2  1  0
  2  3  2  0
  2  4  2  0
  2  5  1  0
  5  6  1  0
  6  7  1  0
  7  8  2  0
  7  9  1  0
  9 10  1  0
 10 11  1  0
 11 12  2  0
 12 13  1  0
 13 14  2  0
 14 15  1  0
 15 16  1  0
 16 17  1  0
 17 18  1  0
 18 19  2  0
 19 11  1  0
 18 14  1  0
  1 20  1  0
  1 21  1  0
  1 22  1  0
  5 23  1  0
  5 24  1  0
  6 25  1  0
  6 26  1  0
 10 27  1  0
 10 28  1  0
 12 29  1  0
 13 30  1  0
 15 31  1  0
 15 32  1  0
 16 33  1  0
 16 34  1  0
 17 35  1  0
 17 36  1  0
 19 37  1  0
A    1
 C1 
A    2
 S1 
A    3
 O1 
A    4
 O2 
A    5
 C2 
A    6
 C3 
A    7
 C4 
A    8
 O3 
A    9
 O4 
A   10
 C5 
A   11
 C6 
A   12
 C7 
A   13
 C8 
A   14
 C9 
A   15
 C10
A   16
 C11
A   17
 C12
A   18
 C13
A   19
 C14
A   20
 H1 
A   21
 H2 
A   22
 H3 
A   23
 H4 
A   24
 H5 
A   25
 H6 
A   26
 H7 
A   27
 H8 
A   28
 H9 
A   29
 H10
A   30
 H11
A   31
 H12
A   32
 H13
A   33
 H14
A   34
 H15
A   35
 H16
A   36
 H17
A   37
 H18
M  END
>  <ref_pdb>  (78) 
x0147_0A

>  <ref_mols>  (78) 
x1071_0AS2,x1140_0AS4

>  <original SMILES>  (78) 
[H]c1c([H])c2c(c([H])c1C([H])([H])OC(=O)C([H])([H])C([H])([H])S(=O)(=O)C([H])([H])[H])C([H])([H])C([H])([H])C2([H])[H]

>  <index>  (78) 
16508

>  <∆∆G>  (78) 
-7.144604

>  <comRMSD>  (78) 
0.524094

>  <N_constrained_atoms>  (78) 
17.0

>  <N_unconstrained_atoms>  (78) 
2.0

>  <LE>  (78) 
0.376032

>  <percent_hybrid>  (78) 
48.0

>  <max_hit_Tanimoto>  (78) 
0.07451

>  <largest_ring>  (78) 
6

>  <N_interactions_kept>  (78) 
2.0

>  <N_interactions_lost>  (78) 
2.5

>  <interaction_uniqueness_metric>  (78) 
0.059538

>  <N_HA>  (78) 
19

>  <N_rotatable_bonds>  (78) 
6

>  <N_interactions>  (78) 
6

>  <N_PAINS>  (78) 
0

>  <UFF_Gibbs>  (78) 
71.068976

>  <strain_per_HA>  (78) 
3.740453

>  <ad_hoc_penalty>  (78) 
-28.247834

>  <cluster>  (78) 
3160

>  <ranked>  (78) 
89.0

>  <merger_rank>  (78) 
3

>  <hydroph_interaction:LEU:127>  (78) 
3

>  <hbond:GLY:128>  (78) 
0

>  <hydroph_interaction:ALA:144>  (78) 
0

>  <hbond:GLY:164>  (78) 
1

>  <hbond:HIS:40>  (78) 
0

>  <pistack:HIS:40>  (78) 
1

>  <hydroph_interaction:LEU:125>  (78) 
0

>  <hydroph_interaction:PHE:170>  (78) 
0

>  <hydroph_interaction:HIS:40>  (78) 
1

>  <pication:HIS:40>  (78) 
0

>  <hbond:THR:142>  (78) 
0

>  <hbond:HIS:161>  (78) 
0

>  <hbond:GLY:166>  (78) 
0

>  <hbond:VAL:162>  (78) 
0

>  <hydroph_interaction:ASN:165>  (78) 
0

>  <hbond:ASN:126>  (78) 
0

>  <hbond:ARG:143>  (78) 
0

>  <hbond:GLU:71>  (78) 
0

>  <saltbridge:HIS:161>  (78) 
0

>  <hbond:ALA:144>  (78) 
0

>  <hbond:GLY:145>  (78) 
0

>  <hbond:GLN:146>  (78) 
0

>  <hbond:CYS:147>  (78) 
0

>  <halogenbond:ASN:126>  (78) 
0

>  <saltbridge:HIS:40>  (78) 
0

>  <hbond:LEU:127>  (78) 
0

>  <hbond:THR:130>  (78) 
0

>  <hydroph_interaction:GLU:71>  (78) 
0

>  <hydroph_interaction:THR:130>  (78) 
0

>  <saltbridge:ARG:143>  (78) 
0

>  <saltbridge:GLU:71>  (78) 
0

>  <hbond:GLY:129>  (78) 
0

>  <halogenbond:CYS:147>  (78) 
0

>  <hydroph_interaction:THR:39>  (78) 
0

>  <hbond:ASN:69>  (78) 
0

>  <hydroph_interaction:THR:132>  (78) 
0

>  <hbond:TYR:122>  (78) 
0

>  <hydroph_interaction:PHE:109>  (78) 
0

>  <hydroph_interaction:PHE:140>  (78) 
0

>  <hbond:PRO:141>  (78) 
0

$$$$
Z2899125867-x0771-1A
     RDKit          3D

 45 48  0  0  0  0  0  0  0  0999 V2000
   -8.3460   -3.2030   -7.9840 O   0  0  0  0  0  0  0  0  0  0  0  0
   -7.5840   -4.1550   -8.1330 C   0  0  0  0  0  0  0  0  0  0  0  0
   -6.6020   -4.1760   -9.0480 O   0  0  0  0  0  0  0  0  0  0  0  0
   -7.6410   -5.3940   -7.3030 C   0  0  0  0  0  0  0  0  0  0  0  0
   -8.2930   -5.1670   -5.9620 C   0  0  0  0  0  0  0  0  0  0  0  0
   -8.4300   -6.3550   -5.0360 C   0  0  0  0  0  0  0  0  0  0  0  0
   -7.9370   -7.5640   -5.5250 C   0  0  0  0  0  0  0  0  0  0  0  0
   -8.0550   -8.8180   -4.6910 C   0  0  0  0  0  0  0  0  0  0  0  0
   -6.9880   -9.6960   -4.7760 N   0  0  0  0  0  0  0  0  0  0  0  0
   -6.1270   -9.6930   -3.5980 C   0  0  0  0  0  0  0  0  0  0  0  0
   -5.7600   -8.3470   -3.0460 C   0  0  0  0  0  0  0  0  0  0  0  0
   -5.2720   -8.3690   -1.7640 C   0  0  0  0  0  0  0  0  0  0  0  0
   -5.8930   -9.1810   -0.8230 C   0  0  0  0  0  0  0  0  0  0  0  0
   -5.4780   -9.2960    0.4890 C   0  0  0  0  0  0  0  0  0  0  0  0
   -4.4140   -8.5750    0.8490 C   0  0  0  0  0  0  0  0  0  0  0  0
   -3.8230   -8.5380    2.0900 O   0  0  0  0  0  0  0  0  0  0  0  0
   -2.5080   -7.9230    1.8770 C   0  0  0  0  0  0  0  0  0  0  0  0
   -2.7110   -7.1500    0.6230 C   0  0  0  0  0  0  0  0  0  0  0  0
   -3.7970   -7.7670   -0.0630 C   0  0  0  0  0  0  0  0  0  0  0  0
   -4.1700   -7.6140   -1.3720 C   0  0  0  0  0  0  0  0  0  0  0  0
   -6.1590   -9.5470   -5.9730 C   0  0  0  0  0  0  0  0  0  0  0  0
   -6.8780   -9.1020   -7.0850 C   0  0  0  0  0  0  0  0  0  0  0  0
   -7.3310   -7.7030   -6.7710 C   0  0  0  0  0  0  0  0  0  0  0  0
   -7.1690   -6.6420   -7.6670 C   0  0  0  0  0  0  0  0  0  0  0  0
   -6.2920   -3.2500   -9.1000 H   0  0  0  0  0  0  0  0  0  0  0  0
   -8.6280   -4.1440   -5.7600 H   0  0  0  0  0  0  0  0  0  0  0  0
   -8.8940   -6.2670   -4.0560 H   0  0  0  0  0  0  0  0  0  0  0  0
   -8.1500   -8.5110   -3.6430 H   0  0  0  0  0  0  0  0  0  0  0  0
   -8.9860   -9.3240   -4.9660 H   0  0  0  0  0  0  0  0  0  0  0  0
   -6.6210  -10.2780   -2.8170 H   0  0  0  0  0  0  0  0  0  0  0  0
   -5.2160  -10.2100   -3.8720 H   0  0  0  0  0  0  0  0  0  0  0  0
   -6.6290   -7.6840   -3.0910 H   0  0  0  0  0  0  0  0  0  0  0  0
   -4.9840   -7.8970   -3.6780 H   0  0  0  0  0  0  0  0  0  0  0  0
   -6.7620   -9.7730   -1.1270 H   0  0  0  0  0  0  0  0  0  0  0  0
   -5.9660   -9.9340    1.2190 H   0  0  0  0  0  0  0  0  0  0  0  0
   -1.7820   -8.7310    1.7100 H   0  0  0  0  0  0  0  0  0  0  0  0
   -2.2070   -7.4030    2.7810 H   0  0  0  0  0  0  0  0  0  0  0  0
   -2.7330   -6.0650    0.7220 H   0  0  0  0  0  0  0  0  0  0  0  0
   -1.8380   -7.3420    0.0110 H   0  0  0  0  0  0  0  0  0  0  0  0
   -3.6390   -6.9580   -2.0550 H   0  0  0  0  0  0  0  0  0  0  0  0
   -5.4120   -8.7770   -5.7760 H   0  0  0  0  0  0  0  0  0  0  0  0
   -5.5900  -10.4610   -6.0740 H   0  0  0  0  0  0  0  0  0  0  0  0
   -6.4320   -9.2480   -8.0730 H   0  0  0  0  0  0  0  0  0  0  0  0
   -7.7770   -9.7290   -7.1210 H   0  0  0  0  0  0  0  0  0  0  0  0
   -6.6930   -6.7950   -8.6350 H   0  0  0  0  0  0  0  0  0  0  0  0
  1  2  2  0
  2  3  1  0
  2  4  1  0
  4  5  2  0
  5  6  1  0
  6  7  2  0
  7  8  1  0
  8  9  1  0
  9 10  1  0
 10 11  1  0
 11 12  1  0
 12 13  2  0
 13 14  1  0
 14 15  2  0
 15 16  1  0
 16 17  1  0
 17 18  1  0
 18 19  1  0
 19 20  2  0
  9 21  1  0
 21 22  1  0
 22 23  1  0
 23 24  2  0
 24  4  1  0
 23  7  1  0
 20 12  1  0
 19 15  1  0
  3 25  1  0
  5 26  1  0
  6 27  1  0
  8 28  1  0
  8 29  1  0
 10 30  1  0
 10 31  1  0
 11 32  1  0
 11 33  1  0
 13 34  1  0
 14 35  1  0
 17 36  1  0
 17 37  1  0
 18 38  1  0
 18 39  1  0
 20 40  1  0
 21 41  1  0
 21 42  1  0
 22 43  1  0
 22 44  1  0
 24 45  1  0
A    1
 O1 
A    2
 C1 
A    3
 O2 
A    4
 C2 
A    5
 C3 
A    6
 C4 
A    7
 C5 
A    8
 C6 
A    9
 N1 
A   10
 C7 
A   11
 C8 
A   12
 C9 
A   13
 C10
A   14
 C11
A   15
 C12
A   16
 O3 
A   17
 C13
A   18
 C14
A   19
 C15
A   20
 C16
A   21
 C17
A   22
 C18
A   23
 C19
A   24
 C20
A   25
 H1 
A   26
 H2 
A   27
 H3 
A   28
 H4 
A   29
 H5 
A   30
 H6 
A   31
 H7 
A   32
 H8 
A   33
 H9 
A   34
 H10
A   35
 H11
A   36
 H12
A   37
 H13
A   38
 H14
A   39
 H15
A   40
 H16
A   41
 H17
A   42
 H18
A   43
 H19
A   44
 H20
A   45
 H21
M  END
>  <ref_pdb>  (79) 
x0147_0A

>  <ref_mols>  (79) 
x0771_1A,x1140_0AS4

>  <original SMILES>  (79) 
[H]OC(=O)c1c([H])c([H])c2c(c1[H])C([H])([H])C([H])([H])N(C([H])([H])C([H])([H])c1c([H])c([H])c3c(c1[H])C([H])([H])C([H])([H])O3)C2([H])[H]

>  <index>  (79) 
13390

>  <∆∆G>  (79) 
-5.757272

>  <comRMSD>  (79) 
0.500823

>  <N_constrained_atoms>  (79) 
21.0

>  <N_unconstrained_atoms>  (79) 
3.0

>  <LE>  (79) 
0.239886

>  <percent_hybrid>  (79) 
43.0

>  <max_hit_Tanimoto>  (79) 
0.29597

>  <largest_ring>  (79) 
6

>  <N_interactions_kept>  (79) 
3.5

>  <N_interactions_lost>  (79) 
0.5

>  <interaction_uniqueness_metric>  (79) 
0.087041

>  <N_HA>  (79) 
24

>  <N_rotatable_bonds>  (79) 
4

>  <N_interactions>  (79) 
2

>  <N_PAINS>  (79) 
0

>  <UFF_Gibbs>  (79) 
127.872257

>  <strain_per_HA>  (79) 
5.327989

>  <ad_hoc_penalty>  (79) 
-28.245168

>  <cluster>  (79) 
4007

>  <ranked>  (79) 
90.0

>  <merger_rank>  (79) 
2

>  <hydroph_interaction:LEU:127>  (79) 
0

>  <hbond:GLY:128>  (79) 
0

>  <hydroph_interaction:ALA:144>  (79) 
1

>  <hbond:GLY:164>  (79) 
0

>  <hbond:HIS:40>  (79) 
0

>  <pistack:HIS:40>  (79) 
0

>  <hydroph_interaction:LEU:125>  (79) 
0

>  <hydroph_interaction:PHE:170>  (79) 
0

>  <hydroph_interaction:HIS:40>  (79) 
0

>  <pication:HIS:40>  (79) 
0

>  <hbond:THR:142>  (79) 
0

>  <hbond:HIS:161>  (79) 
0

>  <hbond:GLY:166>  (79) 
0

>  <hbond:VAL:162>  (79) 
0

>  <hydroph_interaction:ASN:165>  (79) 
0

>  <hbond:ASN:126>  (79) 
0

>  <hbond:ARG:143>  (79) 
0

>  <hbond:GLU:71>  (79) 
0

>  <saltbridge:HIS:161>  (79) 
1

>  <hbond:ALA:144>  (79) 
0

>  <hbond:GLY:145>  (79) 
0

>  <hbond:GLN:146>  (79) 
0

>  <hbond:CYS:147>  (79) 
0

>  <halogenbond:ASN:126>  (79) 
0

>  <saltbridge:HIS:40>  (79) 
0

>  <hbond:LEU:127>  (79) 
0

>  <hbond:THR:130>  (79) 
0

>  <hydroph_interaction:GLU:71>  (79) 
0

>  <hydroph_interaction:THR:130>  (79) 
0

>  <saltbridge:ARG:143>  (79) 
0

>  <saltbridge:GLU:71>  (79) 
0

>  <hbond:GLY:129>  (79) 
0

>  <halogenbond:CYS:147>  (79) 
0

>  <hydroph_interaction:THR:39>  (79) 
0

>  <hbond:ASN:69>  (79) 
0

>  <hydroph_interaction:THR:132>  (79) 
0

>  <hbond:TYR:122>  (79) 
0

>  <hydroph_interaction:PHE:109>  (79) 
0

>  <hydroph_interaction:PHE:140>  (79) 
0

>  <hbond:PRO:141>  (79) 
0

$$$$
Z1168373445-x1919-0AS12
     RDKit          3D

 51 51  0  0  0  0  0  0  0  0999 V2000
   -1.0050   -6.7020    1.6640 C   0  0  0  0  0  0  0  0  0  0  0  0
   -1.7750   -7.9320    2.0760 C   0  0  0  0  0  0  0  0  0  0  0  0
   -3.1940   -7.6400    2.4740 C   0  0  0  0  0  0  0  0  0  0  0  0
   -4.2050   -8.3580    1.8400 C   0  0  0  0  0  0  0  0  0  0  0  0
   -4.5690   -7.9880    0.5470 C   0  0  0  0  0  0  0  0  0  0  0  0
   -3.5350   -7.7710   -0.3610 C   0  0  0  0  0  0  0  0  0  0  0  0
   -3.9460   -7.5850   -1.6710 C   0  0  0  0  0  0  0  0  0  0  0  0
   -5.4340   -7.3430   -1.8230 C   0  0  0  0  0  0  0  0  0  0  0  0
   -5.8240   -7.0400   -3.2590 C   0  0  0  0  0  0  0  0  0  0  0  0
   -7.1390   -6.4730   -3.2970 N   0  0  0  0  0  0  0  0  0  0  0  0
   -7.3480   -4.9280   -3.2420 S   0  0  0  0  0  6  0  0  0  0  0  0
   -6.1920   -4.2330   -3.7800 O   0  0  0  0  0  0  0  0  0  0  0  0
   -8.6540   -4.6980   -3.8170 O   0  0  0  0  0  0  0  0  0  0  0  0
   -7.5370   -4.6570   -1.4840 C   0  0  0  0  0  0  0  0  0  0  0  0
   -8.1380   -3.2910   -1.1850 C   0  0  0  0  0  0  0  0  0  0  0  0
   -7.3430   -2.0140   -1.4280 C   0  0  0  0  0  0  0  0  0  0  0  0
   -7.4550   -0.9690   -0.5220 C   0  0  0  0  0  0  0  0  0  0  0  0
   -6.2720   -0.0340   -0.3530 C   0  0  0  0  0  0  0  0  0  0  0  0
   -5.1530    0.8670   -0.1710 N   0  0  0  0  0  0  0  0  0  0  0  0
   -6.1070   -8.6130   -1.2880 C   0  0  0  0  0  0  0  0  0  0  0  0
   -5.5140   -9.0310   -0.0850 C   0  0  0  0  0  0  0  0  0  0  0  0
   -0.1360   -6.5270    2.3110 H   0  0  0  0  0  0  0  0  0  0  0  0
   -1.6440   -5.8220    1.6850 H   0  0  0  0  0  0  0  0  0  0  0  0
   -0.6260   -6.8320    0.6620 H   0  0  0  0  0  0  0  0  0  0  0  0
   -1.7850   -8.6400    1.2360 H   0  0  0  0  0  0  0  0  0  0  0  0
   -1.2710   -8.4270    2.9130 H   0  0  0  0  0  0  0  0  0  0  0  0
   -3.3670   -6.5770    2.3260 H   0  0  0  0  0  0  0  0  0  0  0  0
   -3.2750   -7.8380    3.5450 H   0  0  0  0  0  0  0  0  0  0  0  0
   -5.1030   -8.3440    2.4650 H   0  0  0  0  0  0  0  0  0  0  0  0
   -3.8860   -9.4080    1.8310 H   0  0  0  0  0  0  0  0  0  0  0  0
   -5.1790   -7.0900    0.6620 H   0  0  0  0  0  0  0  0  0  0  0  0
   -2.8940   -6.9410   -0.0510 H   0  0  0  0  0  0  0  0  0  0  0  0
   -2.8810   -8.6370   -0.3470 H   0  0  0  0  0  0  0  0  0  0  0  0
   -3.3870   -6.7500   -2.0980 H   0  0  0  0  0  0  0  0  0  0  0  0
   -3.6640   -8.4470   -2.2650 H   0  0  0  0  0  0  0  0  0  0  0  0
   -5.7720   -6.5590   -1.1440 H   0  0  0  0  0  0  0  0  0  0  0  0
   -5.1540   -6.3080   -3.7240 H   0  0  0  0  0  0  0  0  0  0  0  0
   -5.8100   -7.9420   -3.8820 H   0  0  0  0  0  0  0  0  0  0  0  0
   -7.9150   -7.0030   -2.8980 H   0  0  0  0  0  0  0  0  0  0  0  0
   -8.2010   -5.4460   -1.1080 H   0  0  0  0  0  0  0  0  0  0  0  0
   -6.5830   -4.7670   -0.9830 H   0  0  0  0  0  0  0  0  0  0  0  0
   -8.5340   -3.2700   -0.1630 H   0  0  0  0  0  0  0  0  0  0  0  0
   -9.0200   -3.1910   -1.8270 H   0  0  0  0  0  0  0  0  0  0  0  0
   -7.6580   -1.6600   -2.4120 H   0  0  0  0  0  0  0  0  0  0  0  0
   -6.2980   -2.2730   -1.5400 H   0  0  0  0  0  0  0  0  0  0  0  0
   -8.3280   -0.3780   -0.8290 H   0  0  0  0  0  0  0  0  0  0  0  0
   -7.6960   -1.3840    0.4620 H   0  0  0  0  0  0  0  0  0  0  0  0
   -7.1800   -8.4430   -1.1390 H   0  0  0  0  0  0  0  0  0  0  0  0
   -6.0130   -9.4220   -2.0200 H   0  0  0  0  0  0  0  0  0  0  0  0
   -6.3120   -9.2520    0.6320 H   0  0  0  0  0  0  0  0  0  0  0  0
   -4.9970   -9.9800   -0.2490 H   0  0  0  0  0  0  0  0  0  0  0  0
  1  2  1  0
  2  3  1  0
  3  4  1  0
  4  5  1  0
  5  6  1  0
  6  7  1  0
  7  8  1  0
  8  9  1  0
  9 10  1  0
 10 11  1  0
 11 12  2  0
 11 13  2  0
 11 14  1  0
 14 15  1  0
 15 16  1  0
 16 17  1  0
 17 18  1  0
 18 19  3  0
  8 20  1  0
 20 21  1  0
 21  5  1  0
  1 22  1  0
  1 23  1  0
  1 24  1  0
  2 25  1  0
  2 26  1  0
  3 27  1  0
  3 28  1  0
  4 29  1  0
  4 30  1  0
  5 31  1  0
  6 32  1  0
  6 33  1  0
  7 34  1  0
  7 35  1  0
  8 36  1  0
  9 37  1  0
  9 38  1  0
 10 39  1  0
 14 40  1  0
 14 41  1  0
 15 42  1  0
 15 43  1  0
 16 44  1  0
 16 45  1  0
 17 46  1  0
 17 47  1  0
 20 48  1  0
 20 49  1  0
 21 50  1  0
 21 51  1  0
A    1
 C1 
A    2
 C2 
A    3
 C3 
A    4
 C4 
A    5
 C5 
A    6
 C6 
A    7
 C7 
A    8
 C8 
A    9
 C9 
A   10
 N1 
A   11
 S1 
A   12
 O1 
A   13
 O2 
A   14
 C10
A   15
 C11
A   16
 C12
A   17
 C13
A   18
 C14
A   19
 N2 
A   20
 C15
A   21
 C16
A   22
 H1 
A   23
 H2 
A   24
 H3 
A   25
 H4 
A   26
 H5 
A   27
 H6 
A   28
 H7 
A   29
 H8 
A   30
 H9 
A   31
 H10
A   32
 H11
A   33
 H12
A   34
 H13
A   35
 H14
A   36
 H15
A   37
 H16
A   38
 H17
A   39
 H18
A   40
 H19
A   41
 H20
A   42
 H21
A   43
 H22
A   44
 H23
A   45
 H24
A   46
 H25
A   47
 H26
A   48
 H27
A   49
 H28
A   50
 H29
A   51
 H30
M  END
>  <ref_pdb>  (80) 
x0147_0A

>  <ref_mols>  (80) 
x1919_0AS12,x1247_0AS1

>  <original SMILES>  (80) 
[H]N(C([H])([H])C1([H])C([H])([H])C([H])([H])C([H])(C([H])([H])C([H])([H])C([H])([H])C([H])([H])[H])C([H])([H])C1([H])[H])S(=O)(=O)C([H])([H])C([H])([H])C([H])([H])C([H])([H])C#N

>  <index>  (80) 
7703

>  <∆∆G>  (80) 
-5.72994

>  <comRMSD>  (80) 
0.869154

>  <N_constrained_atoms>  (80) 
22.0

>  <N_unconstrained_atoms>  (80) 
1.0

>  <LE>  (80) 
0.249128

>  <percent_hybrid>  (80) 
24.0

>  <max_hit_Tanimoto>  (80) 
0.166276

>  <largest_ring>  (80) 
6

>  <N_interactions_kept>  (80) 
2.5

>  <N_interactions_lost>  (80) 
2.0

>  <interaction_uniqueness_metric>  (80) 
0.895366

>  <N_HA>  (80) 
21

>  <N_rotatable_bonds>  (80) 
11

>  <N_interactions>  (80) 
7

>  <N_PAINS>  (80) 
0

>  <UFF_Gibbs>  (80) 
236.887976

>  <strain_per_HA>  (80) 
11.280326

>  <ad_hoc_penalty>  (80) 
-28.192975

>  <cluster>  (80) 
5517

>  <ranked>  (80) 
92.0

>  <merger_rank>  (80) 
1

>  <hydroph_interaction:LEU:127>  (80) 
1

>  <hbond:GLY:128>  (80) 
0

>  <hydroph_interaction:ALA:144>  (80) 
0

>  <hbond:GLY:164>  (80) 
1

>  <hbond:HIS:40>  (80) 
0

>  <pistack:HIS:40>  (80) 
0

>  <hydroph_interaction:LEU:125>  (80) 
0

>  <hydroph_interaction:PHE:170>  (80) 
0

>  <hydroph_interaction:HIS:40>  (80) 
1

>  <pication:HIS:40>  (80) 
0

>  <hbond:THR:142>  (80) 
0

>  <hbond:HIS:161>  (80) 
0

>  <hbond:GLY:166>  (80) 
0

>  <hbond:VAL:162>  (80) 
0

>  <hydroph_interaction:ASN:165>  (80) 
0

>  <hbond:ASN:126>  (80) 
1

>  <hbond:ARG:143>  (80) 
0

>  <hbond:GLU:71>  (80) 
0

>  <saltbridge:HIS:161>  (80) 
0

>  <hbond:ALA:144>  (80) 
0

>  <hbond:GLY:145>  (80) 
0

>  <hbond:GLN:146>  (80) 
0

>  <hbond:CYS:147>  (80) 
0

>  <halogenbond:ASN:126>  (80) 
0

>  <saltbridge:HIS:40>  (80) 
0

>  <hbond:LEU:127>  (80) 
0

>  <hbond:THR:130>  (80) 
0

>  <hydroph_interaction:GLU:71>  (80) 
1

>  <hydroph_interaction:THR:130>  (80) 
1

>  <saltbridge:ARG:143>  (80) 
0

>  <saltbridge:GLU:71>  (80) 
0

>  <hbond:GLY:129>  (80) 
0

>  <halogenbond:CYS:147>  (80) 
0

>  <hydroph_interaction:THR:39>  (80) 
0

>  <hbond:ASN:69>  (80) 
0

>  <hydroph_interaction:THR:132>  (80) 
1

>  <hbond:TYR:122>  (80) 
0

>  <hydroph_interaction:PHE:109>  (80) 
0

>  <hydroph_interaction:PHE:140>  (80) 
0

>  <hbond:PRO:141>  (80) 
0

$$$$
Z409953920-x1084-0A
     RDKit          3D

 39 40  0  0  0  0  0  0  0  0999 V2000
   -2.8650   -7.5780    2.6270 C   0  0  0  0  0  0  0  0  0  0  0  0
   -3.4640   -8.6240    1.7550 C   0  0  0  0  0  0  0  0  0  0  0  0
   -3.8790   -8.2020    0.5040 C   0  0  0  0  0  0  0  0  0  0  0  0
   -2.9510   -7.8530   -0.4660 C   0  0  0  0  0  0  0  0  0  0  0  0
   -3.3370   -7.4180   -1.7110 C   0  0  0  0  0  0  0  0  0  0  0  0
   -4.7760   -7.3000   -2.0470 C   0  0  0  0  0  0  0  0  0  0  0  0
   -5.3130   -6.8520   -3.2520 N   0  0  0  0  0  0  0  0  0  0  0  0
   -6.6180   -6.4380   -3.3710 C   0  0  0  0  0  0  0  0  0  0  0  0
   -7.6100   -7.1030   -3.0730 O   0  0  0  0  0  0  0  0  0  0  0  0
   -6.7600   -5.1510   -3.8340 N   0  0  0  0  0  0  0  0  0  0  0  0
   -8.1020   -4.7610   -4.2190 C   0  0  0  0  0  0  0  0  0  0  0  0
   -8.6820   -5.7230   -5.2700 C   0  0  0  0  0  0  0  0  0  0  0  0
   -8.2790   -5.1640   -6.5970 C   0  0  0  0  0  0  0  0  0  0  0  0
   -8.9460   -3.8880   -7.0730 C   0  0  0  0  0  0  0  0  0  0  0  0
   -8.5890   -3.3430   -8.2730 C   0  0  0  0  0  0  0  0  0  0  0  0
   -7.5260   -4.1070   -9.0280 C   0  0  0  0  0  0  0  0  0  0  0  0
   -6.8710   -5.3270   -8.5970 N   0  0  0  0  0  0  0  0  0  0  0  0
   -7.3020   -5.7780   -7.3960 C   0  0  0  0  0  0  0  0  0  0  0  0
   -5.6830   -7.6690   -1.0520 C   0  0  0  0  0  0  0  0  0  0  0  0
   -5.2430   -8.1120    0.1990 C   0  0  0  0  0  0  0  0  0  0  0  0
   -2.1300   -6.9820    2.0710 H   0  0  0  0  0  0  0  0  0  0  0  0
   -2.3680   -8.0430    3.4840 H   0  0  0  0  0  0  0  0  0  0  0  0
   -3.6350   -6.8870    2.9870 H   0  0  0  0  0  0  0  0  0  0  0  0
   -4.3470   -9.0120    2.2780 H   0  0  0  0  0  0  0  0  0  0  0  0
   -2.7670   -9.4650    1.6850 H   0  0  0  0  0  0  0  0  0  0  0  0
   -1.8590   -7.8760   -0.3700 H   0  0  0  0  0  0  0  0  0  0  0  0
   -2.6490   -7.1370   -2.5080 H   0  0  0  0  0  0  0  0  0  0  0  0
   -4.6450   -6.5940   -3.9810 H   0  0  0  0  0  0  0  0  0  0  0  0
   -6.2460   -4.4560   -3.3110 H   0  0  0  0  0  0  0  0  0  0  0  0
   -8.6980   -4.8290   -3.3030 H   0  0  0  0  0  0  0  0  0  0  0  0
   -8.0610   -3.7050   -4.4760 H   0  0  0  0  0  0  0  0  0  0  0  0
   -9.7460   -5.8710   -5.0680 H   0  0  0  0  0  0  0  0  0  0  0  0
   -8.2150   -6.7100   -5.1820 H   0  0  0  0  0  0  0  0  0  0  0  0
   -9.6980   -3.4590   -6.4040 H   0  0  0  0  0  0  0  0  0  0  0  0
   -9.0460   -2.4290   -8.6380 H   0  0  0  0  0  0  0  0  0  0  0  0
   -7.1370   -3.8450   -9.9620 H   0  0  0  0  0  0  0  0  0  0  0  0
   -6.8140   -6.6910   -7.0720 H   0  0  0  0  0  0  0  0  0  0  0  0
   -6.7530   -7.6130   -1.2290 H   0  0  0  0  0  0  0  0  0  0  0  0
   -5.9820   -8.3860    0.9490 H   0  0  0  0  0  0  0  0  0  0  0  0
  1  2  1  0
  2  3  1  0
  3  4  2  0
  4  5  1  0
  5  6  2  0
  6  7  1  0
  7  8  1  0
  8  9  2  0
  8 10  1  0
 10 11  1  0
 11 12  1  0
 12 13  1  0
 13 14  2  0
 14 15  1  0
 15 16  2  0
 16 17  1  0
 17 18  2  0
  6 19  1  0
 19 20  2  0
 20  3  1  0
 18 13  1  0
  1 21  1  0
  1 22  1  0
  1 23  1  0
  2 24  1  0
  2 25  1  0
  4 26  1  0
  5 27  1  0
  7 28  1  0
 10 29  1  0
 11 30  1  0
 11 31  1  0
 12 32  1  0
 12 33  1  0
 14 34  1  0
 15 35  1  0
 16 36  1  0
 18 37  1  0
 19 38  1  0
 20 39  1  0
A    1
 C1 
A    2
 C2 
A    3
 C3 
A    4
 C4 
A    5
 C5 
A    6
 C6 
A    7
 N1 
A    8
 C7 
A    9
 O1 
A   10
 N2 
A   11
 C8 
A   12
 C9 
A   13
 C10
A   14
 C11
A   15
 C12
A   16
 C13
A   17
 N3 
A   18
 C14
A   19
 C15
A   20
 C16
A   21
 H1 
A   22
 H2 
A   23
 H3 
A   24
 H4 
A   25
 H5 
A   26
 H6 
A   27
 H7 
A   28
 H8 
A   29
 H9 
A   30
 H10
A   31
 H11
A   32
 H12
A   33
 H13
A   34
 H14
A   35
 H15
A   36
 H16
A   37
 H17
A   38
 H18
A   39
 H19
M  END
>  <ref_pdb>  (81) 
x0147_0A

>  <ref_mols>  (81) 
x1084_0A,x0980_0BS5

>  <original SMILES>  (81) 
[H]c1nc([H])c(C([H])([H])C([H])([H])N([H])C(=O)N([H])c2c([H])c([H])c(C([H])([H])C([H])([H])[H])c([H])c2[H])c([H])c1[H]

>  <index>  (81) 
1549

>  <∆∆G>  (81) 
-7.084689

>  <comRMSD>  (81) 
0.615427

>  <N_constrained_atoms>  (81) 
19.0

>  <N_unconstrained_atoms>  (81) 
2.0

>  <LE>  (81) 
0.337366

>  <percent_hybrid>  (81) 
32.0

>  <max_hit_Tanimoto>  (81) 
0.217119

>  <largest_ring>  (81) 
6

>  <N_interactions_kept>  (81) 
1.0

>  <N_interactions_lost>  (81) 
2.0

>  <interaction_uniqueness_metric>  (81) 
0.066747

>  <N_HA>  (81) 
20

>  <N_rotatable_bonds>  (81) 
6

>  <N_interactions>  (81) 
5

>  <N_PAINS>  (81) 
0

>  <UFF_Gibbs>  (81) 
95.661514

>  <strain_per_HA>  (81) 
4.783052

>  <ad_hoc_penalty>  (81) 
-28.192449

>  <cluster>  (81) 
166

>  <ranked>  (81) 
93.0

>  <merger_rank>  (81) 
2

>  <hydroph_interaction:LEU:127>  (81) 
1

>  <hbond:GLY:128>  (81) 
0

>  <hydroph_interaction:ALA:144>  (81) 
0

>  <hbond:GLY:164>  (81) 
2

>  <hbond:HIS:40>  (81) 
0

>  <pistack:HIS:40>  (81) 
0

>  <hydroph_interaction:LEU:125>  (81) 
0

>  <hydroph_interaction:PHE:170>  (81) 
0

>  <hydroph_interaction:HIS:40>  (81) 
1

>  <pication:HIS:40>  (81) 
0

>  <hbond:THR:142>  (81) 
0

>  <hbond:HIS:161>  (81) 
0

>  <hbond:GLY:166>  (81) 
0

>  <hbond:VAL:162>  (81) 
1

>  <hydroph_interaction:ASN:165>  (81) 
0

>  <hbond:ASN:126>  (81) 
0

>  <hbond:ARG:143>  (81) 
0

>  <hbond:GLU:71>  (81) 
0

>  <saltbridge:HIS:161>  (81) 
0

>  <hbond:ALA:144>  (81) 
0

>  <hbond:GLY:145>  (81) 
0

>  <hbond:GLN:146>  (81) 
0

>  <hbond:CYS:147>  (81) 
0

>  <halogenbond:ASN:126>  (81) 
0

>  <saltbridge:HIS:40>  (81) 
0

>  <hbond:LEU:127>  (81) 
0

>  <hbond:THR:130>  (81) 
0

>  <hydroph_interaction:GLU:71>  (81) 
0

>  <hydroph_interaction:THR:130>  (81) 
0

>  <saltbridge:ARG:143>  (81) 
0

>  <saltbridge:GLU:71>  (81) 
0

>  <hbond:GLY:129>  (81) 
0

>  <halogenbond:CYS:147>  (81) 
0

>  <hydroph_interaction:THR:39>  (81) 
0

>  <hbond:ASN:69>  (81) 
0

>  <hydroph_interaction:THR:132>  (81) 
0

>  <hbond:TYR:122>  (81) 
0

>  <hydroph_interaction:PHE:109>  (81) 
0

>  <hydroph_interaction:PHE:140>  (81) 
0

>  <hbond:PRO:141>  (81) 
0

$$$$
Z4576398851-x1071-0A
     RDKit          3D

 47 48  0  0  0  0  0  0  0  0999 V2000
   -5.7960   -0.0660   -2.3470 C   0  0  0  0  0  0  0  0  0  0  0  0
   -6.8410   -0.7040   -1.0740 S   0  0  0  0  0  6  0  0  0  0  0  0
   -5.9760   -0.8730    0.0430 O   0  0  0  0  0  0  0  0  0  0  0  0
   -7.9900    0.1670   -0.9630 O   0  0  0  0  0  0  0  0  0  0  0  0
   -7.4060   -2.3110   -1.6490 C   0  0  0  0  0  0  0  0  0  0  0  0
   -6.3340   -3.1770   -2.1470 C   0  0  0  0  0  0  0  0  0  0  0  0
   -6.5410   -4.3560   -2.9190 C   0  0  0  0  0  0  0  0  0  0  0  0
   -6.8260   -4.2800   -4.1090 O   0  0  0  0  0  0  0  0  0  0  0  0
   -6.3350   -5.6380   -2.1750 N   0  0  0  0  0  0  0  0  0  0  0  0
   -7.1760   -5.9180   -1.0030 C   0  0  0  0  0  0  0  0  0  0  0  0
   -6.5500   -7.0520   -0.1440 C   0  0  0  0  0  0  0  0  0  0  0  0
   -5.1150   -7.1110   -0.3700 C   0  0  0  0  0  0  0  0  0  0  0  0
   -4.3690   -7.9910    0.4580 C   0  0  0  0  0  0  0  0  0  0  0  0
   -3.0150   -7.7240    0.2580 C   0  0  0  0  0  0  0  0  0  0  0  0
   -2.4750   -7.1730    1.3650 C   0  0  0  0  0  0  0  0  0  0  0  0
   -3.3270   -7.3340    2.5070 C   0  0  0  0  0  0  0  0  0  0  0  0
   -4.5440   -7.7550    2.0090 C   0  0  0  0  0  0  0  0  0  0  0  0
   -4.7610   -9.0080    2.8150 C   0  0  0  0  0  0  0  0  0  0  0  0
   -5.5410  -10.0770    2.5170 O   0  0  0  0  0  0  0  0  0  0  0  0
   -4.0550   -8.9680    3.9760 O   0  0  0  0  0  0  0  0  0  0  0  0
   -4.7650   -7.4500   -1.8440 C   0  0  0  0  0  0  0  0  0  0  0  0
   -5.6640   -6.8100   -2.7550 C   0  0  0  0  0  0  0  0  0  0  0  0
   -4.9300    0.3480   -1.8870 H   0  0  0  0  0  0  0  0  0  0  0  0
   -6.3540    0.7080   -2.8710 H   0  0  0  0  0  0  0  0  0  0  0  0
   -5.5020   -0.8500   -3.0480 H   0  0  0  0  0  0  0  0  0  0  0  0
   -8.1160   -2.1420   -2.4660 H   0  0  0  0  0  0  0  0  0  0  0  0
   -7.8940   -2.8240   -0.8150 H   0  0  0  0  0  0  0  0  0  0  0  0
   -5.7250   -2.5340   -2.7810 H   0  0  0  0  0  0  0  0  0  0  0  0
   -5.7240   -3.4670   -1.2930 H   0  0  0  0  0  0  0  0  0  0  0  0
   -7.3180   -5.0180   -0.4010 H   0  0  0  0  0  0  0  0  0  0  0  0
   -8.1660   -6.2310   -1.3640 H   0  0  0  0  0  0  0  0  0  0  0  0
   -6.9310   -7.0970    0.8660 H   0  0  0  0  0  0  0  0  0  0  0  0
   -6.9040   -7.9830   -0.6010 H   0  0  0  0  0  0  0  0  0  0  0  0
   -4.6960   -6.1160   -0.3120 H   0  0  0  0  0  0  0  0  0  0  0  0
   -4.6380   -9.0420    0.3430 H   0  0  0  0  0  0  0  0  0  0  0  0
   -3.0000   -7.0820   -0.6220 H   0  0  0  0  0  0  0  0  0  0  0  0
   -2.4360   -8.5470   -0.1170 H   0  0  0  0  0  0  0  0  0  0  0  0
   -1.6060   -7.7960    1.5780 H   0  0  0  0  0  0  0  0  0  0  0  0
   -2.0620   -6.1750    1.2580 H   0  0  0  0  0  0  0  0  0  0  0  0
   -2.8960   -7.9340    3.2960 H   0  0  0  0  0  0  0  0  0  0  0  0
   -3.5210   -6.3670    2.9390 H   0  0  0  0  0  0  0  0  0  0  0  0
   -5.2230   -6.9430    2.2600 H   0  0  0  0  0  0  0  0  0  0  0  0
   -4.1290   -9.8810    4.3290 H   0  0  0  0  0  0  0  0  0  0  0  0
   -4.8250   -8.5330   -2.0040 H   0  0  0  0  0  0  0  0  0  0  0  0
   -3.7640   -7.1960   -2.1950 H   0  0  0  0  0  0  0  0  0  0  0  0
   -5.1230   -6.4650   -3.6410 H   0  0  0  0  0  0  0  0  0  0  0  0
   -6.4020   -7.5440   -3.0920 H   0  0  0  0  0  0  0  0  0  0  0  0
  1  2  1  0
  2  3  2  0
  2  4  2  0
  2  5  1  0
  5  6  1  0
  6  7  1  0
  7  8  2  0
  7  9  1  0
  9 10  1  0
 10 11  1  0
 11 12  1  0
 12 13  1  0
 13 14  1  0
 14 15  1  0
 15 16  1  0
 16 17  1  0
 17 18  1  0
 18 19  2  0
 18 20  1  0
 12 21  1  0
 21 22  1  0
 22  9  1  0
 17 13  1  0
  1 23  1  0
  1 24  1  0
  1 25  1  0
  5 26  1  0
  5 27  1  0
  6 28  1  0
  6 29  1  0
 10 30  1  0
 10 31  1  0
 11 32  1  0
 11 33  1  0
 12 34  1  0
 13 35  1  0
 14 36  1  0
 14 37  1  0
 15 38  1  0
 15 39  1  0
 16 40  1  0
 16 41  1  0
 17 42  1  0
 20 43  1  0
 21 44  1  0
 21 45  1  0
 22 46  1  0
 22 47  1  0
A    1
 C1 
A    2
 S1 
A    3
 O1 
A    4
 O2 
A    5
 C2 
A    6
 C3 
A    7
 C4 
A    8
 O3 
A    9
 N1 
A   10
 C5 
A   11
 C6 
A   12
 C7 
A   13
 C8 
A   14
 C9 
A   15
 C10
A   16
 C11
A   17
 C12
A   18
 C13
A   19
 O4 
A   20
 O5 
A   21
 C14
A   22
 C15
A   23
 H1 
A   24
 H2 
A   25
 H3 
A   26
 H4 
A   27
 H5 
A   28
 H6 
A   29
 H7 
A   30
 H8 
A   31
 H9 
A   32
 H10
A   33
 H11
A   34
 H12
A   35
 H13
A   36
 H14
A   37
 H15
A   38
 H16
A   39
 H17
A   40
 H18
A   41
 H19
A   42
 H20
A   43
 H21
A   44
 H22
A   45
 H23
A   46
 H24
A   47
 H25
M  END
>  <ref_pdb>  (82) 
x0147_0A

>  <ref_mols>  (82) 
x1071_0A,x1247_0AS4

>  <original SMILES>  (82) 
[H]OC(=O)C1([H])C([H])([H])C([H])([H])C([H])([H])C1([H])C1([H])C([H])([H])C([H])([H])N(C(=O)C([H])([H])C([H])([H])S(=O)(=O)C([H])([H])[H])C([H])([H])C1([H])[H]

>  <index>  (82) 
10054

>  <∆∆G>  (82) 
-7.569833

>  <comRMSD>  (82) 
0.444869

>  <N_constrained_atoms>  (82) 
22.0

>  <N_unconstrained_atoms>  (82) 
0.0

>  <LE>  (82) 
0.344083

>  <percent_hybrid>  (82) 
37.0

>  <max_hit_Tanimoto>  (82) 
0.260521

>  <largest_ring>  (82) 
6

>  <N_interactions_kept>  (82) 
1.0

>  <N_interactions_lost>  (82) 
2.0

>  <interaction_uniqueness_metric>  (82) 
0.078066

>  <N_HA>  (82) 
22

>  <N_rotatable_bonds>  (82) 
6

>  <N_interactions>  (82) 
6

>  <N_PAINS>  (82) 
0

>  <UFF_Gibbs>  (82) 
318.600187

>  <strain_per_HA>  (82) 
14.481761

>  <ad_hoc_penalty>  (82) 
-28.189243

>  <cluster>  (82) 
4942

>  <ranked>  (82) 
94.0

>  <merger_rank>  (82) 
4

>  <hydroph_interaction:LEU:127>  (82) 
2

>  <hbond:GLY:128>  (82) 
0

>  <hydroph_interaction:ALA:144>  (82) 
0

>  <hbond:GLY:164>  (82) 
1

>  <hbond:HIS:40>  (82) 
0

>  <pistack:HIS:40>  (82) 
0

>  <hydroph_interaction:LEU:125>  (82) 
0

>  <hydroph_interaction:PHE:170>  (82) 
0

>  <hydroph_interaction:HIS:40>  (82) 
1

>  <pication:HIS:40>  (82) 
0

>  <hbond:THR:142>  (82) 
0

>  <hbond:HIS:161>  (82) 
0

>  <hbond:GLY:166>  (82) 
0

>  <hbond:VAL:162>  (82) 
0

>  <hydroph_interaction:ASN:165>  (82) 
0

>  <hbond:ASN:126>  (82) 
0

>  <hbond:ARG:143>  (82) 
0

>  <hbond:GLU:71>  (82) 
0

>  <saltbridge:HIS:161>  (82) 
0

>  <hbond:ALA:144>  (82) 
0

>  <hbond:GLY:145>  (82) 
0

>  <hbond:GLN:146>  (82) 
0

>  <hbond:CYS:147>  (82) 
0

>  <halogenbond:ASN:126>  (82) 
0

>  <saltbridge:HIS:40>  (82) 
0

>  <hbond:LEU:127>  (82) 
0

>  <hbond:THR:130>  (82) 
2

>  <hydroph_interaction:GLU:71>  (82) 
0

>  <hydroph_interaction:THR:130>  (82) 
0

>  <saltbridge:ARG:143>  (82) 
0

>  <saltbridge:GLU:71>  (82) 
0

>  <hbond:GLY:129>  (82) 
0

>  <halogenbond:CYS:147>  (82) 
0

>  <hydroph_interaction:THR:39>  (82) 
0

>  <hbond:ASN:69>  (82) 
0

>  <hydroph_interaction:THR:132>  (82) 
0

>  <hbond:TYR:122>  (82) 
0

>  <hydroph_interaction:PHE:109>  (82) 
0

>  <hydroph_interaction:PHE:140>  (82) 
0

>  <hbond:PRO:141>  (82) 
0

$$$$
Z3054149790-x1071-0AS6
     RDKit          3D

 27 27  0  0  0  0  0  0  0  0999 V2000
   -6.4770    0.5860   -1.8900 C   0  0  0  0  0  0  0  0  0  0  0  0
   -6.4480   -0.7750   -1.2770 C   0  0  0  0  0  0  0  0  0  0  0  0
   -6.1870   -0.8920   -0.0910 O   0  0  0  0  0  0  0  0  0  0  0  0
   -6.7330   -1.8100   -2.1560 N   0  0  0  0  0  0  0  0  0  0  0  0
   -7.0470   -3.1970   -1.7920 C   0  0  0  0  0  0  0  0  0  0  0  0
   -6.7070   -4.2860   -2.8500 C   0  0  0  0  0  0  0  0  0  0  0  0
   -6.5510   -4.0640   -4.0440 O   0  0  0  0  0  0  0  0  0  0  0  0
   -6.5940   -5.6130   -2.2430 N   0  0  0  0  0  0  0  0  0  0  0  0
   -6.9410   -5.8400   -0.9240 C   0  0  0  0  0  0  0  0  0  0  0  0
   -6.5280   -7.2270   -0.4650 C   0  0  0  0  0  0  0  0  0  0  0  0
   -5.0380   -7.3910   -0.5060 C   0  0  0  0  0  0  0  0  0  0  0  0
   -4.5060   -7.2960   -2.2130 S   0  0  0  0  0  0  0  0  0  0  0  0
   -6.0740   -6.7770   -2.9480 C   0  0  0  0  0  0  0  0  0  0  0  0
   -6.3890    0.4640   -2.9720 H   0  0  0  0  0  0  0  0  0  0  0  0
   -7.4250    1.0740   -1.6450 H   0  0  0  0  0  0  0  0  0  0  0  0
   -5.6480    1.2110   -1.5440 H   0  0  0  0  0  0  0  0  0  0  0  0
   -6.9470   -1.5530   -3.1170 H   0  0  0  0  0  0  0  0  0  0  0  0
   -8.1070   -3.2240   -1.5100 H   0  0  0  0  0  0  0  0  0  0  0  0
   -6.4790   -3.3720   -0.8930 H   0  0  0  0  0  0  0  0  0  0  0  0
   -7.9230   -5.5030   -0.6080 H   0  0  0  0  0  0  0  0  0  0  0  0
   -6.2680   -5.1550   -0.3990 H   0  0  0  0  0  0  0  0  0  0  0  0
   -6.9060   -7.3740    0.5530 H   0  0  0  0  0  0  0  0  0  0  0  0
   -7.0120   -7.9990   -1.0770 H   0  0  0  0  0  0  0  0  0  0  0  0
   -4.4470   -6.6520    0.0320 H   0  0  0  0  0  0  0  0  0  0  0  0
   -4.6460   -8.3390   -0.1460 H   0  0  0  0  0  0  0  0  0  0  0  0
   -5.9110   -6.5100   -3.9990 H   0  0  0  0  0  0  0  0  0  0  0  0
   -6.7540   -7.6140   -2.9260 H   0  0  0  0  0  0  0  0  0  0  0  0
  1  2  1  0
  2  3  2  0
  2  4  1  0
  4  5  1  0
  5  6  1  0
  6  7  2  0
  6  8  1  0
  8  9  1  0
  9 10  1  0
 10 11  1  0
 11 12  1  0
 12 13  1  0
 13  8  1  0
  1 14  1  0
  1 15  1  0
  1 16  1  0
  4 17  1  0
  5 18  1  0
  5 19  1  0
  9 20  1  0
  9 21  1  0
 10 22  1  0
 10 23  1  0
 11 24  1  0
 11 25  1  0
 13 26  1  0
 13 27  1  0
A    1
 C1 
A    2
 C2 
A    3
 O1 
A    4
 N1 
A    5
 C3 
A    6
 C4 
A    7
 O2 
A    8
 N2 
A    9
 C5 
A   10
 C6 
A   11
 C7 
A   12
 S1 
A   13
 C8 
A   14
 H1 
A   15
 H2 
A   16
 H3 
A   17
 H4 
A   18
 H5 
A   19
 H6 
A   20
 H7 
A   21
 H8 
A   22
 H9 
A   23
 H10
A   24
 H11
A   25
 H12
A   26
 H13
A   27
 H14
M  END
>  <ref_pdb>  (83) 
x0147_0A

>  <ref_mols>  (83) 
x1071_0AS6,x1052_1AS1

>  <original SMILES>  (83) 
[H]N(C(=O)C([H])([H])[H])C([H])([H])C(=O)N1C([H])([H])SC([H])([H])C([H])([H])C1([H])[H]

>  <index>  (83) 
6284

>  <∆∆G>  (83) 
-7.489468

>  <comRMSD>  (83) 
0.641651

>  <N_constrained_atoms>  (83) 
14.0

>  <N_unconstrained_atoms>  (83) 
0.0

>  <LE>  (83) 
0.534962

>  <percent_hybrid>  (83) 
34.0

>  <max_hit_Tanimoto>  (83) 
0.287066

>  <largest_ring>  (83) 
6

>  <N_interactions_kept>  (83) 
0.0

>  <N_interactions_lost>  (83) 
3.0

>  <interaction_uniqueness_metric>  (83) 
0.100149

>  <N_HA>  (83) 
13

>  <N_rotatable_bonds>  (83) 
3

>  <N_interactions>  (83) 
5

>  <N_PAINS>  (83) 
0

>  <UFF_Gibbs>  (83) 
60.885609

>  <strain_per_HA>  (83) 
4.683472

>  <ad_hoc_penalty>  (83) 
-28.053912

>  <cluster>  (83) 
1423

>  <ranked>  (83) 
95.0

>  <merger_rank>  (83) 
1

>  <hydroph_interaction:LEU:127>  (83) 
0

>  <hbond:GLY:128>  (83) 
1

>  <hydroph_interaction:ALA:144>  (83) 
0

>  <hbond:GLY:164>  (83) 
2

>  <hbond:HIS:40>  (83) 
0

>  <pistack:HIS:40>  (83) 
0

>  <hydroph_interaction:LEU:125>  (83) 
0

>  <hydroph_interaction:PHE:170>  (83) 
1

>  <hydroph_interaction:HIS:40>  (83) 
0

>  <pication:HIS:40>  (83) 
0

>  <hbond:THR:142>  (83) 
0

>  <hbond:HIS:161>  (83) 
0

>  <hbond:GLY:166>  (83) 
0

>  <hbond:VAL:162>  (83) 
0

>  <hydroph_interaction:ASN:165>  (83) 
1

>  <hbond:ASN:126>  (83) 
0

>  <hbond:ARG:143>  (83) 
0

>  <hbond:GLU:71>  (83) 
0

>  <saltbridge:HIS:161>  (83) 
0

>  <hbond:ALA:144>  (83) 
0

>  <hbond:GLY:145>  (83) 
0

>  <hbond:GLN:146>  (83) 
0

>  <hbond:CYS:147>  (83) 
0

>  <halogenbond:ASN:126>  (83) 
0

>  <saltbridge:HIS:40>  (83) 
0

>  <hbond:LEU:127>  (83) 
0

>  <hbond:THR:130>  (83) 
0

>  <hydroph_interaction:GLU:71>  (83) 
0

>  <hydroph_interaction:THR:130>  (83) 
0

>  <saltbridge:ARG:143>  (83) 
0

>  <saltbridge:GLU:71>  (83) 
0

>  <hbond:GLY:129>  (83) 
0

>  <halogenbond:CYS:147>  (83) 
0

>  <hydroph_interaction:THR:39>  (83) 
0

>  <hbond:ASN:69>  (83) 
0

>  <hydroph_interaction:THR:132>  (83) 
0

>  <hbond:TYR:122>  (83) 
0

>  <hydroph_interaction:PHE:109>  (83) 
0

>  <hydroph_interaction:PHE:140>  (83) 
0

>  <hbond:PRO:141>  (83) 
0

$$$$
Z3231239919-x1084-0A
     RDKit          3D

 40 41  0  0  0  0  0  0  0  0999 V2000
   -3.7350   -7.3910    2.8820 N   0  0  0  0  0  0  0  0  0  0  0  0
   -3.3650   -8.3310    1.9130 C   0  0  0  0  0  0  0  0  0  0  0  0
   -3.8540   -8.0420    0.6480 C   0  0  0  0  0  0  0  0  0  0  0  0
   -2.9980   -7.7280   -0.3850 C   0  0  0  0  0  0  0  0  0  0  0  0
   -3.4740   -7.4160   -1.6400 C   0  0  0  0  0  0  0  0  0  0  0  0
   -4.8900   -7.4020   -1.9090 C   0  0  0  0  0  0  0  0  0  0  0  0
   -5.3850   -7.0800   -3.1000 C   0  0  0  0  0  0  0  0  0  0  0  0
   -6.6930   -6.3850   -3.1270 C   0  0  0  0  0  0  0  0  0  0  0  0
   -7.4160   -6.3510   -2.1380 O   0  0  0  0  0  0  0  0  0  0  0  0
   -7.0480   -5.8060   -4.3130 N   0  0  0  0  0  0  0  0  0  0  0  0
   -7.2100   -6.8070   -5.3640 C   0  0  0  0  0  0  0  0  0  0  0  0
   -8.5050   -6.6370   -6.1370 C   0  0  0  0  0  0  0  0  0  0  0  0
   -8.3670   -5.5510   -6.9530 C   0  0  0  0  0  0  0  0  0  0  0  0
   -9.3050   -4.3650   -6.8660 C   0  0  0  0  0  0  0  0  0  0  0  0
   -9.1670   -3.2680   -7.6670 C   0  0  0  0  0  0  0  0  0  0  0  0
   -8.0420   -3.2220   -8.6810 C   0  0  0  0  0  0  0  0  0  0  0  0
   -7.1780   -4.3100   -8.7770 C   0  0  0  0  0  0  0  0  0  0  0  0
   -7.3380   -5.5200   -7.8860 C   0  0  0  0  0  0  0  0  0  0  0  0
   -5.7400   -7.7370   -0.8570 C   0  0  0  0  0  0  0  0  0  0  0  0
   -5.2320   -8.0510    0.3970 C   0  0  0  0  0  0  0  0  0  0  0  0
   -3.1520   -7.4080    3.7190 H   0  0  0  0  0  0  0  0  0  0  0  0
   -3.6940   -6.4530    2.4830 H   0  0  0  0  0  0  0  0  0  0  0  0
   -3.6870   -9.3220    2.2370 H   0  0  0  0  0  0  0  0  0  0  0  0
   -2.2670   -8.3770    1.8740 H   0  0  0  0  0  0  0  0  0  0  0  0
   -1.9350   -7.7500   -0.1050 H   0  0  0  0  0  0  0  0  0  0  0  0
   -2.7750   -7.1770   -2.4340 H   0  0  0  0  0  0  0  0  0  0  0  0
   -4.6870   -6.4050   -3.5880 H   0  0  0  0  0  0  0  0  0  0  0  0
   -5.4360   -7.9650   -3.7460 H   0  0  0  0  0  0  0  0  0  0  0  0
   -7.7670   -5.0930   -4.2580 H   0  0  0  0  0  0  0  0  0  0  0  0
   -7.1740   -7.7860   -4.8730 H   0  0  0  0  0  0  0  0  0  0  0  0
   -6.3620   -6.7640   -6.0510 H   0  0  0  0  0  0  0  0  0  0  0  0
   -9.2790   -6.3780   -5.4000 H   0  0  0  0  0  0  0  0  0  0  0  0
   -8.8890   -7.5370   -6.5800 H   0  0  0  0  0  0  0  0  0  0  0  0
  -10.0940   -4.4570   -6.1130 H   0  0  0  0  0  0  0  0  0  0  0  0
   -9.8550   -2.4320   -7.5790 H   0  0  0  0  0  0  0  0  0  0  0  0
   -7.9380   -2.3530   -9.3010 H   0  0  0  0  0  0  0  0  0  0  0  0
   -6.3770   -4.2920   -9.4990 H   0  0  0  0  0  0  0  0  0  0  0  0
   -6.6430   -6.3520   -7.9840 H   0  0  0  0  0  0  0  0  0  0  0  0
   -6.8180   -7.7530   -0.9960 H   0  0  0  0  0  0  0  0  0  0  0  0
   -5.9230   -8.3010    1.1960 H   0  0  0  0  0  0  0  0  0  0  0  0
  1  2  1  0
  2  3  1  0
  3  4  2  0
  4  5  1  0
  5  6  2  0
  6  7  1  0
  7  8  1  0
  8  9  2  0
  8 10  1  0
 10 11  1  0
 11 12  1  0
 12 13  1  0
 13 14  2  0
 14 15  1  0
 15 16  2  0
 16 17  1  0
 17 18  2  0
  6 19  1  0
 19 20  2  0
 20  3  1  0
 18 13  1  0
  1 21  1  0
  1 22  1  0
  2 23  1  0
  2 24  1  0
  4 25  1  0
  5 26  1  0
  7 27  1  0
  7 28  1  0
 10 29  1  0
 11 30  1  0
 11 31  1  0
 12 32  1  0
 12 33  1  0
 14 34  1  0
 15 35  1  0
 16 36  1  0
 17 37  1  0
 18 38  1  0
 19 39  1  0
 20 40  1  0
A    1
 N1 
A    2
 C1 
A    3
 C2 
A    4
 C3 
A    5
 C4 
A    6
 C5 
A    7
 C6 
A    8
 C7 
A    9
 O1 
A   10
 N2 
A   11
 C8 
A   12
 C9 
A   13
 C10
A   14
 C11
A   15
 C12
A   16
 C13
A   17
 C14
A   18
 C15
A   19
 C16
A   20
 C17
A   21
 H1 
A   22
 H2 
A   23
 H3 
A   24
 H4 
A   25
 H5 
A   26
 H6 
A   27
 H7 
A   28
 H8 
A   29
 H9 
A   30
 H10
A   31
 H11
A   32
 H12
A   33
 H13
A   34
 H14
A   35
 H15
A   36
 H16
A   37
 H17
A   38
 H18
A   39
 H19
A   40
 H20
M  END
>  <ref_pdb>  (84) 
x0147_0A

>  <ref_mols>  (84) 
x1084_0A,x0980_0BS5

>  <original SMILES>  (84) 
[H]c1c([H])c([H])c(C([H])([H])C([H])([H])N([H])C(=O)C([H])([H])c2c([H])c([H])c(C([H])([H])N([H])[H])c([H])c2[H])c([H])c1[H]

>  <index>  (84) 
1590

>  <∆∆G>  (84) 
-7.849737

>  <comRMSD>  (84) 
0.855599

>  <N_constrained_atoms>  (84) 
19.0

>  <N_unconstrained_atoms>  (84) 
2.0

>  <LE>  (84) 
0.373797

>  <percent_hybrid>  (84) 
32.0

>  <max_hit_Tanimoto>  (84) 
0.194521

>  <largest_ring>  (84) 
6

>  <N_interactions_kept>  (84) 
1.0

>  <N_interactions_lost>  (84) 
2.0

>  <interaction_uniqueness_metric>  (84) 
0.087297

>  <N_HA>  (84) 
20

>  <N_rotatable_bonds>  (84) 
7

>  <N_interactions>  (84) 
5

>  <N_PAINS>  (84) 
0

>  <UFF_Gibbs>  (84) 
123.494365

>  <strain_per_HA>  (84) 
6.174687

>  <ad_hoc_penalty>  (84) 
-28.014449

>  <cluster>  (84) 
6991

>  <ranked>  (84) 
96.0

>  <merger_rank>  (84) 
3

>  <hydroph_interaction:LEU:127>  (84) 
1

>  <hbond:GLY:128>  (84) 
0

>  <hydroph_interaction:ALA:144>  (84) 
1

>  <hbond:GLY:164>  (84) 
0

>  <hbond:HIS:40>  (84) 
0

>  <pistack:HIS:40>  (84) 
0

>  <hydroph_interaction:LEU:125>  (84) 
0

>  <hydroph_interaction:PHE:170>  (84) 
0

>  <hydroph_interaction:HIS:40>  (84) 
1

>  <pication:HIS:40>  (84) 
0

>  <hbond:THR:142>  (84) 
0

>  <hbond:HIS:161>  (84) 
0

>  <hbond:GLY:166>  (84) 
0

>  <hbond:VAL:162>  (84) 
0

>  <hydroph_interaction:ASN:165>  (84) 
0

>  <hbond:ASN:126>  (84) 
0

>  <hbond:ARG:143>  (84) 
0

>  <hbond:GLU:71>  (84) 
0

>  <saltbridge:HIS:161>  (84) 
0

>  <hbond:ALA:144>  (84) 
0

>  <hbond:GLY:145>  (84) 
0

>  <hbond:GLN:146>  (84) 
0

>  <hbond:CYS:147>  (84) 
0

>  <halogenbond:ASN:126>  (84) 
0

>  <saltbridge:HIS:40>  (84) 
0

>  <hbond:LEU:127>  (84) 
0

>  <hbond:THR:130>  (84) 
2

>  <hydroph_interaction:GLU:71>  (84) 
0

>  <hydroph_interaction:THR:130>  (84) 
0

>  <saltbridge:ARG:143>  (84) 
0

>  <saltbridge:GLU:71>  (84) 
0

>  <hbond:GLY:129>  (84) 
0

>  <halogenbond:CYS:147>  (84) 
0

>  <hydroph_interaction:THR:39>  (84) 
0

>  <hbond:ASN:69>  (84) 
0

>  <hydroph_interaction:THR:132>  (84) 
0

>  <hbond:TYR:122>  (84) 
0

>  <hydroph_interaction:PHE:109>  (84) 
0

>  <hydroph_interaction:PHE:140>  (84) 
0

>  <hbond:PRO:141>  (84) 
0

$$$$
PV-001342480386-x1071-0A
     RDKit          3D

 56 57  0  0  0  0  0  0  0  0999 V2000
   -7.4910  -12.8810    4.1030 C   0  0  0  0  0  0  0  0  0  0  0  0
   -6.2190  -12.0430    4.0820 C   0  0  0  0  0  0  0  0  0  0  0  0
   -5.6510  -11.7880    5.3760 O   0  0  0  0  0  0  0  0  0  0  0  0
   -5.7860  -11.6490    2.8490 N   0  0  0  0  0  0  0  0  0  0  0  0
   -4.8440  -10.6230    2.6190 C   0  0  0  0  0  0  0  0  0  0  0  0
   -5.2550   -9.3800    2.4240 C   0  0  0  0  0  0  0  0  0  0  0  0
   -4.2250   -8.3430    2.1900 C   0  0  0  0  0  0  0  0  0  0  0  0
   -4.9300   -7.0850    2.0150 C   0  0  0  0  0  0  0  0  0  0  0  0
   -5.0360   -6.4170    3.0440 O   0  0  0  0  0  0  0  0  0  0  0  0
   -5.3980   -6.7950    0.7660 N   0  0  0  0  0  0  0  0  0  0  0  0
   -6.1240   -7.6420   -0.1760 C   0  0  0  0  0  0  0  0  0  0  0  0
   -7.3610   -7.0180   -0.3250 C   0  0  0  0  0  0  0  0  0  0  0  0
   -7.4330   -5.7570   -0.9540 C   0  0  0  0  0  0  0  0  0  0  0  0
   -6.4050   -5.4980   -1.8480 N   0  0  0  0  0  0  0  0  0  0  0  0
   -6.4640   -4.2790   -2.7270 C   0  0  0  0  0  0  0  0  0  0  0  0
   -6.7080   -4.3890   -3.9360 O   0  0  0  0  0  0  0  0  0  0  0  0
   -6.1950   -2.8280   -2.2200 C   0  0  0  0  0  0  0  0  0  0  0  0
   -6.6630   -2.2680   -1.0640 O   0  0  0  0  0  0  0  0  0  0  0  0
   -6.6510   -0.8070   -1.1210 C   0  0  0  0  0  0  0  0  0  0  0  0
   -7.8980   -0.3030   -1.5100 C   0  0  0  0  0  0  0  0  0  0  0  0
   -6.3900   -0.2300    0.2670 C   0  0  0  0  0  0  0  0  0  0  0  0
   -5.5340   -0.2490   -2.0190 C   0  0  0  0  0  0  0  0  0  0  0  0
   -5.9080   -6.7340   -2.5010 C   0  0  0  0  0  0  0  0  0  0  0  0
   -5.4720   -7.7330   -1.5840 C   0  0  0  0  0  0  0  0  0  0  0  0
   -2.8640   -8.5950    2.1660 C   0  0  0  0  0  0  0  0  0  0  0  0
   -2.4860   -9.9060    2.3780 C   0  0  0  0  0  0  0  0  0  0  0  0
   -3.4690  -10.8950    2.5970 C   0  0  0  0  0  0  0  0  0  0  0  0
   -3.0800  -12.1570    2.7920 F   0  0  0  0  0  0  0  0  0  0  0  0
   -8.3720  -12.2560    3.9350 H   0  0  0  0  0  0  0  0  0  0  0  0
   -7.6080  -13.3630    5.0780 H   0  0  0  0  0  0  0  0  0  0  0  0
   -7.4670  -13.6420    3.3190 H   0  0  0  0  0  0  0  0  0  0  0  0
   -6.4110  -11.8180    2.0650 H   0  0  0  0  0  0  0  0  0  0  0  0
   -6.3060   -9.1000    2.4300 H   0  0  0  0  0  0  0  0  0  0  0  0
   -5.4050   -5.8160    0.5280 H   0  0  0  0  0  0  0  0  0  0  0  0
   -6.0850   -8.6430    0.2400 H   0  0  0  0  0  0  0  0  0  0  0  0
   -8.0260   -7.6930   -0.8750 H   0  0  0  0  0  0  0  0  0  0  0  0
   -7.8170   -6.9260    0.6690 H   0  0  0  0  0  0  0  0  0  0  0  0
   -8.3870   -5.6880   -1.4800 H   0  0  0  0  0  0  0  0  0  0  0  0
   -7.4210   -4.9570   -0.2190 H   0  0  0  0  0  0  0  0  0  0  0  0
   -5.1750   -2.5330   -2.4260 H   0  0  0  0  0  0  0  0  0  0  0  0
   -6.7790   -2.2630   -2.9230 H   0  0  0  0  0  0  0  0  0  0  0  0
   -8.6020   -0.3700   -0.6740 H   0  0  0  0  0  0  0  0  0  0  0  0
   -7.9530    0.7160   -1.8900 H   0  0  0  0  0  0  0  0  0  0  0  0
   -8.3190   -0.9220   -2.3090 H   0  0  0  0  0  0  0  0  0  0  0  0
   -6.8010    0.7840    0.3400 H   0  0  0  0  0  0  0  0  0  0  0  0
   -6.8290   -0.8220    1.0750 H   0  0  0  0  0  0  0  0  0  0  0  0
   -5.3220   -0.1200    0.4220 H   0  0  0  0  0  0  0  0  0  0  0  0
   -4.5920   -0.7840   -1.8760 H   0  0  0  0  0  0  0  0  0  0  0  0
   -5.7920   -0.3400   -3.0670 H   0  0  0  0  0  0  0  0  0  0  0  0
   -5.3470    0.8070   -1.8100 H   0  0  0  0  0  0  0  0  0  0  0  0
   -6.6910   -7.0100   -3.1990 H   0  0  0  0  0  0  0  0  0  0  0  0
   -5.0530   -6.4710   -3.1360 H   0  0  0  0  0  0  0  0  0  0  0  0
   -4.3830   -7.7810   -1.5240 H   0  0  0  0  0  0  0  0  0  0  0  0
   -5.7720   -8.6990   -2.0110 H   0  0  0  0  0  0  0  0  0  0  0  0
   -2.1230   -7.8190    1.9940 H   0  0  0  0  0  0  0  0  0  0  0  0
   -1.4360  -10.1860    2.3750 H   0  0  0  0  0  0  0  0  0  0  0  0
  1  2  1  0
  2  3  2  0
  2  4  1  0
  4  5  1  0
  5  6  2  0
  6  7  1  0
  7  8  1  0
  8  9  2  0
  8 10  1  0
 10 11  1  0
 11 12  1  0
 12 13  1  0
 13 14  1  0
 14 15  1  0
 15 16  2  0
 15 17  1  0
 17 18  1  0
 18 19  1  0
 19 20  1  0
 19 21  1  0
 19 22  1  0
 14 23  1  0
 23 24  1  0
  7 25  2  0
 25 26  1  0
 26 27  2  0
 27 28  1  0
 27  5  1  0
 24 11  1  0
  1 29  1  0
  1 30  1  0
  1 31  1  0
  4 32  1  0
  6 33  1  0
 10 34  1  0
 11 35  1  0
 12 36  1  0
 12 37  1  0
 13 38  1  0
 13 39  1  0
 17 40  1  0
 17 41  1  0
 20 42  1  0
 20 43  1  0
 20 44  1  0
 21 45  1  0
 21 46  1  0
 21 47  1  0
 22 48  1  0
 22 49  1  0
 22 50  1  0
 23 51  1  0
 23 52  1  0
 24 53  1  0
 24 54  1  0
 25 55  1  0
 26 56  1  0
A    1
 C1 
A    2
 C2 
A    3
 O1 
A    4
 N1 
A    5
 C3 
A    6
 C4 
A    7
 C5 
A    8
 C6 
A    9
 O2 
A   10
 N2 
A   11
 C7 
A   12
 C8 
A   13
 C9 
A   14
 N3 
A   15
 C10
A   16
 O3 
A   17
 C11
A   18
 O4 
A   19
 C12
A   20
 C13
A   21
 C14
A   22
 C15
A   23
 C16
A   24
 C17
A   25
 C18
A   26
 C19
A   27
 C20
A   28
 F1 
A   29
 H1 
A   30
 H2 
A   31
 H3 
A   32
 H4 
A   33
 H5 
A   34
 H6 
A   35
 H7 
A   36
 H8 
A   37
 H9 
A   38
 H10
A   39
 H11
A   40
 H12
A   41
 H13
A   42
 H14
A   43
 H15
A   44
 H16
A   45
 H17
A   46
 H18
A   47
 H19
A   48
 H20
A   49
 H21
A   50
 H22
A   51
 H23
A   52
 H24
A   53
 H25
A   54
 H26
A   55
 H27
A   56
 H28
M  END
>  <ref_pdb>  (85) 
x0147_0A

>  <ref_mols>  (85) 
x1071_0A,x1020_0A

>  <original SMILES>  (85) 
[H]c1c([H])c(C(=O)N([H])C2([H])C([H])([H])C([H])([H])N(C(=O)C([H])([H])OC(C([H])([H])[H])(C([H])([H])[H])C([H])([H])[H])C([H])([H])C2([H])[H])c([H])c(N([H])C(=O)C([H])([H])[H])c1F

>  <index>  (85) 
2219

>  <∆∆G>  (85) 
-5.214811

>  <comRMSD>  (85) 
0.777696

>  <N_constrained_atoms>  (85) 
27.0

>  <N_unconstrained_atoms>  (85) 
3.0

>  <LE>  (85) 
0.173827

>  <percent_hybrid>  (85) 
49.0

>  <max_hit_Tanimoto>  (85) 
0.241677

>  <largest_ring>  (85) 
6

>  <N_interactions_kept>  (85) 
0.0

>  <N_interactions_lost>  (85) 
2.5

>  <interaction_uniqueness_metric>  (85) 
0.171116

>  <N_HA>  (85) 
28

>  <N_rotatable_bonds>  (85) 
6

>  <N_interactions>  (85) 
7

>  <N_PAINS>  (85) 
0

>  <UFF_Gibbs>  (85) 
182.373017

>  <strain_per_HA>  (85) 
6.513299

>  <ad_hoc_penalty>  (85) 
-27.974755

>  <cluster>  (85) 
622

>  <ranked>  (85) 
97.0

>  <merger_rank>  (85) 
3

>  <hydroph_interaction:LEU:127>  (85) 
1

>  <hbond:GLY:128>  (85) 
1

>  <hydroph_interaction:ALA:144>  (85) 
0

>  <hbond:GLY:164>  (85) 
1

>  <hbond:HIS:40>  (85) 
0

>  <pistack:HIS:40>  (85) 
0

>  <hydroph_interaction:LEU:125>  (85) 
0

>  <hydroph_interaction:PHE:170>  (85) 
1

>  <hydroph_interaction:HIS:40>  (85) 
1

>  <pication:HIS:40>  (85) 
0

>  <hbond:THR:142>  (85) 
0

>  <hbond:HIS:161>  (85) 
0

>  <hbond:GLY:166>  (85) 
0

>  <hbond:VAL:162>  (85) 
0

>  <hydroph_interaction:ASN:165>  (85) 
0

>  <hbond:ASN:126>  (85) 
0

>  <hbond:ARG:143>  (85) 
0

>  <hbond:GLU:71>  (85) 
0

>  <saltbridge:HIS:161>  (85) 
0

>  <hbond:ALA:144>  (85) 
0

>  <hbond:GLY:145>  (85) 
0

>  <hbond:GLN:146>  (85) 
0

>  <hbond:CYS:147>  (85) 
0

>  <halogenbond:ASN:126>  (85) 
0

>  <saltbridge:HIS:40>  (85) 
0

>  <hbond:LEU:127>  (85) 
1

>  <hbond:THR:130>  (85) 
1

>  <hydroph_interaction:GLU:71>  (85) 
0

>  <hydroph_interaction:THR:130>  (85) 
0

>  <saltbridge:ARG:143>  (85) 
0

>  <saltbridge:GLU:71>  (85) 
0

>  <hbond:GLY:129>  (85) 
0

>  <halogenbond:CYS:147>  (85) 
0

>  <hydroph_interaction:THR:39>  (85) 
0

>  <hbond:ASN:69>  (85) 
0

>  <hydroph_interaction:THR:132>  (85) 
0

>  <hbond:TYR:122>  (85) 
0

>  <hydroph_interaction:PHE:109>  (85) 
0

>  <hydroph_interaction:PHE:140>  (85) 
0

>  <hbond:PRO:141>  (85) 
0

$$$$
Z2965039070-x2149-0AS2
     RDKit          3D

 33 34  0  0  0  0  0  0  0  0999 V2000
   -4.5340   -8.2250   -1.2070 C   0  0  0  0  0  0  0  0  0  0  0  0
   -5.5490   -7.0960   -1.1430 C   0  0  0  0  0  0  0  0  0  0  0  0
   -5.5950   -5.9560   -2.0580 C   0  0  0  0  0  0  0  0  0  0  0  0
   -6.6490   -5.1520   -1.6880 C   0  0  0  0  0  0  0  0  0  0  0  0
   -7.0260   -4.1090   -2.1970 O   0  0  0  0  0  0  0  0  0  0  0  0
   -6.9060   -4.0670   -3.6230 C   0  0  0  0  0  0  0  0  0  0  0  0
   -8.0880   -4.1740   -4.4210 C   0  0  0  0  0  0  0  0  0  0  0  0
   -9.1590   -4.5040   -3.9020 O   0  0  0  0  0  0  0  0  0  0  0  0
   -7.9610   -3.8770   -5.7980 N   0  0  0  0  0  0  0  0  0  0  0  0
   -8.3750   -4.7570   -6.9010 C   0  0  0  0  0  0  0  0  0  0  0  0
   -9.5440   -4.1150   -7.6400 C   0  0  0  0  0  0  0  0  0  0  0  0
   -8.6720   -6.1120   -6.2890 C   0  0  0  0  0  0  0  0  0  0  0  0
   -7.3790   -6.8910   -6.5220 C   0  0  0  0  0  0  0  0  0  0  0  0
   -6.8030   -6.3210   -7.7280 N   0  0  0  0  0  0  0  0  0  0  0  0
   -7.2450   -5.0670   -7.9430 C   0  0  0  0  0  0  0  0  0  0  0  0
   -6.7680   -4.3680   -8.8480 O   0  0  0  0  0  0  0  0  0  0  0  0
   -7.2680   -5.7390   -0.5790 N   0  0  0  0  0  0  0  0  0  0  0  0
   -6.5690   -6.9410   -0.2570 O   0  0  0  0  0  0  0  0  0  0  0  0
   -3.7140   -8.0730   -0.4960 H   0  0  0  0  0  0  0  0  0  0  0  0
   -4.9970   -9.1970   -1.0040 H   0  0  0  0  0  0  0  0  0  0  0  0
   -4.0800   -8.2600   -2.1990 H   0  0  0  0  0  0  0  0  0  0  0  0
   -4.9210   -5.7650   -2.8900 H   0  0  0  0  0  0  0  0  0  0  0  0
   -6.3170   -3.1810   -3.7830 H   0  0  0  0  0  0  0  0  0  0  0  0
   -6.2990   -4.9300   -3.9220 H   0  0  0  0  0  0  0  0  0  0  0  0
   -8.0580   -2.8800   -5.9690 H   0  0  0  0  0  0  0  0  0  0  0  0
  -10.3170   -4.8500   -7.8830 H   0  0  0  0  0  0  0  0  0  0  0  0
  -10.0070   -3.3550   -7.0010 H   0  0  0  0  0  0  0  0  0  0  0  0
   -9.2290   -3.5940   -8.5510 H   0  0  0  0  0  0  0  0  0  0  0  0
   -9.4970   -6.6190   -6.7600 H   0  0  0  0  0  0  0  0  0  0  0  0
   -8.8480   -6.0350   -5.2140 H   0  0  0  0  0  0  0  0  0  0  0  0
   -7.4600   -7.9710   -6.6650 H   0  0  0  0  0  0  0  0  0  0  0  0
   -6.5920   -6.8010   -5.7670 H   0  0  0  0  0  0  0  0  0  0  0  0
   -6.6800   -6.9390   -8.5210 H   0  0  0  0  0  0  0  0  0  0  0  0
  1  2  1  0
  2  3  2  0
  3  4  1  0
  4  5  1  0
  5  6  1  0
  6  7  1  0
  7  8  2  0
  7  9  1  0
  9 10  1  0
 10 11  1  0
 10 12  1  0
 12 13  1  0
 13 14  1  0
 14 15  1  0
 15 16  2  0
  4 17  2  0
 17 18  1  0
 18  2  1  0
 15 10  1  0
  1 19  1  0
  1 20  1  0
  1 21  1  0
  3 22  1  0
  6 23  1  0
  6 24  1  0
  9 25  1  0
 11 26  1  0
 11 27  1  0
 11 28  1  0
 12 29  1  0
 12 30  1  0
 13 31  1  0
 13 32  1  0
 14 33  1  0
A    1
 C1 
A    2
 C2 
A    3
 C3 
A    4
 C4 
A    5
 O1 
A    6
 C5 
A    7
 C6 
A    8
 O2 
A    9
 N1 
A   10
 C7 
A   11
 C8 
A   12
 C9 
A   13
 C10
A   14
 N2 
A   15
 C11
A   16
 O3 
A   17
 N3 
A   18
 O4 
A   19
 H1 
A   20
 H2 
A   21
 H3 
A   22
 H4 
A   23
 H5 
A   24
 H6 
A   25
 H7 
A   26
 H8 
A   27
 H9 
A   28
 H10
A   29
 H11
A   30
 H12
A   31
 H13
A   32
 H14
A   33
 H15
M  END
>  <ref_pdb>  (86) 
x0147_0A

>  <ref_mols>  (86) 
x2149_0AS2,x1052_1AS2

>  <original SMILES>  (86) 
[H]c1c(OC([H])([H])C(=O)N([H])C2(C([H])([H])[H])C(=O)N([H])C([H])([H])C2([H])[H])noc1C([H])([H])[H]

>  <index>  (86) 
10128

>  <∆∆G>  (86) 
-5.953343

>  <comRMSD>  (86) 
0.706686

>  <N_constrained_atoms>  (86) 
15.0

>  <N_unconstrained_atoms>  (86) 
3.0

>  <LE>  (86) 
0.330741

>  <percent_hybrid>  (86) 
47.0

>  <max_hit_Tanimoto>  (86) 
0.171527

>  <largest_ring>  (86) 
5

>  <N_interactions_kept>  (86) 
1.0

>  <N_interactions_lost>  (86) 
1.5

>  <interaction_uniqueness_metric>  (86) 
0.077236

>  <N_HA>  (86) 
18

>  <N_rotatable_bonds>  (86) 
6

>  <N_interactions>  (86) 
6

>  <N_PAINS>  (86) 
0

>  <UFF_Gibbs>  (86) 
132.765547

>  <strain_per_HA>  (86) 
7.375823

>  <ad_hoc_penalty>  (86) 
-27.857146

>  <cluster>  (86) 
4909

>  <ranked>  (86) 
98.0

>  <merger_rank>  (86) 
1

>  <hydroph_interaction:LEU:127>  (86) 
1

>  <hbond:GLY:128>  (86) 
1

>  <hydroph_interaction:ALA:144>  (86) 
1

>  <hbond:GLY:164>  (86) 
2

>  <hbond:HIS:40>  (86) 
0

>  <pistack:HIS:40>  (86) 
0

>  <hydroph_interaction:LEU:125>  (86) 
0

>  <hydroph_interaction:PHE:170>  (86) 
0

>  <hydroph_interaction:HIS:40>  (86) 
1

>  <pication:HIS:40>  (86) 
0

>  <hbond:THR:142>  (86) 
0

>  <hbond:HIS:161>  (86) 
0

>  <hbond:GLY:166>  (86) 
0

>  <hbond:VAL:162>  (86) 
0

>  <hydroph_interaction:ASN:165>  (86) 
0

>  <hbond:ASN:126>  (86) 
0

>  <hbond:ARG:143>  (86) 
0

>  <hbond:GLU:71>  (86) 
0

>  <saltbridge:HIS:161>  (86) 
0

>  <hbond:ALA:144>  (86) 
0

>  <hbond:GLY:145>  (86) 
0

>  <hbond:GLN:146>  (86) 
0

>  <hbond:CYS:147>  (86) 
0

>  <halogenbond:ASN:126>  (86) 
0

>  <saltbridge:HIS:40>  (86) 
0

>  <hbond:LEU:127>  (86) 
0

>  <hbond:THR:130>  (86) 
0

>  <hydroph_interaction:GLU:71>  (86) 
0

>  <hydroph_interaction:THR:130>  (86) 
0

>  <saltbridge:ARG:143>  (86) 
0

>  <saltbridge:GLU:71>  (86) 
0

>  <hbond:GLY:129>  (86) 
0

>  <halogenbond:CYS:147>  (86) 
0

>  <hydroph_interaction:THR:39>  (86) 
0

>  <hbond:ASN:69>  (86) 
0

>  <hydroph_interaction:THR:132>  (86) 
0

>  <hbond:TYR:122>  (86) 
0

>  <hydroph_interaction:PHE:109>  (86) 
0

>  <hydroph_interaction:PHE:140>  (86) 
0

>  <hbond:PRO:141>  (86) 
0

$$$$
Z286958356-x2149-0AS1
     RDKit          3D

 23 24  0  0  0  0  0  0  0  0999 V2000
  -14.0220   -1.3360   -8.0540 C   0  0  0  0  0  0  0  0  0  0  0  0
  -12.9010   -2.2950   -7.7510 C   0  0  0  0  0  0  0  0  0  0  0  0
  -13.1150   -3.7720   -7.9210 C   0  0  0  0  0  0  0  0  0  0  0  0
  -11.6520   -4.7250   -7.5070 S   0  0  0  0  0  0  0  0  0  0  0  0
  -10.7830   -3.1540   -7.1130 C   0  0  0  0  0  0  0  0  0  0  0  0
   -9.4110   -3.2320   -6.6620 N   0  0  0  0  0  0  0  0  0  0  0  0
   -8.5960   -4.2480   -7.0880 C   0  0  0  0  0  0  0  0  0  0  0  0
   -7.9550   -4.0750   -8.4340 C   0  0  0  0  0  0  0  0  0  0  0  0
   -7.0730   -5.1570   -8.9190 C   0  0  0  0  0  0  0  0  0  0  0  0
   -6.9090   -6.2580   -8.0810 C   0  0  0  0  0  0  0  0  0  0  0  0
   -7.4960   -6.4310   -6.8360 C   0  0  0  0  0  0  0  0  0  0  0  0
   -8.3430   -5.4220   -6.3350 C   0  0  0  0  0  0  0  0  0  0  0  0
   -9.0770   -5.6710   -4.7380 Cl  0  0  0  0  0  0  0  0  0  0  0  0
  -11.6260   -1.9560   -7.3070 N   0  0  0  0  0  0  0  0  0  0  0  0
  -14.9410   -1.8610   -8.3290 H   0  0  0  0  0  0  0  0  0  0  0  0
  -14.2270   -0.7330   -7.1630 H   0  0  0  0  0  0  0  0  0  0  0  0
  -13.7310   -0.6810   -8.8810 H   0  0  0  0  0  0  0  0  0  0  0  0
  -14.0420   -4.2490   -8.2580 H   0  0  0  0  0  0  0  0  0  0  0  0
   -9.2540   -2.9990   -5.6840 H   0  0  0  0  0  0  0  0  0  0  0  0
   -8.1480   -3.1700   -9.0200 H   0  0  0  0  0  0  0  0  0  0  0  0
   -6.5790   -5.0930   -9.8850 H   0  0  0  0  0  0  0  0  0  0  0  0
   -6.2570   -7.0550   -8.4460 H   0  0  0  0  0  0  0  0  0  0  0  0
   -7.2980   -7.3420   -6.2560 H   0  0  0  0  0  0  0  0  0  0  0  0
  1  2  1  0
  2  3  2  0
  3  4  1  0
  4  5  1  0
  5  6  1  0
  6  7  1  0
  7  8  2  0
  8  9  1  0
  9 10  2  0
 10 11  1  0
 11 12  2  0
 12 13  1  0
  5 14  2  0
 14  2  1  0
 12  7  1  0
  1 15  1  0
  1 16  1  0
  1 17  1  0
  3 18  1  0
  6 19  1  0
  8 20  1  0
  9 21  1  0
 10 22  1  0
 11 23  1  0
A    1
 C1 
A    2
 C2 
A    3
 C3 
A    4
 S1 
A    5
 C4 
A    6
 N1 
A    7
 C5 
A    8
 C6 
A    9
 C7 
A   10
 C8 
A   11
 C9 
A   12
 C10
A   13
CL1 
A   14
 N2 
A   15
 H1 
A   16
 H2 
A   17
 H3 
A   18
 H4 
A   19
 H5 
A   20
 H6 
A   21
 H7 
A   22
 H8 
A   23
 H9 
M  END
>  <ref_pdb>  (87) 
x0147_0A

>  <ref_mols>  (87) 
x2149_0AS1,x1498_0A

>  <original SMILES>  (87) 
[H]c1sc(N([H])c2c([H])c([H])c([H])c([H])c2Cl)nc1C([H])([H])[H]

>  <index>  (87) 
9174

>  <∆∆G>  (87) 
-6.336961

>  <comRMSD>  (87) 
0.619729

>  <N_constrained_atoms>  (87) 
10.0

>  <N_unconstrained_atoms>  (87) 
4.0

>  <LE>  (87) 
0.45264

>  <percent_hybrid>  (87) 
34.0

>  <max_hit_Tanimoto>  (87) 
0.160714

>  <largest_ring>  (87) 
6

>  <N_interactions_kept>  (87) 
1.5

>  <N_interactions_lost>  (87) 
0.0

>  <interaction_uniqueness_metric>  (87) 
0.010368

>  <N_HA>  (87) 
14

>  <N_rotatable_bonds>  (87) 
3

>  <N_interactions>  (87) 
1

>  <N_PAINS>  (87) 
0

>  <UFF_Gibbs>  (87) 
59.12299

>  <strain_per_HA>  (87) 
4.223041

>  <ad_hoc_penalty>  (87) 
-27.829847

>  <cluster>  (87) 
5171

>  <ranked>  (87) 
99.0

>  <merger_rank>  (87) 
4

>  <hydroph_interaction:LEU:127>  (87) 
0

>  <hbond:GLY:128>  (87) 
0

>  <hydroph_interaction:ALA:144>  (87) 
0

>  <hbond:GLY:164>  (87) 
1

>  <hbond:HIS:40>  (87) 
0

>  <pistack:HIS:40>  (87) 
0

>  <hydroph_interaction:LEU:125>  (87) 
0

>  <hydroph_interaction:PHE:170>  (87) 
0

>  <hydroph_interaction:HIS:40>  (87) 
0

>  <pication:HIS:40>  (87) 
0

>  <hbond:THR:142>  (87) 
0

>  <hbond:HIS:161>  (87) 
0

>  <hbond:GLY:166>  (87) 
0

>  <hbond:VAL:162>  (87) 
0

>  <hydroph_interaction:ASN:165>  (87) 
0

>  <hbond:ASN:126>  (87) 
0

>  <hbond:ARG:143>  (87) 
0

>  <hbond:GLU:71>  (87) 
0

>  <saltbridge:HIS:161>  (87) 
0

>  <hbond:ALA:144>  (87) 
0

>  <hbond:GLY:145>  (87) 
0

>  <hbond:GLN:146>  (87) 
0

>  <hbond:CYS:147>  (87) 
0

>  <halogenbond:ASN:126>  (87) 
0

>  <saltbridge:HIS:40>  (87) 
0

>  <hbond:LEU:127>  (87) 
0

>  <hbond:THR:130>  (87) 
0

>  <hydroph_interaction:GLU:71>  (87) 
0

>  <hydroph_interaction:THR:130>  (87) 
0

>  <saltbridge:ARG:143>  (87) 
0

>  <saltbridge:GLU:71>  (87) 
0

>  <hbond:GLY:129>  (87) 
0

>  <halogenbond:CYS:147>  (87) 
0

>  <hydroph_interaction:THR:39>  (87) 
0

>  <hbond:ASN:69>  (87) 
0

>  <hydroph_interaction:THR:132>  (87) 
0

>  <hbond:TYR:122>  (87) 
0

>  <hydroph_interaction:PHE:109>  (87) 
0

>  <hydroph_interaction:PHE:140>  (87) 
0

>  <hbond:PRO:141>  (87) 
0

$$$$
Z3558264602-x0771-0A
     RDKit          3D

 41 44  0  0  0  0  0  0  0  0999 V2000
  -10.8350   -2.0500  -16.2730 C   0  0  0  0  0  0  0  0  0  0  0  0
  -10.2120   -3.1350  -17.1110 C   0  0  0  0  0  0  0  0  0  0  0  0
   -9.6110   -4.1450  -16.2860 C   0  0  0  0  0  0  0  0  0  0  0  0
  -11.3160   -3.6980  -17.9990 C   0  0  0  0  0  0  0  0  0  0  0  0
  -12.1750   -2.8140  -18.6860 C   0  0  0  0  0  0  0  0  0  0  0  0
  -13.2520   -3.2220  -19.5450 C   0  0  0  0  0  0  0  0  0  0  0  0
  -13.3770   -4.5710  -19.6400 C   0  0  0  0  0  0  0  0  0  0  0  0
  -14.4330   -5.2130  -20.4560 C   0  0  0  0  0  0  0  0  0  0  0  0
  -14.4310   -6.5880  -19.7720 C   0  0  0  0  0  0  0  0  0  0  0  0
  -13.1160   -6.9090  -19.4290 C   0  0  0  0  0  0  0  0  0  0  0  0
  -12.5860   -7.4160  -20.6680 N   0  0  0  0  0  0  0  0  0  0  0  0
  -11.4880   -8.3180  -20.9640 C   0  0  0  0  0  0  0  0  0  0  0  0
  -11.4230   -9.7400  -20.6400 N   0  0  0  0  0  0  0  0  0  0  0  0
  -10.3890  -10.4690  -21.0300 C   0  0  0  0  0  0  0  0  0  0  0  0
   -9.3160   -9.9420  -21.7600 C   0  0  0  0  0  0  0  0  0  0  0  0
   -9.3720   -8.5840  -22.0740 N   0  0  0  0  0  0  0  0  0  0  0  0
   -8.4660   -7.8240  -22.7830 N   0  0  0  0  0  0  0  0  0  0  0  0
   -9.1360   -6.5390  -22.7180 C   0  0  0  0  0  0  0  0  0  0  0  0
  -10.3080   -6.5070  -22.0620 N   0  0  0  0  0  0  0  0  0  0  0  0
  -10.4150   -7.7700  -21.6910 C   0  0  0  0  0  0  0  0  0  0  0  0
  -12.5830   -5.5220  -19.0110 C   0  0  0  0  0  0  0  0  0  0  0  0
  -11.5250   -5.0970  -18.1700 C   0  0  0  0  0  0  0  0  0  0  0  0
  -11.0670   -2.4310  -15.2740 H   0  0  0  0  0  0  0  0  0  0  0  0
  -11.7750   -1.7160  -16.7200 H   0  0  0  0  0  0  0  0  0  0  0  0
  -10.1520   -1.2030  -16.1710 H   0  0  0  0  0  0  0  0  0  0  0  0
   -9.4230   -2.7050  -17.7230 H   0  0  0  0  0  0  0  0  0  0  0  0
  -10.1820   -5.0770  -16.3160 H   0  0  0  0  0  0  0  0  0  0  0  0
   -8.6070   -4.3780  -16.6440 H   0  0  0  0  0  0  0  0  0  0  0  0
   -9.5830   -3.8210  -15.2430 H   0  0  0  0  0  0  0  0  0  0  0  0
  -12.0140   -1.7370  -18.5560 H   0  0  0  0  0  0  0  0  0  0  0  0
  -13.9530   -2.5960  -20.1030 H   0  0  0  0  0  0  0  0  0  0  0  0
  -14.1420   -5.1760  -21.5140 H   0  0  0  0  0  0  0  0  0  0  0  0
  -15.3450   -4.6110  -20.3840 H   0  0  0  0  0  0  0  0  0  0  0  0
  -14.8810   -7.3490  -20.4090 H   0  0  0  0  0  0  0  0  0  0  0  0
  -15.0980   -6.6740  -18.9080 H   0  0  0  0  0  0  0  0  0  0  0  0
  -13.0760   -7.6200  -18.5950 H   0  0  0  0  0  0  0  0  0  0  0  0
  -13.0730   -7.0830  -21.4960 H   0  0  0  0  0  0  0  0  0  0  0  0
  -10.4400  -11.5060  -20.7450 H   0  0  0  0  0  0  0  0  0  0  0  0
   -8.4440  -10.4820  -22.1080 H   0  0  0  0  0  0  0  0  0  0  0  0
   -8.6100   -5.7180  -23.2180 H   0  0  0  0  0  0  0  0  0  0  0  0
  -10.8960   -5.8270  -17.6700 H   0  0  0  0  0  0  0  0  0  0  0  0
  1  2  1  0
  2  3  1  0
  2  4  1  0
  4  5  2  0
  5  6  1  0
  6  7  2  0
  7  8  1  0
  8  9  1  0
  9 10  1  0
 10 11  1  0
 11 12  1  0
 12 13  2  0
 13 14  1  0
 14 15  2  0
 15 16  1  0
 16 17  1  0
 17 18  2  0
 18 19  1  0
 19 20  2  0
 10 21  1  0
 21 22  2  0
 22  4  1  0
 21  7  1  0
 20 12  1  0
 20 16  1  0
  1 23  1  0
  1 24  1  0
  1 25  1  0
  2 26  1  0
  3 27  1  0
  3 28  1  0
  3 29  1  0
  5 30  1  0
  6 31  1  0
  8 32  1  0
  8 33  1  0
  9 34  1  0
  9 35  1  0
 10 36  1  0
 11 37  1  0
 14 38  1  0
 15 39  1  0
 18 40  1  0
 22 41  1  0
A    1
 C1 
A    2
 C2 
A    3
 C3 
A    4
 C4 
A    5
 C5 
A    6
 C6 
A    7
 C7 
A    8
 C8 
A    9
 C9 
A   10
 C10
A   11
 N1 
A   12
 C11
A   13
 N2 
A   14
 C12
A   15
 C13
A   16
 N3 
A   17
 N4 
A   18
 C14
A   19
 N5 
A   20
 C15
A   21
 C16
A   22
 C17
A   23
 H1 
A   24
 H2 
A   25
 H3 
A   26
 H4 
A   27
 H5 
A   28
 H6 
A   29
 H7 
A   30
 H8 
A   31
 H9 
A   32
 H10
A   33
 H11
A   34
 H12
A   35
 H13
A   36
 H14
A   37
 H15
A   38
 H16
A   39
 H17
A   40
 H18
A   41
 H19
M  END
>  <ref_pdb>  (88) 
x0147_0A

>  <ref_mols>  (88) 
x0771_0A,x0176_0A

>  <original SMILES>  (88) 
[H]c1nc2c(N([H])C3([H])c4c([H])c(C([H])(C([H])([H])[H])C([H])([H])[H])c([H])c([H])c4C([H])([H])C3([H])[H])nc([H])c([H])n2n1

>  <index>  (88) 
17304

>  <∆∆G>  (88) 
-4.743443

>  <comRMSD>  (88) 
0.472829

>  <N_constrained_atoms>  (88) 
21.0

>  <N_unconstrained_atoms>  (88) 
1.0

>  <LE>  (88) 
0.215611

>  <percent_hybrid>  (88) 
43.0

>  <max_hit_Tanimoto>  (88) 
0.242537

>  <largest_ring>  (88) 
6

>  <N_interactions_kept>  (88) 
1.0

>  <N_interactions_lost>  (88) 
1.0

>  <interaction_uniqueness_metric>  (88) 
0.61388

>  <N_HA>  (88) 
22

>  <N_rotatable_bonds>  (88) 
4

>  <N_interactions>  (88) 
2

>  <N_PAINS>  (88) 
0

>  <UFF_Gibbs>  (88) 
147.197171

>  <strain_per_HA>  (88) 
6.69075

>  <ad_hoc_penalty>  (88) 
-27.796608

>  <cluster>  (88) 
2936

>  <ranked>  (88) 
101.0

>  <merger_rank>  (88) 
1

>  <hydroph_interaction:LEU:127>  (88) 
0

>  <hbond:GLY:128>  (88) 
0

>  <hydroph_interaction:ALA:144>  (88) 
0

>  <hbond:GLY:164>  (88) 
0

>  <hbond:HIS:40>  (88) 
0

>  <pistack:HIS:40>  (88) 
0

>  <hydroph_interaction:LEU:125>  (88) 
0

>  <hydroph_interaction:PHE:170>  (88) 
0

>  <hydroph_interaction:HIS:40>  (88) 
0

>  <pication:HIS:40>  (88) 
0

>  <hbond:THR:142>  (88) 
0

>  <hbond:HIS:161>  (88) 
0

>  <hbond:GLY:166>  (88) 
0

>  <hbond:VAL:162>  (88) 
0

>  <hydroph_interaction:ASN:165>  (88) 
0

>  <hbond:ASN:126>  (88) 
0

>  <hbond:ARG:143>  (88) 
0

>  <hbond:GLU:71>  (88) 
0

>  <saltbridge:HIS:161>  (88) 
0

>  <hbond:ALA:144>  (88) 
0

>  <hbond:GLY:145>  (88) 
0

>  <hbond:GLN:146>  (88) 
0

>  <hbond:CYS:147>  (88) 
0

>  <halogenbond:ASN:126>  (88) 
0

>  <saltbridge:HIS:40>  (88) 
0

>  <hbond:LEU:127>  (88) 
0

>  <hbond:THR:130>  (88) 
0

>  <hydroph_interaction:GLU:71>  (88) 
0

>  <hydroph_interaction:THR:130>  (88) 
0

>  <saltbridge:ARG:143>  (88) 
0

>  <saltbridge:GLU:71>  (88) 
0

>  <hbond:GLY:129>  (88) 
0

>  <halogenbond:CYS:147>  (88) 
0

>  <hydroph_interaction:THR:39>  (88) 
0

>  <hbond:ASN:69>  (88) 
0

>  <hydroph_interaction:THR:132>  (88) 
0

>  <hbond:TYR:122>  (88) 
0

>  <hydroph_interaction:PHE:109>  (88) 
1

>  <hydroph_interaction:PHE:140>  (88) 
1

>  <hbond:PRO:141>  (88) 
0

$$$$
Z2728433437-x1329-0AS2
     RDKit          3D

 41 42  0  0  0  0  0  0  0  0999 V2000
   -3.9750   -7.3270    1.4350 C   0  0  0  0  0  0  0  0  0  0  0  0
   -5.3230   -7.7260    1.2000 O   0  0  0  0  0  0  0  0  0  0  0  0
   -5.5750   -8.5950    0.1690 C   0  0  0  0  0  0  0  0  0  0  0  0
   -5.1160   -9.7290    0.1870 O   0  0  0  0  0  0  0  0  0  0  0  0
   -6.4460   -8.1530   -1.0110 C   0  0  2  0  0  0  0  0  0  0  0  0
   -6.3330   -9.0980   -2.2000 C   0  0  0  0  0  0  0  0  0  0  0  0
   -6.6460   -8.4010   -3.5130 C   0  0  0  0  0  0  0  0  0  0  0  0
   -7.3390   -7.2910   -3.3730 N   0  0  0  0  0  0  0  0  0  0  0  0
   -8.1310   -6.9840   -4.5850 C   0  0  0  0  0  0  0  0  0  0  0  0
   -8.4620   -7.8140   -5.4380 O   0  0  0  0  0  0  0  0  0  0  0  0
   -8.5240   -5.5700   -4.7260 C   0  0  0  0  0  0  0  0  0  0  0  0
   -9.2490   -5.2760   -5.9010 C   0  0  0  0  0  0  0  0  0  0  0  0
   -8.5350   -4.8400   -7.0210 C   0  0  0  0  0  0  0  0  0  0  0  0
   -8.6230   -3.6570   -7.7020 C   0  0  0  0  0  0  0  0  0  0  0  0
   -7.6570   -3.6880   -8.7860 N   0  0  0  0  0  0  0  0  0  0  0  0
   -6.9590   -4.8830   -8.8070 N   0  0  0  0  0  0  0  0  0  0  0  0
   -7.4570   -5.6240   -7.7460 C   0  0  0  0  0  0  0  0  0  0  0  0
   -6.8090   -6.2670   -2.4590 C   0  0  0  0  0  0  0  0  0  0  0  0
   -5.8840   -6.8060   -1.5240 C   0  0  2  0  0  0  0  0  0  0  0  0
   -4.4550   -7.0140   -1.9830 C   0  0  0  0  0  0  0  0  0  0  0  0
   -3.2790   -8.1700    1.3630 H   0  0  0  0  0  0  0  0  0  0  0  0
   -3.9120   -6.8950    2.4420 H   0  0  0  0  0  0  0  0  0  0  0  0
   -3.6480   -6.5600    0.7250 H   0  0  0  0  0  0  0  0  0  0  0  0
   -7.4830   -7.8930   -0.8490 H   0  0  0  0  0  0  0  0  0  0  0  0
   -7.0430   -9.9310   -2.1850 H   0  0  0  0  0  0  0  0  0  0  0  0
   -5.3940   -9.6440   -2.2330 H   0  0  0  0  0  0  0  0  0  0  0  0
   -7.1040   -9.0240   -4.2750 H   0  0  0  0  0  0  0  0  0  0  0  0
   -5.6950   -8.0970   -3.9700 H   0  0  0  0  0  0  0  0  0  0  0  0
   -7.7410   -4.8610   -4.4790 H   0  0  0  0  0  0  0  0  0  0  0  0
   -9.2540   -5.4390   -3.9200 H   0  0  0  0  0  0  0  0  0  0  0  0
   -9.8170   -6.1680   -6.1860 H   0  0  0  0  0  0  0  0  0  0  0  0
   -9.9930   -4.5150   -5.6370 H   0  0  0  0  0  0  0  0  0  0  0  0
   -9.2600   -2.7770   -7.5500 H   0  0  0  0  0  0  0  0  0  0  0  0
   -7.4400   -2.9900   -9.4960 H   0  0  0  0  0  0  0  0  0  0  0  0
   -7.0610   -6.6180   -7.5420 H   0  0  0  0  0  0  0  0  0  0  0  0
   -6.4330   -5.4810   -3.1100 H   0  0  0  0  0  0  0  0  0  0  0  0
   -7.7020   -5.8210   -2.0280 H   0  0  0  0  0  0  0  0  0  0  0  0
   -5.8310   -6.2170   -0.6010 H   0  0  0  0  0  0  0  0  0  0  0  0
   -3.7830   -6.9930   -1.1210 H   0  0  0  0  0  0  0  0  0  0  0  0
   -4.0220   -6.3310   -2.7030 H   0  0  0  0  0  0  0  0  0  0  0  0
   -4.3640   -8.0090   -2.4290 H   0  0  0  0  0  0  0  0  0  0  0  0
  1  2  1  0
  2  3  1  0
  3  4  2  0
  3  5  1  0
  5  6  1  0
  6  7  1  0
  7  8  1  0
  8  9  1  0
  9 10  2  0
  9 11  1  0
 11 12  1  0
 12 13  1  0
 13 14  2  0
 14 15  1  0
 15 16  1  0
 16 17  2  0
  8 18  1  0
 18 19  1  0
 19 20  1  0
 19  5  1  0
 17 13  1  0
  1 21  1  0
  1 22  1  0
  1 23  1  0
  5 24  1  1
  6 25  1  0
  6 26  1  0
  7 27  1  0
  7 28  1  0
 11 29  1  0
 11 30  1  0
 12 31  1  0
 12 32  1  0
 14 33  1  0
 15 34  1  0
 17 35  1  0
 18 36  1  0
 18 37  1  0
 19 38  1  1
 20 39  1  0
 20 40  1  0
 20 41  1  0
A    1
 C1 
A    2
 O1 
A    3
 C2 
A    4
 O2 
A    5
 C3 
A    6
 C4 
A    7
 C5 
A    8
 N1 
A    9
 C6 
A   10
 O3 
A   11
 C7 
A   12
 C8 
A   13
 C9 
A   14
 C10
A   15
 N2 
A   16
 N3 
A   17
 C11
A   18
 C12
A   19
 C13
A   20
 C14
A   21
 H1 
A   22
 H2 
A   23
 H3 
A   24
 H4 
A   25
 H5 
A   26
 H6 
A   27
 H7 
A   28
 H8 
A   29
 H9 
A   30
 H10
A   31
 H11
A   32
 H12
A   33
 H13
A   34
 H14
A   35
 H15
A   36
 H16
A   37
 H17
A   38
 H18
A   39
 H19
A   40
 H20
A   41
 H21
M  END
>  <ref_pdb>  (89) 
x0147_0A

>  <ref_mols>  (89) 
x1329_0AS2,x0789_0AS1

>  <original SMILES>  (89) 
[H]c1nn([H])c([H])c1C([H])([H])C([H])([H])C(=O)N1C([H])([H])C([H])([H])[C@@]([H])(C(=O)OC([H])([H])[H])[C@@]([H])(C([H])([H])[H])C1([H])[H]

>  <index>  (89) 
12392

>  <∆∆G>  (89) 
-7.729897

>  <comRMSD>  (89) 
0.279164

>  <N_constrained_atoms>  (89) 
17.0

>  <N_unconstrained_atoms>  (89) 
3.0

>  <LE>  (89) 
0.386495

>  <percent_hybrid>  (89) 
36.0

>  <max_hit_Tanimoto>  (89) 
0.218638

>  <largest_ring>  (89) 
6

>  <N_interactions_kept>  (89) 
0.0

>  <N_interactions_lost>  (89) 
0.5

>  <interaction_uniqueness_metric>  (89) 
0.063354

>  <N_HA>  (89) 
20

>  <N_rotatable_bonds>  (89) 
6

>  <N_interactions>  (89) 
2

>  <N_PAINS>  (89) 
0

>  <UFF_Gibbs>  (89) 
142.61047

>  <strain_per_HA>  (89) 
7.130488

>  <ad_hoc_penalty>  (89) 
-27.754724

>  <cluster>  (89) 
4280

>  <ranked>  (89) 
103.0

>  <merger_rank>  (89) 
3

>  <hydroph_interaction:LEU:127>  (89) 
1

>  <hbond:GLY:128>  (89) 
0

>  <hydroph_interaction:ALA:144>  (89) 
0

>  <hbond:GLY:164>  (89) 
0

>  <hbond:HIS:40>  (89) 
0

>  <pistack:HIS:40>  (89) 
0

>  <hydroph_interaction:LEU:125>  (89) 
0

>  <hydroph_interaction:PHE:170>  (89) 
0

>  <hydroph_interaction:HIS:40>  (89) 
0

>  <pication:HIS:40>  (89) 
0

>  <hbond:THR:142>  (89) 
0

>  <hbond:HIS:161>  (89) 
0

>  <hbond:GLY:166>  (89) 
0

>  <hbond:VAL:162>  (89) 
0

>  <hydroph_interaction:ASN:165>  (89) 
0

>  <hbond:ASN:126>  (89) 
0

>  <hbond:ARG:143>  (89) 
0

>  <hbond:GLU:71>  (89) 
0

>  <saltbridge:HIS:161>  (89) 
0

>  <hbond:ALA:144>  (89) 
0

>  <hbond:GLY:145>  (89) 
0

>  <hbond:GLN:146>  (89) 
0

>  <hbond:CYS:147>  (89) 
0

>  <halogenbond:ASN:126>  (89) 
0

>  <saltbridge:HIS:40>  (89) 
1

>  <hbond:LEU:127>  (89) 
0

>  <hbond:THR:130>  (89) 
0

>  <hydroph_interaction:GLU:71>  (89) 
0

>  <hydroph_interaction:THR:130>  (89) 
0

>  <saltbridge:ARG:143>  (89) 
0

>  <saltbridge:GLU:71>  (89) 
0

>  <hbond:GLY:129>  (89) 
0

>  <halogenbond:CYS:147>  (89) 
0

>  <hydroph_interaction:THR:39>  (89) 
0

>  <hbond:ASN:69>  (89) 
0

>  <hydroph_interaction:THR:132>  (89) 
0

>  <hbond:TYR:122>  (89) 
0

>  <hydroph_interaction:PHE:109>  (89) 
0

>  <hydroph_interaction:PHE:140>  (89) 
0

>  <hbond:PRO:141>  (89) 
0

$$$$
PV-002900902338-x0771-1A
     RDKit          3D

 27 27  0  0  0  0  0  0  0  0999 V2000
   -6.9450  -10.2260   -6.9230 C   0  0  0  0  0  0  0  0  0  0  0  0
   -6.7070   -9.0800   -7.7450 O   0  0  0  0  0  0  0  0  0  0  0  0
   -6.8810   -7.8890   -7.1030 C   0  0  0  0  0  0  0  0  0  0  0  0
   -7.1690   -6.6790   -7.9550 C   0  0  0  0  0  0  0  0  0  0  0  0
   -7.4190   -5.3760   -7.2860 C   0  0  0  0  0  0  0  0  0  0  0  0
   -7.7110   -4.2500   -8.0640 C   0  0  0  0  0  0  0  0  0  0  0  0
   -8.5030   -3.3520   -7.7570 O   0  0  0  0  0  0  0  0  0  0  0  0
   -7.0280   -4.2580   -9.2360 O   0  0  0  0  0  0  0  0  0  0  0  0
   -7.3460   -5.3290   -5.8840 C   0  0  0  0  0  0  0  0  0  0  0  0
   -7.0290   -6.4970   -5.1440 C   0  0  0  0  0  0  0  0  0  0  0  0
   -6.9070   -6.4190   -3.7230 N   0  0  0  0  0  0  0  0  0  0  0  0
   -7.4650   -4.9810   -3.0780 S   0  0  0  0  0  6  0  0  0  0  0  0
   -6.9800   -5.1830   -1.3810 C   0  0  0  0  0  0  0  0  0  0  0  0
   -6.6640   -3.9140   -3.6620 O   0  0  0  0  0  0  0  0  0  0  0  0
   -8.9000   -5.0360   -3.1910 O   0  0  0  0  0  0  0  0  0  0  0  0
   -6.8150   -7.7500   -5.7330 C   0  0  0  0  0  0  0  0  0  0  0  0
   -6.4720   -9.0990   -4.7050 Cl  0  0  0  0  0  0  0  0  0  0  0  0
   -7.1760  -11.0990   -7.5460 H   0  0  0  0  0  0  0  0  0  0  0  0
   -6.0750  -10.4430   -6.2950 H   0  0  0  0  0  0  0  0  0  0  0  0
   -7.8040  -10.0150   -6.2830 H   0  0  0  0  0  0  0  0  0  0  0  0
   -7.2060   -6.7810   -9.0410 H   0  0  0  0  0  0  0  0  0  0  0  0
   -7.0130   -3.3210   -9.5070 H   0  0  0  0  0  0  0  0  0  0  0  0
   -7.5200   -4.3870   -5.3660 H   0  0  0  0  0  0  0  0  0  0  0  0
   -7.4010   -7.1740   -3.2330 H   0  0  0  0  0  0  0  0  0  0  0  0
   -7.6480   -4.6070   -0.7210 H   0  0  0  0  0  0  0  0  0  0  0  0
   -5.9780   -4.7640   -1.2320 H   0  0  0  0  0  0  0  0  0  0  0  0
   -7.0010   -6.2450   -1.1280 H   0  0  0  0  0  0  0  0  0  0  0  0
  1  2  1  0
  2  3  1  0
  3  4  2  0
  4  5  1  0
  5  6  1  0
  6  7  2  0
  6  8  1  0
  5  9  2  0
  9 10  1  0
 10 11  1  0
 11 12  1  0
 12 13  1  0
 12 14  2  0
 12 15  2  0
 10 16  2  0
 16 17  1  0
 16  3  1  0
  1 18  1  0
  1 19  1  0
  1 20  1  0
  4 21  1  0
  8 22  1  0
  9 23  1  0
 11 24  1  0
 13 25  1  0
 13 26  1  0
 13 27  1  0
A    1
 C1 
A    2
 O1 
A    3
 C2 
A    4
 C3 
A    5
 C4 
A    6
 C5 
A    7
 O2 
A    8
 O3 
A    9
 C6 
A   10
 C7 
A   11
 N1 
A   12
 S1 
A   13
 C8 
A   14
 O4 
A   15
 O5 
A   16
 C9 
A   17
CL1 
A   18
 H1 
A   19
 H2 
A   20
 H3 
A   21
 H4 
A   22
 H5 
A   23
 H6 
A   24
 H7 
A   25
 H8 
A   26
 H9 
A   27
 H10
M  END
>  <ref_pdb>  (90) 
x0147_0A

>  <ref_mols>  (90) 
x0771_1A,x1140_0AS3

>  <original SMILES>  (90) 
[H]OC(=O)c1c([H])c(OC([H])([H])[H])c(Cl)c(N([H])S(=O)(=O)C([H])([H])[H])c1[H]

>  <index>  (90) 
14593

>  <∆∆G>  (90) 
-4.548243

>  <comRMSD>  (90) 
0.726934

>  <N_constrained_atoms>  (90) 
19.0

>  <N_unconstrained_atoms>  (90) 
0.0

>  <LE>  (90) 
0.239381

>  <percent_hybrid>  (90) 
37.0

>  <max_hit_Tanimoto>  (90) 
0.185841

>  <largest_ring>  (90) 
6

>  <N_interactions_kept>  (90) 
3.0

>  <N_interactions_lost>  (90) 
1.0

>  <interaction_uniqueness_metric>  (90) 
0.336002

>  <N_HA>  (90) 
17

>  <N_rotatable_bonds>  (90) 
6

>  <N_interactions>  (90) 
5

>  <N_PAINS>  (90) 
0

>  <UFF_Gibbs>  (90) 
144.799318

>  <strain_per_HA>  (90) 
8.517557

>  <ad_hoc_penalty>  (90) 
-27.62955

>  <cluster>  (90) 
3676

>  <ranked>  (90) 
104.0

>  <merger_rank>  (90) 
1

>  <hydroph_interaction:LEU:127>  (90) 
0

>  <hbond:GLY:128>  (90) 
0

>  <hydroph_interaction:ALA:144>  (90) 
0

>  <hbond:GLY:164>  (90) 
2

>  <hbond:HIS:40>  (90) 
0

>  <pistack:HIS:40>  (90) 
0

>  <hydroph_interaction:LEU:125>  (90) 
0

>  <hydroph_interaction:PHE:170>  (90) 
0

>  <hydroph_interaction:HIS:40>  (90) 
0

>  <pication:HIS:40>  (90) 
0

>  <hbond:THR:142>  (90) 
0

>  <hbond:HIS:161>  (90) 
0

>  <hbond:GLY:166>  (90) 
0

>  <hbond:VAL:162>  (90) 
0

>  <hydroph_interaction:ASN:165>  (90) 
0

>  <hbond:ASN:126>  (90) 
0

>  <hbond:ARG:143>  (90) 
0

>  <hbond:GLU:71>  (90) 
0

>  <saltbridge:HIS:161>  (90) 
1

>  <hbond:ALA:144>  (90) 
0

>  <hbond:GLY:145>  (90) 
1

>  <hbond:GLN:146>  (90) 
0

>  <hbond:CYS:147>  (90) 
1

>  <halogenbond:ASN:126>  (90) 
0

>  <saltbridge:HIS:40>  (90) 
0

>  <hbond:LEU:127>  (90) 
0

>  <hbond:THR:130>  (90) 
0

>  <hydroph_interaction:GLU:71>  (90) 
0

>  <hydroph_interaction:THR:130>  (90) 
0

>  <saltbridge:ARG:143>  (90) 
0

>  <saltbridge:GLU:71>  (90) 
0

>  <hbond:GLY:129>  (90) 
0

>  <halogenbond:CYS:147>  (90) 
0

>  <hydroph_interaction:THR:39>  (90) 
0

>  <hbond:ASN:69>  (90) 
0

>  <hydroph_interaction:THR:132>  (90) 
0

>  <hbond:TYR:122>  (90) 
0

>  <hydroph_interaction:PHE:109>  (90) 
0

>  <hydroph_interaction:PHE:140>  (90) 
0

>  <hbond:PRO:141>  (90) 
0

$$$$
PV-003118816391-x1332-1AS2
     RDKit          3D

 29 29  0  0  0  0  0  0  0  0999 V2000
  -13.1180   -1.3070   -6.3640 C   0  0  0  0  0  0  0  0  0  0  0  0
  -11.9370   -2.1550   -5.9480 C   0  0  0  0  0  0  0  0  0  0  0  0
  -11.6360   -2.1120   -4.5560 O   0  0  0  0  0  0  0  0  0  0  0  0
  -11.2510   -2.9050   -6.9580 N   0  0  0  0  0  0  0  0  0  0  0  0
  -10.1000   -3.6810   -6.6860 C   0  0  2  0  0  0  0  0  0  0  0  0
   -8.8920   -3.5370   -7.5950 C   0  0  0  0  0  0  0  0  0  0  0  0
   -8.2140   -4.8110   -7.5110 N   0  0  0  0  0  0  0  0  0  0  0  0
   -7.1610   -5.1100   -8.3620 C   0  0  0  0  0  0  0  0  0  0  0  0
   -6.6520   -6.4030   -8.3550 C   0  0  0  0  0  0  0  0  0  0  0  0
   -6.6530   -4.2830   -9.1090 O   0  0  0  0  0  0  0  0  0  0  0  0
   -9.0260   -5.7060   -6.6550 C   0  0  0  0  0  0  0  0  0  0  0  0
  -10.4350   -5.1600   -6.9170 C   0  0  1  0  0  0  0  0  0  0  0  0
  -11.4720   -5.5680   -6.0490 C   0  0  0  0  0  0  0  0  0  0  0  0
  -12.5650   -5.9080   -6.7650 F   0  0  0  0  0  0  0  0  0  0  0  0
  -11.1280   -6.6640   -5.3370 F   0  0  0  0  0  0  0  0  0  0  0  0
  -11.8640   -4.6340   -5.1590 F   0  0  0  0  0  0  0  0  0  0  0  0
  -13.2120   -1.2910   -7.4550 H   0  0  0  0  0  0  0  0  0  0  0  0
  -14.0500   -1.7200   -5.9690 H   0  0  0  0  0  0  0  0  0  0  0  0
  -13.0030   -0.2800   -6.0030 H   0  0  0  0  0  0  0  0  0  0  0  0
  -11.6420   -2.9470   -7.8890 H   0  0  0  0  0  0  0  0  0  0  0  0
   -9.9090   -3.4990   -5.6250 H   0  0  0  0  0  0  0  0  0  0  0  0
   -8.2450   -2.7880   -7.1550 H   0  0  0  0  0  0  0  0  0  0  0  0
   -9.0290   -3.2520   -8.6300 H   0  0  0  0  0  0  0  0  0  0  0  0
   -7.0340   -6.9020   -7.4650 H   0  0  0  0  0  0  0  0  0  0  0  0
   -5.5720   -6.4510   -8.2740 H   0  0  0  0  0  0  0  0  0  0  0  0
   -6.8830   -7.0240   -9.2100 H   0  0  0  0  0  0  0  0  0  0  0  0
   -8.6140   -5.6070   -5.6530 H   0  0  0  0  0  0  0  0  0  0  0  0
   -8.8120   -6.7200   -6.9730 H   0  0  0  0  0  0  0  0  0  0  0  0
  -10.7230   -5.2420   -7.9560 H   0  0  0  0  0  0  0  0  0  0  0  0
  1  2  1  0
  2  3  2  0
  2  4  1  0
  4  5  1  0
  5  6  1  0
  6  7  1  0
  7  8  1  0
  8  9  1  0
  8 10  2  0
  7 11  1  0
 11 12  1  0
 12 13  1  0
 13 14  1  0
 13 15  1  0
 13 16  1  0
 12  5  1  0
  1 17  1  0
  1 18  1  0
  1 19  1  0
  4 20  1  0
  5 21  1  1
  6 22  1  0
  6 23  1  0
  9 24  1  0
  9 25  1  0
  9 26  1  0
 11 27  1  0
 11 28  1  0
 12 29  1  6
A    1
 C1 
A    2
 C2 
A    3
 O1 
A    4
 N1 
A    5
 C3 
A    6
 C4 
A    7
 N2 
A    8
 C5 
A    9
 C6 
A   10
 O2 
A   11
 C7 
A   12
 C8 
A   13
 C9 
A   14
 F1 
A   15
 F2 
A   16
 F3 
A   17
 H1 
A   18
 H2 
A   19
 H3 
A   20
 H4 
A   21
 H5 
A   22
 H6 
A   23
 H7 
A   24
 H8 
A   25
 H9 
A   26
 H10
A   27
 H11
A   28
 H12
A   29
 H13
M  END
>  <ref_pdb>  (91) 
x0147_0A

>  <ref_mols>  (91) 
x1332_1AS2,x1604_0A

>  <original SMILES>  (91) 
[H]N(C(=O)C([H])([H])[H])[C@]1([H])C([H])([H])N(C(=O)C([H])([H])[H])C([H])([H])[C@@]1([H])C(F)(F)F

>  <index>  (91) 
4918

>  <∆∆G>  (91) 
-6.691007

>  <comRMSD>  (91) 
0.640164

>  <N_constrained_atoms>  (91) 
17.0

>  <N_unconstrained_atoms>  (91) 
0.0

>  <LE>  (91) 
0.393589

>  <percent_hybrid>  (91) 
25.0

>  <max_hit_Tanimoto>  (91) 
0.288719

>  <largest_ring>  (91) 
5

>  <N_interactions_kept>  (91) 
3.0

>  <N_interactions_lost>  (91) 
0.5

>  <interaction_uniqueness_metric>  (91) 
0.023669

>  <N_HA>  (91) 
16

>  <N_rotatable_bonds>  (91) 
3

>  <N_interactions>  (91) 
1

>  <N_PAINS>  (91) 
0

>  <UFF_Gibbs>  (91) 
97.72141

>  <strain_per_HA>  (91) 
6.10755

>  <ad_hoc_penalty>  (91) 
-27.609587

>  <cluster>  (91) 
6252

>  <ranked>  (91) 
105.0

>  <merger_rank>  (91) 
1

>  <hydroph_interaction:LEU:127>  (91) 
0

>  <hbond:GLY:128>  (91) 
0

>  <hydroph_interaction:ALA:144>  (91) 
1

>  <hbond:GLY:164>  (91) 
0

>  <hbond:HIS:40>  (91) 
0

>  <pistack:HIS:40>  (91) 
0

>  <hydroph_interaction:LEU:125>  (91) 
0

>  <hydroph_interaction:PHE:170>  (91) 
0

>  <hydroph_interaction:HIS:40>  (91) 
0

>  <pication:HIS:40>  (91) 
0

>  <hbond:THR:142>  (91) 
0

>  <hbond:HIS:161>  (91) 
0

>  <hbond:GLY:166>  (91) 
0

>  <hbond:VAL:162>  (91) 
0

>  <hydroph_interaction:ASN:165>  (91) 
0

>  <hbond:ASN:126>  (91) 
0

>  <hbond:ARG:143>  (91) 
0

>  <hbond:GLU:71>  (91) 
0

>  <saltbridge:HIS:161>  (91) 
0

>  <hbond:ALA:144>  (91) 
0

>  <hbond:GLY:145>  (91) 
0

>  <hbond:GLN:146>  (91) 
0

>  <hbond:CYS:147>  (91) 
0

>  <halogenbond:ASN:126>  (91) 
0

>  <saltbridge:HIS:40>  (91) 
0

>  <hbond:LEU:127>  (91) 
0

>  <hbond:THR:130>  (91) 
0

>  <hydroph_interaction:GLU:71>  (91) 
0

>  <hydroph_interaction:THR:130>  (91) 
0

>  <saltbridge:ARG:143>  (91) 
0

>  <saltbridge:GLU:71>  (91) 
0

>  <hbond:GLY:129>  (91) 
0

>  <halogenbond:CYS:147>  (91) 
0

>  <hydroph_interaction:THR:39>  (91) 
0

>  <hbond:ASN:69>  (91) 
0

>  <hydroph_interaction:THR:132>  (91) 
0

>  <hbond:TYR:122>  (91) 
0

>  <hydroph_interaction:PHE:109>  (91) 
0

>  <hydroph_interaction:PHE:140>  (91) 
0

>  <hbond:PRO:141>  (91) 
0

$$$$
Z2951784982-x2099-0A
     RDKit          3D

 49 52  0  0  0  0  0  0  0  0999 V2000
   -4.5130   -8.3820   -1.1290 C   0  0  0  0  0  0  0  0  0  0  0  0
   -5.4750   -7.2200   -1.0570 C   0  0  0  0  0  0  0  0  0  0  0  0
   -5.4690   -6.0490   -1.9660 C   0  0  0  0  0  0  0  0  0  0  0  0
   -6.5910   -5.1960   -1.4970 C   0  0  0  0  0  0  0  0  0  0  0  0
   -6.8720   -3.8950   -2.2300 C   0  0  0  0  0  0  0  0  0  0  0  0
   -7.2620   -4.3490   -3.6260 C   0  0  0  0  0  0  0  0  0  0  0  0
   -8.5430   -5.1360   -3.4410 C   0  0  0  0  0  0  0  0  0  0  0  0
   -9.5870   -4.6510   -3.0140 O   0  0  0  0  0  0  0  0  0  0  0  0
   -8.4240   -6.4690   -3.7980 N   0  0  0  0  0  0  0  0  0  0  0  0
   -8.5580   -6.9410   -5.1650 C   0  0  0  0  0  0  0  0  0  0  0  0
   -7.5620   -7.8120   -5.4930 C   0  0  0  0  0  0  0  0  0  0  0  0
   -6.5280   -6.9180   -6.0100 C   0  0  0  0  0  0  0  0  0  0  0  0
   -6.5940   -6.5510   -7.3280 O   0  0  0  0  0  0  0  0  0  0  0  0
   -7.5750   -5.6300   -7.1550 C   0  0  0  0  0  0  0  0  0  0  0  0
   -7.6030   -4.5270   -8.0260 C   0  0  0  0  0  0  0  0  0  0  0  0
   -8.6920   -3.4430   -7.8630 C   0  0  0  0  0  0  0  0  0  0  0  0
   -9.6310   -3.6020   -6.8320 C   0  0  0  0  0  0  0  0  0  0  0  0
  -10.6710   -2.7280   -6.5470 C   0  0  0  0  0  0  0  0  0  0  0  0
  -11.6800   -2.4700   -7.4720 C   0  0  0  0  0  0  0  0  0  0  0  0
  -12.7260   -1.6040   -7.1380 C   0  0  0  0  0  0  0  0  0  0  0  0
  -12.8120   -0.9090   -5.7710 C   0  0  0  0  0  0  0  0  0  0  0  0
  -11.7540   -1.2380   -4.9400 C   0  0  0  0  0  0  0  0  0  0  0  0
  -10.7280   -2.1020   -5.2930 C   0  0  0  0  0  0  0  0  0  0  0  0
   -9.5660   -4.7080   -6.0000 C   0  0  0  0  0  0  0  0  0  0  0  0
   -8.5250   -5.7680   -6.1390 C   0  0  0  0  0  0  0  0  0  0  0  0
   -7.2360   -5.8020   -0.3960 N   0  0  0  0  0  0  0  0  0  0  0  0
   -6.5550   -7.0350   -0.1180 O   0  0  0  0  0  0  0  0  0  0  0  0
   -4.7670   -9.1480   -0.3910 H   0  0  0  0  0  0  0  0  0  0  0  0
   -3.4950   -8.0340   -0.9220 H   0  0  0  0  0  0  0  0  0  0  0  0
   -4.5530   -8.8420   -2.1180 H   0  0  0  0  0  0  0  0  0  0  0  0
   -4.7850   -5.8600   -2.8000 H   0  0  0  0  0  0  0  0  0  0  0  0
   -7.5280   -3.1990   -1.7210 H   0  0  0  0  0  0  0  0  0  0  0  0
   -5.9440   -3.3280   -2.3170 H   0  0  0  0  0  0  0  0  0  0  0  0
   -7.3470   -3.4620   -4.2330 H   0  0  0  0  0  0  0  0  0  0  0  0
   -6.4820   -4.8810   -4.1590 H   0  0  0  0  0  0  0  0  0  0  0  0
   -7.8890   -7.0500   -3.1480 H   0  0  0  0  0  0  0  0  0  0  0  0
   -9.5360   -7.4250   -5.2660 H   0  0  0  0  0  0  0  0  0  0  0  0
   -7.8610   -8.5300   -6.2510 H   0  0  0  0  0  0  0  0  0  0  0  0
   -7.2000   -8.3700   -4.6180 H   0  0  0  0  0  0  0  0  0  0  0  0
   -6.5710   -5.9620   -5.4980 H   0  0  0  0  0  0  0  0  0  0  0  0
   -5.5070   -7.2220   -5.8180 H   0  0  0  0  0  0  0  0  0  0  0  0
   -6.8540   -4.4300   -8.8220 H   0  0  0  0  0  0  0  0  0  0  0  0
   -8.8360   -2.5340   -8.4620 H   0  0  0  0  0  0  0  0  0  0  0  0
  -11.6550   -2.9440   -8.4490 H   0  0  0  0  0  0  0  0  0  0  0  0
  -13.4690   -1.4680   -7.9300 H   0  0  0  0  0  0  0  0  0  0  0  0
  -13.6180   -0.2320   -5.4960 H   0  0  0  0  0  0  0  0  0  0  0  0
  -11.7330   -0.7850   -3.9430 H   0  0  0  0  0  0  0  0  0  0  0  0
   -9.9850   -2.2380   -4.4980 H   0  0  0  0  0  0  0  0  0  0  0  0
  -10.3090   -4.8060   -5.2090 H   0  0  0  0  0  0  0  0  0  0  0  0
  1  2  1  0
  2  3  2  0
  3  4  1  0
  4  5  1  0
  5  6  1  0
  6  7  1  0
  7  8  2  0
  7  9  1  0
  9 10  1  0
 10 11  1  0
 11 12  1  0
 12 13  1  0
 13 14  1  0
 14 15  2  0
 15 16  1  0
 16 17  2  0
 17 18  1  0
 18 19  2  0
 19 20  1  0
 20 21  2  0
 21 22  1  0
 22 23  2  0
 17 24  1  0
 24 25  2  0
  4 26  2  0
 26 27  1  0
 27  2  1  0
 25 10  1  0
 25 14  1  0
 23 18  1  0
  1 28  1  0
  1 29  1  0
  1 30  1  0
  3 31  1  0
  5 32  1  0
  5 33  1  0
  6 34  1  0
  6 35  1  0
  9 36  1  0
 10 37  1  0
 11 38  1  0
 11 39  1  0
 12 40  1  0
 12 41  1  0
 15 42  1  0
 16 43  1  0
 19 44  1  0
 20 45  1  0
 21 46  1  0
 22 47  1  0
 23 48  1  0
 24 49  1  0
A    1
 C1 
A    2
 C2 
A    3
 C3 
A    4
 C4 
A    5
 C5 
A    6
 C6 
A    7
 C7 
A    8
 O1 
A    9
 N1 
A   10
 C8 
A   11
 C9 
A   12
 C10
A   13
 O2 
A   14
 C11
A   15
 C12
A   16
 C13
A   17
 C14
A   18
 C15
A   19
 C16
A   20
 C17
A   21
 C18
A   22
 C19
A   23
 C20
A   24
 C21
A   25
 C22
A   26
 N2 
A   27
 O3 
A   28
 H1 
A   29
 H2 
A   30
 H3 
A   31
 H4 
A   32
 H5 
A   33
 H6 
A   34
 H7 
A   35
 H8 
A   36
 H9 
A   37
 H10
A   38
 H11
A   39
 H12
A   40
 H13
A   41
 H14
A   42
 H15
A   43
 H16
A   44
 H17
A   45
 H18
A   46
 H19
A   47
 H20
A   48
 H21
A   49
 H22
M  END
>  <ref_pdb>  (92) 
x0147_0A

>  <ref_mols>  (92) 
x2099_0A,x1052_1AS2

>  <original SMILES>  (92) 
[H]c1c(C([H])([H])C([H])([H])C(=O)N([H])C2([H])c3c([H])c(-c4c([H])c([H])c([H])c([H])c4[H])c([H])c([H])c3OC([H])([H])C2([H])[H])noc1C([H])([H])[H]

>  <index>  (92) 
12351

>  <∆∆G>  (92) 
-6.751406

>  <comRMSD>  (92) 
0.571649

>  <N_constrained_atoms>  (92) 
25.0

>  <N_unconstrained_atoms>  (92) 
3.0

>  <LE>  (92) 
0.241122

>  <percent_hybrid>  (92) 
32.0

>  <max_hit_Tanimoto>  (92) 
0.232888

>  <largest_ring>  (92) 
6

>  <N_interactions_kept>  (92) 
2.0

>  <N_interactions_lost>  (92) 
0.5

>  <interaction_uniqueness_metric>  (92) 
0.029503

>  <N_HA>  (92) 
27

>  <N_rotatable_bonds>  (92) 
6

>  <N_interactions>  (92) 
3

>  <N_PAINS>  (92) 
0

>  <UFF_Gibbs>  (92) 
289.797624

>  <strain_per_HA>  (92) 
10.733206

>  <ad_hoc_penalty>  (92) 
-27.596779

>  <cluster>  (92) 
2041

>  <ranked>  (92) 
106.0

>  <merger_rank>  (92) 
3

>  <hydroph_interaction:LEU:127>  (92) 
2

>  <hbond:GLY:128>  (92) 
0

>  <hydroph_interaction:ALA:144>  (92) 
0

>  <hbond:GLY:164>  (92) 
0

>  <hbond:HIS:40>  (92) 
0

>  <pistack:HIS:40>  (92) 
0

>  <hydroph_interaction:LEU:125>  (92) 
0

>  <hydroph_interaction:PHE:170>  (92) 
0

>  <hydroph_interaction:HIS:40>  (92) 
1

>  <pication:HIS:40>  (92) 
0

>  <hbond:THR:142>  (92) 
0

>  <hbond:HIS:161>  (92) 
0

>  <hbond:GLY:166>  (92) 
0

>  <hbond:VAL:162>  (92) 
0

>  <hydroph_interaction:ASN:165>  (92) 
0

>  <hbond:ASN:126>  (92) 
0

>  <hbond:ARG:143>  (92) 
0

>  <hbond:GLU:71>  (92) 
0

>  <saltbridge:HIS:161>  (92) 
0

>  <hbond:ALA:144>  (92) 
0

>  <hbond:GLY:145>  (92) 
0

>  <hbond:GLN:146>  (92) 
0

>  <hbond:CYS:147>  (92) 
0

>  <halogenbond:ASN:126>  (92) 
0

>  <saltbridge:HIS:40>  (92) 
0

>  <hbond:LEU:127>  (92) 
0

>  <hbond:THR:130>  (92) 
0

>  <hydroph_interaction:GLU:71>  (92) 
0

>  <hydroph_interaction:THR:130>  (92) 
0

>  <saltbridge:ARG:143>  (92) 
0

>  <saltbridge:GLU:71>  (92) 
0

>  <hbond:GLY:129>  (92) 
0

>  <halogenbond:CYS:147>  (92) 
0

>  <hydroph_interaction:THR:39>  (92) 
0

>  <hbond:ASN:69>  (92) 
0

>  <hydroph_interaction:THR:132>  (92) 
0

>  <hbond:TYR:122>  (92) 
0

>  <hydroph_interaction:PHE:109>  (92) 
0

>  <hydroph_interaction:PHE:140>  (92) 
0

>  <hbond:PRO:141>  (92) 
0

$$$$
Z1555944448-x1071-0A
     RDKit          3D

 39 40  0  0  0  0  0  0  0  0999 V2000
   -7.9450    0.4040   -1.4760 C   0  0  0  0  0  0  0  0  0  0  0  0
   -6.5670   -0.7060   -1.2920 S   0  0  0  0  0  6  0  0  0  0  0  0
   -5.4300   -0.1390   -1.9820 O   0  0  0  0  0  0  0  0  0  0  0  0
   -6.5180   -1.0310    0.1020 O   0  0  0  0  0  0  0  0  0  0  0  0
   -7.0420   -2.0590   -2.1730 N   0  0  0  0  0  0  0  0  0  0  0  0
   -6.0630   -3.1300   -2.3240 C   0  0  0  0  0  0  0  0  0  0  0  0
   -6.5820   -4.4250   -2.9780 C   0  0  0  0  0  0  0  0  0  0  0  0
   -7.1550   -4.4200   -4.1460 N   0  0  0  0  0  0  0  0  0  0  0  0
   -7.4630   -5.7800   -4.4600 O   0  0  0  0  0  0  0  0  0  0  0  0
   -8.5420   -5.9860   -5.3810 C   0  0  0  0  0  0  0  0  0  0  0  0
   -8.3670   -5.0870   -6.5540 C   0  0  0  0  0  0  0  0  0  0  0  0
   -9.2410   -3.8700   -6.7130 C   0  0  0  0  0  0  0  0  0  0  0  0
   -8.9970   -3.0500   -7.8460 C   0  0  0  0  0  0  0  0  0  0  0  0
   -7.9880   -3.4500   -8.6820 C   0  0  0  0  0  0  0  0  0  0  0  0
   -7.1840   -4.5260   -8.6000 N   0  0  0  0  0  0  0  0  0  0  0  0
   -7.3950   -5.3250   -7.5320 C   0  0  0  0  0  0  0  0  0  0  0  0
   -6.3300   -5.6650   -2.2080 C   0  0  0  0  0  0  0  0  0  0  0  0
   -6.7500   -5.7990   -0.8830 C   0  0  0  0  0  0  0  0  0  0  0  0
   -6.4400   -7.0630   -0.1550 C   0  0  0  0  0  0  0  0  0  0  0  0
   -5.6930   -8.1420   -0.8700 C   0  0  0  0  0  0  0  0  0  0  0  0
   -5.3240   -7.9220   -2.2020 C   0  0  0  0  0  0  0  0  0  0  0  0
   -5.6370   -6.7150   -2.8560 C   0  0  0  0  0  0  0  0  0  0  0  0
   -7.5660    1.3830   -1.7800 H   0  0  0  0  0  0  0  0  0  0  0  0
   -8.6380    0.0200   -2.2280 H   0  0  0  0  0  0  0  0  0  0  0  0
   -8.4710    0.5060   -0.5220 H   0  0  0  0  0  0  0  0  0  0  0  0
   -7.4860   -1.7940   -3.0560 H   0  0  0  0  0  0  0  0  0  0  0  0
   -5.2070   -2.7820   -2.9140 H   0  0  0  0  0  0  0  0  0  0  0  0
   -5.7010   -3.3900   -1.3310 H   0  0  0  0  0  0  0  0  0  0  0  0
   -9.4750   -5.7440   -4.8570 H   0  0  0  0  0  0  0  0  0  0  0  0
   -8.6070   -7.0350   -5.6820 H   0  0  0  0  0  0  0  0  0  0  0  0
  -10.0180   -3.6190   -5.9980 H   0  0  0  0  0  0  0  0  0  0  0  0
   -9.5700   -2.1500   -8.0460 H   0  0  0  0  0  0  0  0  0  0  0  0
   -7.8830   -2.7620   -9.4850 H   0  0  0  0  0  0  0  0  0  0  0  0
   -6.7330   -6.1950   -7.4750 H   0  0  0  0  0  0  0  0  0  0  0  0
   -7.2940   -5.0510   -0.3020 H   0  0  0  0  0  0  0  0  0  0  0  0
   -6.7090   -7.2910    0.8810 H   0  0  0  0  0  0  0  0  0  0  0  0
   -5.4330   -9.0850   -0.3960 H   0  0  0  0  0  0  0  0  0  0  0  0
   -4.7840   -8.6990   -2.7430 H   0  0  0  0  0  0  0  0  0  0  0  0
   -5.3290   -6.5870   -3.8860 H   0  0  0  0  0  0  0  0  0  0  0  0
  1  2  1  0
  2  3  2  0
  2  4  2  0
  2  5  1  0
  5  6  1  0
  6  7  1  0
  7  8  2  3
  8  9  1  0
  9 10  1  0
 10 11  1  0
 11 12  2  0
 12 13  1  0
 13 14  2  0
 14 15  1  0
 15 16  2  0
  7 17  1  0
 17 18  2  0
 18 19  1  0
 19 20  2  0
 20 21  1  0
 21 22  2  0
 16 11  1  0
 22 17  1  0
  1 23  1  0
  1 24  1  0
  1 25  1  0
  5 26  1  0
  6 27  1  0
  6 28  1  0
 10 29  1  0
 10 30  1  0
 12 31  1  0
 13 32  1  0
 14 33  1  0
 16 34  1  0
 18 35  1  0
 19 36  1  0
 20 37  1  0
 21 38  1  0
 22 39  1  0
A    1
 C1 
A    2
 S1 
A    3
 O1 
A    4
 O2 
A    5
 N1 
A    6
 C2 
A    7
 C3 
A    8
 N2 
A    9
 O3 
A   10
 C4 
A   11
 C5 
A   12
 C6 
A   13
 C7 
A   14
 C8 
A   15
 N3 
A   16
 C9 
A   17
 C10
A   18
 C11
A   19
 C12
A   20
 C13
A   21
 C14
A   22
 C15
A   23
 H1 
A   24
 H2 
A   25
 H3 
A   26
 H4 
A   27
 H5 
A   28
 H6 
A   29
 H7 
A   30
 H8 
A   31
 H9 
A   32
 H10
A   33
 H11
A   34
 H12
A   35
 H13
A   36
 H14
A   37
 H15
A   38
 H16
A   39
 H17
M  END
>  <ref_pdb>  (93) 
x0147_0A

>  <ref_mols>  (93) 
x1071_0A,x0980_0BS1

>  <original SMILES>  (93) 
[H]c1nc([H])c(C([H])([H])ON=C(c2c([H])c([H])c([H])c([H])c2[H])C([H])([H])N([H])S(=O)(=O)C([H])([H])[H])c([H])c1[H]

>  <index>  (93) 
612

>  <∆∆G>  (93) 
-7.78156

>  <comRMSD>  (93) 
0.619416

>  <N_constrained_atoms>  (93) 
21.0

>  <N_unconstrained_atoms>  (93) 
2.0

>  <LE>  (93) 
0.338329

>  <percent_hybrid>  (93) 
34.0

>  <max_hit_Tanimoto>  (93) 
0.163097

>  <largest_ring>  (93) 
6

>  <N_interactions_kept>  (93) 
0.0

>  <N_interactions_lost>  (93) 
2.0

>  <interaction_uniqueness_metric>  (93) 
0.054502

>  <N_HA>  (93) 
22

>  <N_rotatable_bonds>  (93) 
8

>  <N_interactions>  (93) 
5

>  <N_PAINS>  (93) 
0

>  <UFF_Gibbs>  (93) 
78.780833

>  <strain_per_HA>  (93) 
3.580931

>  <ad_hoc_penalty>  (93) 
-27.580012

>  <cluster>  (93) 
2766

>  <ranked>  (93) 
107.0

>  <merger_rank>  (93) 
1

>  <hydroph_interaction:LEU:127>  (93) 
1

>  <hbond:GLY:128>  (93) 
1

>  <hydroph_interaction:ALA:144>  (93) 
0

>  <hbond:GLY:164>  (93) 
2

>  <hbond:HIS:40>  (93) 
0

>  <pistack:HIS:40>  (93) 
1

>  <hydroph_interaction:LEU:125>  (93) 
0

>  <hydroph_interaction:PHE:170>  (93) 
0

>  <hydroph_interaction:HIS:40>  (93) 
0

>  <pication:HIS:40>  (93) 
0

>  <hbond:THR:142>  (93) 
0

>  <hbond:HIS:161>  (93) 
0

>  <hbond:GLY:166>  (93) 
0

>  <hbond:VAL:162>  (93) 
0

>  <hydroph_interaction:ASN:165>  (93) 
0

>  <hbond:ASN:126>  (93) 
0

>  <hbond:ARG:143>  (93) 
0

>  <hbond:GLU:71>  (93) 
0

>  <saltbridge:HIS:161>  (93) 
0

>  <hbond:ALA:144>  (93) 
0

>  <hbond:GLY:145>  (93) 
0

>  <hbond:GLN:146>  (93) 
0

>  <hbond:CYS:147>  (93) 
0

>  <halogenbond:ASN:126>  (93) 
0

>  <saltbridge:HIS:40>  (93) 
0

>  <hbond:LEU:127>  (93) 
0

>  <hbond:THR:130>  (93) 
0

>  <hydroph_interaction:GLU:71>  (93) 
0

>  <hydroph_interaction:THR:130>  (93) 
0

>  <saltbridge:ARG:143>  (93) 
0

>  <saltbridge:GLU:71>  (93) 
0

>  <hbond:GLY:129>  (93) 
0

>  <halogenbond:CYS:147>  (93) 
0

>  <hydroph_interaction:THR:39>  (93) 
0

>  <hbond:ASN:69>  (93) 
0

>  <hydroph_interaction:THR:132>  (93) 
0

>  <hbond:TYR:122>  (93) 
0

>  <hydroph_interaction:PHE:109>  (93) 
0

>  <hydroph_interaction:PHE:140>  (93) 
0

>  <hbond:PRO:141>  (93) 
0

$$$$
PV-002836014349-x2021-0AS9
     RDKit          3D

 48 50  0  0  0  0  0  0  0  0999 V2000
   -7.2260   -0.7720   -0.0550 C   0  0  0  0  0  0  0  0  0  0  0  0
   -6.6320   -1.4380   -1.2770 C   0  0  0  0  0  0  0  0  0  0  0  0
   -7.1430   -2.8050   -1.5820 C   0  0  0  0  0  0  0  0  0  0  0  0
   -6.3320   -3.9940   -2.1360 C   0  0  0  0  0  0  0  0  0  0  0  0
   -7.0080   -5.3000   -2.1320 N   0  0  0  0  0  0  0  0  0  0  0  0
   -6.9630   -6.0350   -0.8540 C   0  0  0  0  0  0  0  0  0  0  0  0
   -7.6210   -5.8190   -3.2540 C   0  0  0  0  0  0  0  0  0  0  0  0
   -8.9100   -5.8030   -3.4290 N   0  0  0  0  0  0  0  0  0  0  0  0
   -9.0970   -6.4710   -4.7450 C   0  0  0  0  0  0  0  0  0  0  0  0
   -7.8690   -6.5270   -5.4250 C   0  0  0  0  0  0  0  0  0  0  0  0
   -7.7200   -5.6690   -6.5610 C   0  0  0  0  0  0  0  0  0  0  0  0
   -8.2810   -4.4130   -6.8150 C   0  0  0  0  0  0  0  0  0  0  0  0
   -7.8080   -3.9890   -8.1400 C   0  0  0  0  0  0  0  0  0  0  0  0
   -6.9950   -5.0060   -8.6030 C   0  0  0  0  0  0  0  0  0  0  0  0
   -6.9310   -6.0300   -7.6620 O   0  0  0  0  0  0  0  0  0  0  0  0
   -6.9000   -6.3980   -4.2770 N   0  0  0  0  0  0  0  0  0  0  0  0
   -5.9210   -7.5140   -4.1100 C   0  0  0  0  0  0  0  0  0  0  0  0
   -5.4080   -7.8230   -2.8150 C   0  0  0  0  0  0  0  0  0  0  0  0
   -4.4200   -7.0500   -2.1980 C   0  0  0  0  0  0  0  0  0  0  0  0
   -3.9240   -7.3930   -0.9220 C   0  0  0  0  0  0  0  0  0  0  0  0
   -4.4040   -8.4960   -0.2550 C   0  0  0  0  0  0  0  0  0  0  0  0
   -5.3840   -9.2810   -0.8470 C   0  0  0  0  0  0  0  0  0  0  0  0
   -5.8790   -8.9460   -2.1140 C   0  0  0  0  0  0  0  0  0  0  0  0
   -7.8420    0.0840   -0.3490 H   0  0  0  0  0  0  0  0  0  0  0  0
   -6.4460   -0.4150    0.6290 H   0  0  0  0  0  0  0  0  0  0  0  0
   -7.8590   -1.4660    0.5020 H   0  0  0  0  0  0  0  0  0  0  0  0
   -5.5690   -1.4390   -1.1320 H   0  0  0  0  0  0  0  0  0  0  0  0
   -6.8270   -0.8140   -2.1550 H   0  0  0  0  0  0  0  0  0  0  0  0
   -7.6500   -3.1590   -0.6790 H   0  0  0  0  0  0  0  0  0  0  0  0
   -7.9580   -2.6330   -2.2930 H   0  0  0  0  0  0  0  0  0  0  0  0
   -5.9610   -3.7420   -3.1310 H   0  0  0  0  0  0  0  0  0  0  0  0
   -5.4760   -4.1320   -1.4970 H   0  0  0  0  0  0  0  0  0  0  0  0
   -7.1720   -7.0980   -1.0060 H   0  0  0  0  0  0  0  0  0  0  0  0
   -7.7380   -5.6540   -0.1790 H   0  0  0  0  0  0  0  0  0  0  0  0
   -5.9830   -5.9490   -0.3710 H   0  0  0  0  0  0  0  0  0  0  0  0
   -9.5160   -7.4780   -4.6300 H   0  0  0  0  0  0  0  0  0  0  0  0
   -9.8100   -5.8940   -5.3470 H   0  0  0  0  0  0  0  0  0  0  0  0
   -7.8050   -7.5380   -5.8430 H   0  0  0  0  0  0  0  0  0  0  0  0
   -8.9440   -3.8540   -6.1590 H   0  0  0  0  0  0  0  0  0  0  0  0
   -8.0480   -3.0630   -8.6560 H   0  0  0  0  0  0  0  0  0  0  0  0
   -6.4720   -5.0370   -9.5550 H   0  0  0  0  0  0  0  0  0  0  0  0
   -6.3050   -8.3660   -4.6640 H   0  0  0  0  0  0  0  0  0  0  0  0
   -5.0640   -7.2280   -4.7190 H   0  0  0  0  0  0  0  0  0  0  0  0
   -4.0390   -6.1820   -2.7150 H   0  0  0  0  0  0  0  0  0  0  0  0
   -3.1560   -6.7840   -0.4570 H   0  0  0  0  0  0  0  0  0  0  0  0
   -4.0180   -8.7550    0.7260 H   0  0  0  0  0  0  0  0  0  0  0  0
   -5.7680  -10.1550   -0.3290 H   0  0  0  0  0  0  0  0  0  0  0  0
   -6.6470   -9.5770   -2.5590 H   0  0  0  0  0  0  0  0  0  0  0  0
  1  2  1  0
  2  3  1  0
  3  4  1  0
  4  5  1  0
  5  6  1  0
  5  7  1  0
  7  8  2  0
  8  9  1  0
  9 10  1  0
 10 11  1  0
 11 12  2  0
 12 13  1  0
 13 14  2  0
 14 15  1  0
 10 16  1  0
 16 17  1  0
 17 18  1  0
 18 19  2  0
 19 20  1  0
 20 21  2  0
 21 22  1  0
 22 23  2  0
 16  7  1  0
 15 11  1  0
 23 18  1  0
  1 24  1  0
  1 25  1  0
  1 26  1  0
  2 27  1  0
  2 28  1  0
  3 29  1  0
  3 30  1  0
  4 31  1  0
  4 32  1  0
  6 33  1  0
  6 34  1  0
  6 35  1  0
  9 36  1  0
  9 37  1  0
 10 38  1  0
 12 39  1  0
 13 40  1  0
 14 41  1  0
 17 42  1  0
 17 43  1  0
 19 44  1  0
 20 45  1  0
 21 46  1  0
 22 47  1  0
 23 48  1  0
A    1
 C1 
A    2
 C2 
A    3
 C3 
A    4
 C4 
A    5
 N1 
A    6
 C5 
A    7
 C6 
A    8
 N2 
A    9
 C7 
A   10
 C8 
A   11
 C9 
A   12
 C10
A   13
 C11
A   14
 C12
A   15
 O1 
A   16
 N3 
A   17
 C13
A   18
 C14
A   19
 C15
A   20
 C16
A   21
 C17
A   22
 C18
A   23
 C19
A   24
 H1 
A   25
 H2 
A   26
 H3 
A   27
 H4 
A   28
 H5 
A   29
 H6 
A   30
 H7 
A   31
 H8 
A   32
 H9 
A   33
 H10
A   34
 H11
A   35
 H12
A   36
 H13
A   37
 H14
A   38
 H15
A   39
 H16
A   40
 H17
A   41
 H18
A   42
 H19
A   43
 H20
A   44
 H21
A   45
 H22
A   46
 H23
A   47
 H24
A   48
 H25
M  END
>  <ref_pdb>  (94) 
x0147_0A

>  <ref_mols>  (94) 
x2021_0AS9,x1537_0A

>  <original SMILES>  (94) 
[H]c1oc(C2([H])N(C([H])([H])c3c([H])c([H])c([H])c([H])c3[H])C(N(C([H])([H])[H])C([H])([H])C([H])([H])C([H])([H])C([H])([H])[H])=NC2([H])[H])c([H])c1[H]

>  <index>  (94) 
596

>  <∆∆G>  (94) 
-8.793671

>  <comRMSD>  (94) 
0.829064

>  <N_constrained_atoms>  (94) 
22.0

>  <N_unconstrained_atoms>  (94) 
2.0

>  <LE>  (94) 
0.366403

>  <percent_hybrid>  (94) 
28.0

>  <max_hit_Tanimoto>  (94) 
0.156663

>  <largest_ring>  (94) 
6

>  <N_interactions_kept>  (94) 
3.0

>  <N_interactions_lost>  (94) 
2.0

>  <interaction_uniqueness_metric>  (94) 
0.046047

>  <N_HA>  (94) 
23

>  <N_rotatable_bonds>  (94) 
8

>  <N_interactions>  (94) 
4

>  <N_PAINS>  (94) 
0

>  <UFF_Gibbs>  (94) 
93.451498

>  <strain_per_HA>  (94) 
4.063091

>  <ad_hoc_penalty>  (94) 
-27.482858

>  <cluster>  (94) 
2767

>  <ranked>  (94) 
108.0

>  <merger_rank>  (94) 
1

>  <hydroph_interaction:LEU:127>  (94) 
2

>  <hbond:GLY:128>  (94) 
0

>  <hydroph_interaction:ALA:144>  (94) 
0

>  <hbond:GLY:164>  (94) 
0

>  <hbond:HIS:40>  (94) 
0

>  <pistack:HIS:40>  (94) 
1

>  <hydroph_interaction:LEU:125>  (94) 
0

>  <hydroph_interaction:PHE:170>  (94) 
0

>  <hydroph_interaction:HIS:40>  (94) 
1

>  <pication:HIS:40>  (94) 
0

>  <hbond:THR:142>  (94) 
0

>  <hbond:HIS:161>  (94) 
0

>  <hbond:GLY:166>  (94) 
0

>  <hbond:VAL:162>  (94) 
0

>  <hydroph_interaction:ASN:165>  (94) 
0

>  <hbond:ASN:126>  (94) 
0

>  <hbond:ARG:143>  (94) 
0

>  <hbond:GLU:71>  (94) 
0

>  <saltbridge:HIS:161>  (94) 
0

>  <hbond:ALA:144>  (94) 
0

>  <hbond:GLY:145>  (94) 
0

>  <hbond:GLN:146>  (94) 
0

>  <hbond:CYS:147>  (94) 
0

>  <halogenbond:ASN:126>  (94) 
0

>  <saltbridge:HIS:40>  (94) 
0

>  <hbond:LEU:127>  (94) 
0

>  <hbond:THR:130>  (94) 
0

>  <hydroph_interaction:GLU:71>  (94) 
0

>  <hydroph_interaction:THR:130>  (94) 
0

>  <saltbridge:ARG:143>  (94) 
0

>  <saltbridge:GLU:71>  (94) 
0

>  <hbond:GLY:129>  (94) 
0

>  <halogenbond:CYS:147>  (94) 
0

>  <hydroph_interaction:THR:39>  (94) 
0

>  <hbond:ASN:69>  (94) 
0

>  <hydroph_interaction:THR:132>  (94) 
0

>  <hbond:TYR:122>  (94) 
0

>  <hydroph_interaction:PHE:109>  (94) 
0

>  <hydroph_interaction:PHE:140>  (94) 
0

>  <hbond:PRO:141>  (94) 
0

$$$$
Z1255920782-x1071-0AS2
     RDKit          3D

 34 35  0  0  0  0  0  0  0  0999 V2000
   -7.9650    0.3490   -1.3490 C   0  0  0  0  0  0  0  0  0  0  0  0
   -6.5910   -0.8150   -1.2400 S   0  0  0  0  0  6  0  0  0  0  0  0
   -6.2630   -0.8720    0.1530 O   0  0  0  0  0  0  0  0  0  0  0  0
   -5.5960   -0.4180   -2.2140 O   0  0  0  0  0  0  0  0  0  0  0  0
   -7.4580   -2.3670   -1.7050 C   0  0  0  0  0  0  0  0  0  0  0  0
   -6.5620   -3.5180   -2.1160 C   0  0  0  0  0  0  0  0  0  0  0  0
   -7.1070   -4.7280   -2.5910 C   0  0  0  0  0  0  0  0  0  0  0  0
   -6.9270   -4.8660   -3.8100 O   0  0  0  0  0  0  0  0  0  0  0  0
   -7.8090   -5.6320   -1.6010 N   0  0  0  0  0  0  0  0  0  0  0  0
   -7.5470   -7.1030   -1.4890 C   0  0  0  0  0  0  0  0  0  0  0  0
   -6.2600   -7.3730   -1.0460 C   0  0  0  0  0  0  0  0  0  0  0  0
   -5.2850   -7.2970   -2.1900 C   0  0  0  0  0  0  0  0  0  0  0  0
   -3.8250   -7.5200   -1.8590 C   0  0  0  0  0  0  0  0  0  0  0  0
   -3.5600   -7.7880   -0.4020 C   0  0  0  0  0  0  0  0  0  0  0  0
   -2.4380   -7.9940    0.1830 C   0  0  0  0  0  0  0  0  0  0  0  0
   -2.5710   -8.2230    1.6460 C   0  0  0  0  0  0  0  0  0  0  0  0
   -3.9910   -8.1460    1.9750 O   0  0  0  0  0  0  0  0  0  0  0  0
   -4.6230   -7.8610    0.6750 C   0  0  0  0  0  0  0  0  0  0  0  0
   -5.9760   -7.6550    0.3310 C   0  0  0  0  0  0  0  0  0  0  0  0
   -8.0040    0.7490   -2.3560 H   0  0  0  0  0  0  0  0  0  0  0  0
   -8.8550   -0.1740   -1.0120 H   0  0  0  0  0  0  0  0  0  0  0  0
   -7.8010    1.1740   -0.6550 H   0  0  0  0  0  0  0  0  0  0  0  0
   -8.1740   -2.1360   -2.5000 H   0  0  0  0  0  0  0  0  0  0  0  0
   -8.0420   -2.6510   -0.8280 H   0  0  0  0  0  0  0  0  0  0  0  0
   -5.8970   -3.1210   -2.8830 H   0  0  0  0  0  0  0  0  0  0  0  0
   -5.9230   -3.7730   -1.2640 H   0  0  0  0  0  0  0  0  0  0  0  0
   -8.6100   -5.2740   -1.0860 H   0  0  0  0  0  0  0  0  0  0  0  0
   -8.2550   -7.5410   -0.7780 H   0  0  0  0  0  0  0  0  0  0  0  0
   -7.7290   -7.6000   -2.4450 H   0  0  0  0  0  0  0  0  0  0  0  0
   -5.6070   -7.0830   -3.2080 H   0  0  0  0  0  0  0  0  0  0  0  0
   -3.1110   -7.4610   -2.6830 H   0  0  0  0  0  0  0  0  0  0  0  0
   -1.5070   -8.0010   -0.3440 H   0  0  0  0  0  0  0  0  0  0  0  0
   -1.7200   -8.4140    2.3080 H   0  0  0  0  0  0  0  0  0  0  0  0
   -6.7420   -7.6990    1.1000 H   0  0  0  0  0  0  0  0  0  0  0  0
  1  2  1  0
  2  3  2  0
  2  4  2  0
  2  5  1  0
  5  6  1  0
  6  7  1  0
  7  8  2  0
  7  9  1  0
  9 10  1  0
 10 11  1  0
 11 12  2  0
 12 13  1  0
 13 14  2  0
 14 15  1  0
 15 16  2  0
 16 17  1  0
 17 18  1  0
 18 19  2  0
 19 11  1  0
 18 14  1  0
  1 20  1  0
  1 21  1  0
  1 22  1  0
  5 23  1  0
  5 24  1  0
  6 25  1  0
  6 26  1  0
  9 27  1  0
 10 28  1  0
 10 29  1  0
 12 30  1  0
 13 31  1  0
 15 32  1  0
 16 33  1  0
 19 34  1  0
A    1
 C1 
A    2
 S1 
A    3
 O1 
A    4
 O2 
A    5
 C2 
A    6
 C3 
A    7
 C4 
A    8
 O3 
A    9
 N1 
A   10
 C5 
A   11
 C6 
A   12
 C7 
A   13
 C8 
A   14
 C9 
A   15
 C10
A   16
 C11
A   17
 O4 
A   18
 C12
A   19
 C13
A   20
 H1 
A   21
 H2 
A   22
 H3 
A   23
 H4 
A   24
 H5 
A   25
 H6 
A   26
 H7 
A   27
 H8 
A   28
 H9 
A   29
 H10
A   30
 H11
A   31
 H12
A   32
 H13
A   33
 H14
A   34
 H15
M  END
>  <ref_pdb>  (95) 
x0147_0A

>  <ref_mols>  (95) 
x1071_0AS2,x1140_0AS4

>  <original SMILES>  (95) 
[H]c1oc2c([H])c(C([H])([H])N([H])C(=O)C([H])([H])C([H])([H])S(=O)(=O)C([H])([H])[H])c([H])c([H])c2c1[H]

>  <index>  (95) 
16525

>  <∆∆G>  (95) 
-7.742664

>  <comRMSD>  (95) 
0.779503

>  <N_constrained_atoms>  (95) 
17.0

>  <N_unconstrained_atoms>  (95) 
2.0

>  <LE>  (95) 
0.407509

>  <percent_hybrid>  (95) 
48.0

>  <max_hit_Tanimoto>  (95) 
0.059041

>  <largest_ring>  (95) 
6

>  <N_interactions_kept>  (95) 
3.0

>  <N_interactions_lost>  (95) 
1.5

>  <interaction_uniqueness_metric>  (95) 
0.039872

>  <N_HA>  (95) 
19

>  <N_rotatable_bonds>  (95) 
6

>  <N_interactions>  (95) 
4

>  <N_PAINS>  (95) 
0

>  <UFF_Gibbs>  (95) 
134.785878

>  <strain_per_HA>  (95) 
7.093956

>  <ad_hoc_penalty>  (95) 
-27.47584

>  <cluster>  (95) 
1044

>  <ranked>  (95) 
109.0

>  <merger_rank>  (95) 
4

>  <hydroph_interaction:LEU:127>  (95) 
2

>  <hbond:GLY:128>  (95) 
0

>  <hydroph_interaction:ALA:144>  (95) 
0

>  <hbond:GLY:164>  (95) 
1

>  <hbond:HIS:40>  (95) 
0

>  <pistack:HIS:40>  (95) 
0

>  <hydroph_interaction:LEU:125>  (95) 
0

>  <hydroph_interaction:PHE:170>  (95) 
0

>  <hydroph_interaction:HIS:40>  (95) 
1

>  <pication:HIS:40>  (95) 
0

>  <hbond:THR:142>  (95) 
0

>  <hbond:HIS:161>  (95) 
0

>  <hbond:GLY:166>  (95) 
0

>  <hbond:VAL:162>  (95) 
0

>  <hydroph_interaction:ASN:165>  (95) 
0

>  <hbond:ASN:126>  (95) 
0

>  <hbond:ARG:143>  (95) 
0

>  <hbond:GLU:71>  (95) 
0

>  <saltbridge:HIS:161>  (95) 
0

>  <hbond:ALA:144>  (95) 
0

>  <hbond:GLY:145>  (95) 
0

>  <hbond:GLN:146>  (95) 
0

>  <hbond:CYS:147>  (95) 
0

>  <halogenbond:ASN:126>  (95) 
0

>  <saltbridge:HIS:40>  (95) 
0

>  <hbond:LEU:127>  (95) 
0

>  <hbond:THR:130>  (95) 
0

>  <hydroph_interaction:GLU:71>  (95) 
0

>  <hydroph_interaction:THR:130>  (95) 
0

>  <saltbridge:ARG:143>  (95) 
0

>  <saltbridge:GLU:71>  (95) 
0

>  <hbond:GLY:129>  (95) 
0

>  <halogenbond:CYS:147>  (95) 
0

>  <hydroph_interaction:THR:39>  (95) 
0

>  <hbond:ASN:69>  (95) 
0

>  <hydroph_interaction:THR:132>  (95) 
0

>  <hbond:TYR:122>  (95) 
0

>  <hydroph_interaction:PHE:109>  (95) 
0

>  <hydroph_interaction:PHE:140>  (95) 
0

>  <hbond:PRO:141>  (95) 
0

$$$$
Z2916245641-x1084-0AS3
     RDKit          3D

 31 31  0  0  0  0  0  0  0  0999 V2000
   -4.9890   -6.6700   -2.9240 C   0  0  0  0  0  0  0  0  0  0  0  0
   -6.6360   -6.4130   -3.5250 S   0  0  0  0  0  6  0  0  0  0  0  0
   -6.8770   -4.6820   -3.8620 C   0  0  0  0  0  0  0  0  0  0  0  0
   -7.5970   -6.9030   -2.5660 O   0  0  0  0  0  0  0  0  0  0  0  0
   -6.8350   -7.2030   -5.0130 N   0  0  0  0  0  0  0  0  0  0  0  0
   -8.0970   -7.4550   -5.5100 C   0  0  0  0  0  0  0  0  0  0  0  0
   -8.4400   -8.6220   -5.7020 O   0  0  0  0  0  0  0  0  0  0  0  0
   -9.0190   -6.3100   -5.8110 C   0  0  0  0  0  0  0  0  0  0  0  0
   -8.6160   -5.3950   -6.7720 C   0  0  0  0  0  0  0  0  0  0  0  0
   -7.4430   -5.5120   -7.4830 C   0  0  0  0  0  0  0  0  0  0  0  0
   -7.1060   -4.4320   -8.4860 C   0  0  0  0  0  0  0  0  0  0  0  0
   -8.0480   -3.2640   -8.6790 C   0  0  0  0  0  0  0  0  0  0  0  0
   -9.1900   -3.1440   -8.0090 C   0  0  0  0  0  0  0  0  0  0  0  0
   -9.5580   -4.1960   -7.0180 C   0  0  0  0  0  0  0  0  0  0  0  0
  -10.8680   -4.0110   -6.2980 C   0  0  0  0  0  0  0  0  0  0  0  0
  -10.9930   -3.8000   -4.9870 N   0  0  0  0  0  0  0  0  0  0  0  0
  -11.9950   -4.0630   -7.1950 O   0  0  0  0  0  0  0  0  0  0  0  0
   -4.3770   -5.7940   -3.1390 H   0  0  0  0  0  0  0  0  0  0  0  0
   -4.5420   -7.5540   -3.3930 H   0  0  0  0  0  0  0  0  0  0  0  0
   -5.0230   -6.8210   -1.8400 H   0  0  0  0  0  0  0  0  0  0  0  0
   -6.0010   -4.1290   -3.5080 H   0  0  0  0  0  0  0  0  0  0  0  0
   -6.9540   -4.5440   -4.9460 H   0  0  0  0  0  0  0  0  0  0  0  0
   -7.7880   -4.3370   -3.3710 H   0  0  0  0  0  0  0  0  0  0  0  0
   -9.9910   -6.6890   -6.1150 H   0  0  0  0  0  0  0  0  0  0  0  0
   -9.2150   -5.7720   -4.8790 H   0  0  0  0  0  0  0  0  0  0  0  0
   -6.8350   -6.3880   -7.2610 H   0  0  0  0  0  0  0  0  0  0  0  0
   -6.1980   -4.4820   -9.0610 H   0  0  0  0  0  0  0  0  0  0  0  0
   -7.8290   -2.4850   -9.3680 H   0  0  0  0  0  0  0  0  0  0  0  0
   -9.8390   -2.2780   -8.1940 H   0  0  0  0  0  0  0  0  0  0  0  0
  -11.7480   -4.3180   -4.5380 H   0  0  0  0  0  0  0  0  0  0  0  0
  -10.1650   -3.6370   -4.4280 H   0  0  0  0  0  0  0  0  0  0  0  0
  1  2  1  0
  2  3  1  0
  2  4  2  0
  2  5  2  0
  5  6  1  0
  6  7  2  0
  6  8  1  0
  8  9  1  0
  9 10  2  0
 10 11  1  0
 11 12  2  0
 12 13  1  0
 13 14  2  0
 14 15  1  0
 15 16  1  0
 15 17  2  0
 14  9  1  0
  1 18  1  0
  1 19  1  0
  1 20  1  0
  3 21  1  0
  3 22  1  0
  3 23  1  0
  8 24  1  0
  8 25  1  0
 10 26  1  0
 11 27  1  0
 12 28  1  0
 13 29  1  0
 16 30  1  0
 16 31  1  0
A    1
 C1 
A    2
 S1 
A    3
 C2 
A    4
 O1 
A    5
 N1 
A    6
 C3 
A    7
 O2 
A    8
 C4 
A    9
 C5 
A   10
 C6 
A   11
 C7 
A   12
 C8 
A   13
 C9 
A   14
 C10
A   15
 C11
A   16
 N2 
A   17
 O3 
A   18
 H1 
A   19
 H2 
A   20
 H3 
A   21
 H4 
A   22
 H5 
A   23
 H6 
A   24
 H7 
A   25
 H8 
A   26
 H9 
A   27
 H10
A   28
 H11
A   29
 H12
A   30
 H13
A   31
 H14
M  END
>  <ref_pdb>  (96) 
x0147_0A

>  <ref_mols>  (96) 
x1084_0AS3,x0980_0BS4

>  <original SMILES>  (96) 
[H]c1c([H])c([H])c(C([H])([H])C(=O)N=S(=O)(C([H])([H])[H])C([H])([H])[H])c(C(=O)N([H])[H])c1[H]

>  <index>  (96) 
16409

>  <∆∆G>  (96) 
-8.229597

>  <comRMSD>  (96) 
0.533711

>  <N_constrained_atoms>  (96) 
14.0

>  <N_unconstrained_atoms>  (96) 
3.0

>  <LE>  (96) 
0.484094

>  <percent_hybrid>  (96) 
36.0

>  <max_hit_Tanimoto>  (96) 
0.161426

>  <largest_ring>  (96) 
6

>  <N_interactions_kept>  (96) 
1.0

>  <N_interactions_lost>  (96) 
1.0

>  <interaction_uniqueness_metric>  (96) 
0.050319

>  <N_HA>  (96) 
17

>  <N_rotatable_bonds>  (96) 
5

>  <N_interactions>  (96) 
2

>  <N_PAINS>  (96) 
0

>  <UFF_Gibbs>  (96) 
104.747291

>  <strain_per_HA>  (96) 
6.161569

>  <ad_hoc_penalty>  (96) 
-27.404224

>  <cluster>  (96) 
3192

>  <ranked>  (96) 
110.0

>  <merger_rank>  (96) 
1

>  <hydroph_interaction:LEU:127>  (96) 
0

>  <hbond:GLY:128>  (96) 
0

>  <hydroph_interaction:ALA:144>  (96) 
1

>  <hbond:GLY:164>  (96) 
0

>  <hbond:HIS:40>  (96) 
0

>  <pistack:HIS:40>  (96) 
0

>  <hydroph_interaction:LEU:125>  (96) 
0

>  <hydroph_interaction:PHE:170>  (96) 
0

>  <hydroph_interaction:HIS:40>  (96) 
0

>  <pication:HIS:40>  (96) 
0

>  <hbond:THR:142>  (96) 
0

>  <hbond:HIS:161>  (96) 
0

>  <hbond:GLY:166>  (96) 
0

>  <hbond:VAL:162>  (96) 
1

>  <hydroph_interaction:ASN:165>  (96) 
0

>  <hbond:ASN:126>  (96) 
0

>  <hbond:ARG:143>  (96) 
0

>  <hbond:GLU:71>  (96) 
0

>  <saltbridge:HIS:161>  (96) 
0

>  <hbond:ALA:144>  (96) 
0

>  <hbond:GLY:145>  (96) 
0

>  <hbond:GLN:146>  (96) 
0

>  <hbond:CYS:147>  (96) 
0

>  <halogenbond:ASN:126>  (96) 
0

>  <saltbridge:HIS:40>  (96) 
0

>  <hbond:LEU:127>  (96) 
0

>  <hbond:THR:130>  (96) 
0

>  <hydroph_interaction:GLU:71>  (96) 
0

>  <hydroph_interaction:THR:130>  (96) 
0

>  <saltbridge:ARG:143>  (96) 
0

>  <saltbridge:GLU:71>  (96) 
0

>  <hbond:GLY:129>  (96) 
0

>  <halogenbond:CYS:147>  (96) 
0

>  <hydroph_interaction:THR:39>  (96) 
0

>  <hbond:ASN:69>  (96) 
0

>  <hydroph_interaction:THR:132>  (96) 
0

>  <hbond:TYR:122>  (96) 
0

>  <hydroph_interaction:PHE:109>  (96) 
0

>  <hydroph_interaction:PHE:140>  (96) 
0

>  <hbond:PRO:141>  (96) 
0

$$$$
Z2376801093-x1329-0A
     RDKit          3D

 49 50  0  0  0  0  0  0  0  0999 V2000
   -4.3700   -7.0340   -1.8840 C   0  0  0  0  0  0  0  0  0  0  0  0
   -5.8090   -6.8390   -1.4430 C   0  0  2  0  0  0  0  0  0  0  0  0
   -6.4450   -8.1440   -0.9630 C   0  0  2  0  0  0  0  0  0  0  0  0
   -5.6030   -8.7470    0.1650 C   0  0  0  0  0  0  0  0  0  0  0  0
   -5.2370   -9.9160    0.2830 O   0  0  0  0  0  0  0  0  0  0  0  0
   -5.2100   -7.8420    1.1940 O   0  0  0  0  0  0  0  0  0  0  0  0
   -6.4470   -9.1260   -2.1420 C   0  0  0  0  0  0  0  0  0  0  0  0
   -6.8550   -8.5210   -3.3350 C   0  0  0  0  0  0  0  0  0  0  0  0
   -7.5020   -7.2780   -3.1810 C   0  0  0  0  0  0  0  0  0  0  0  0
   -6.5820   -6.3020   -2.5560 N   0  0  0  0  0  0  0  0  0  0  0  0
   -6.9680   -4.6510   -2.6830 S   0  0  0  0  0  6  0  0  0  0  0  0
   -6.6670   -4.2320   -4.0370 O   0  0  0  0  0  0  0  0  0  0  0  0
   -6.4120   -3.9620   -1.5450 O   0  0  0  0  0  0  0  0  0  0  0  0
   -8.7890   -4.6430   -2.4810 C   0  0  0  0  0  0  0  0  0  0  0  0
   -9.3650   -3.6790   -3.4470 C   0  0  0  0  0  0  0  0  0  0  0  0
   -9.3520   -4.0550   -4.7880 C   0  0  0  0  0  0  0  0  0  0  0  0
  -10.6360   -3.7910   -5.3490 O   0  0  0  0  0  0  0  0  0  0  0  0
  -10.8220   -4.4250   -6.6130 C   0  0  0  0  0  0  0  0  0  0  0  0
   -9.5970   -4.4440   -7.2540 C   0  0  0  0  0  0  0  0  0  0  0  0
   -8.6430   -5.6050   -7.2100 C   0  0  0  0  0  0  0  0  0  0  0  0
   -7.4310   -5.5650   -7.8830 C   0  0  0  0  0  0  0  0  0  0  0  0
   -7.0860   -4.3320   -8.6600 C   0  0  0  0  0  0  0  0  0  0  0  0
   -7.9970   -3.2800   -8.6660 C   0  0  0  0  0  0  0  0  0  0  0  0
   -9.1980   -3.3370   -7.9930 C   0  0  0  0  0  0  0  0  0  0  0  0
   -4.0990   -6.2610   -2.6100 H   0  0  0  0  0  0  0  0  0  0  0  0
   -4.2360   -8.0070   -2.3690 H   0  0  0  0  0  0  0  0  0  0  0  0
   -3.6750   -6.9700   -1.0420 H   0  0  0  0  0  0  0  0  0  0  0  0
   -5.8340   -6.1070   -0.6250 H   0  0  0  0  0  0  0  0  0  0  0  0
   -7.4960   -8.0700   -0.6930 H   0  0  0  0  0  0  0  0  0  0  0  0
   -4.3150   -7.5400    0.9240 H   0  0  0  0  0  0  0  0  0  0  0  0
   -5.4560   -9.5740   -2.2760 H   0  0  0  0  0  0  0  0  0  0  0  0
   -7.1340   -9.9490   -1.9160 H   0  0  0  0  0  0  0  0  0  0  0  0
   -5.9460   -8.3290   -3.9190 H   0  0  0  0  0  0  0  0  0  0  0  0
   -7.4560   -9.1630   -3.9890 H   0  0  0  0  0  0  0  0  0  0  0  0
   -7.8080   -6.9310   -4.1790 H   0  0  0  0  0  0  0  0  0  0  0  0
   -8.3800   -7.3900   -2.5350 H   0  0  0  0  0  0  0  0  0  0  0  0
   -9.1340   -5.6480   -2.7380 H   0  0  0  0  0  0  0  0  0  0  0  0
   -8.9870   -4.4980   -1.4270 H   0  0  0  0  0  0  0  0  0  0  0  0
   -9.0420   -2.6570   -3.2990 H   0  0  0  0  0  0  0  0  0  0  0  0
  -10.4240   -3.6380   -3.1700 H   0  0  0  0  0  0  0  0  0  0  0  0
   -8.6070   -3.4570   -5.3060 H   0  0  0  0  0  0  0  0  0  0  0  0
   -9.1250   -5.0830   -5.0420 H   0  0  0  0  0  0  0  0  0  0  0  0
  -11.6400   -3.9150   -7.1150 H   0  0  0  0  0  0  0  0  0  0  0  0
  -11.1300   -5.4670   -6.4630 H   0  0  0  0  0  0  0  0  0  0  0  0
   -8.9120   -6.4970   -6.6400 H   0  0  0  0  0  0  0  0  0  0  0  0
   -6.6830   -6.3640   -7.9050 H   0  0  0  0  0  0  0  0  0  0  0  0
   -6.1510   -4.2640   -9.2000 H   0  0  0  0  0  0  0  0  0  0  0  0
   -7.7880   -2.3740   -9.2050 H   0  0  0  0  0  0  0  0  0  0  0  0
   -9.7970   -2.4300   -8.1030 H   0  0  0  0  0  0  0  0  0  0  0  0
  1  2  1  0
  2  3  1  0
  3  4  1  0
  4  5  2  0
  4  6  1  0
  3  7  1  0
  7  8  1  0
  8  9  1  0
  9 10  1  0
 10 11  1  0
 11 12  2  0
 11 13  2  0
 11 14  1  0
 14 15  1  0
 15 16  1  0
 16 17  1  0
 17 18  1  0
 18 19  1  0
 19 20  2  0
 20 21  1  0
 21 22  2  0
 22 23  1  0
 23 24  2  0
 10  2  1  0
 24 19  1  0
  1 25  1  0
  1 26  1  0
  1 27  1  0
  2 28  1  1
  3 29  1  1
  6 30  1  0
  7 31  1  0
  7 32  1  0
  8 33  1  0
  8 34  1  0
  9 35  1  0
  9 36  1  0
 14 37  1  0
 14 38  1  0
 15 39  1  0
 15 40  1  0
 16 41  1  0
 16 42  1  0
 18 43  1  0
 18 44  1  0
 20 45  1  0
 21 46  1  0
 22 47  1  0
 23 48  1  0
 24 49  1  0
A    1
 C1 
A    2
 C2 
A    3
 C3 
A    4
 C4 
A    5
 O1 
A    6
 O2 
A    7
 C5 
A    8
 C6 
A    9
 C7 
A   10
 N1 
A   11
 S1 
A   12
 O3 
A   13
 O4 
A   14
 C8 
A   15
 C9 
A   16
 C10
A   17
 O5 
A   18
 C11
A   19
 C12
A   20
 C13
A   21
 C14
A   22
 C15
A   23
 C16
A   24
 C17
A   25
 H1 
A   26
 H2 
A   27
 H3 
A   28
 H4 
A   29
 H5 
A   30
 H6 
A   31
 H7 
A   32
 H8 
A   33
 H9 
A   34
 H10
A   35
 H11
A   36
 H12
A   37
 H13
A   38
 H14
A   39
 H15
A   40
 H16
A   41
 H17
A   42
 H18
A   43
 H19
A   44
 H20
A   45
 H21
A   46
 H22
A   47
 H23
A   48
 H24
A   49
 H25
M  END
>  <ref_pdb>  (97) 
x0147_0A

>  <ref_mols>  (97) 
x1329_0A,x0980_0BS4

>  <original SMILES>  (97) 
[H]OC(=O)[C@]1([H])C([H])([H])C([H])([H])C([H])([H])N(S(=O)(=O)C([H])([H])C([H])([H])C([H])([H])OC([H])([H])c2c([H])c([H])c([H])c([H])c2[H])[C@]1([H])C([H])([H])[H]

>  <index>  (97) 
8255

>  <∆∆G>  (97) 
-8.192549

>  <comRMSD>  (97) 
0.423936

>  <N_constrained_atoms>  (97) 
24.0

>  <N_unconstrained_atoms>  (97) 
2.0

>  <LE>  (97) 
0.315098

>  <percent_hybrid>  (97) 
38.0

>  <max_hit_Tanimoto>  (97) 
0.549096

>  <largest_ring>  (97) 
6

>  <N_interactions_kept>  (97) 
1.0

>  <N_interactions_lost>  (97) 
1.5

>  <interaction_uniqueness_metric>  (97) 
0.143737

>  <N_HA>  (97) 
24

>  <N_rotatable_bonds>  (97) 
9

>  <N_interactions>  (97) 
4

>  <N_PAINS>  (97) 
0

>  <UFF_Gibbs>  (97) 
155.792413

>  <strain_per_HA>  (97) 
6.491324

>  <ad_hoc_penalty>  (97) 
-27.395253

>  <cluster>  (97) 
751

>  <ranked>  (97) 
111.0

>  <merger_rank>  (97) 
1

>  <hydroph_interaction:LEU:127>  (97) 
1

>  <hbond:GLY:128>  (97) 
0

>  <hydroph_interaction:ALA:144>  (97) 
0

>  <hbond:GLY:164>  (97) 
1

>  <hbond:HIS:40>  (97) 
0

>  <pistack:HIS:40>  (97) 
0

>  <hydroph_interaction:LEU:125>  (97) 
0

>  <hydroph_interaction:PHE:170>  (97) 
0

>  <hydroph_interaction:HIS:40>  (97) 
0

>  <pication:HIS:40>  (97) 
0

>  <hbond:THR:142>  (97) 
0

>  <hbond:HIS:161>  (97) 
0

>  <hbond:GLY:166>  (97) 
0

>  <hbond:VAL:162>  (97) 
0

>  <hydroph_interaction:ASN:165>  (97) 
0

>  <hbond:ASN:126>  (97) 
0

>  <hbond:ARG:143>  (97) 
0

>  <hbond:GLU:71>  (97) 
0

>  <saltbridge:HIS:161>  (97) 
0

>  <hbond:ALA:144>  (97) 
0

>  <hbond:GLY:145>  (97) 
0

>  <hbond:GLN:146>  (97) 
0

>  <hbond:CYS:147>  (97) 
0

>  <halogenbond:ASN:126>  (97) 
0

>  <saltbridge:HIS:40>  (97) 
1

>  <hbond:LEU:127>  (97) 
1

>  <hbond:THR:130>  (97) 
0

>  <hydroph_interaction:GLU:71>  (97) 
0

>  <hydroph_interaction:THR:130>  (97) 
0

>  <saltbridge:ARG:143>  (97) 
0

>  <saltbridge:GLU:71>  (97) 
0

>  <hbond:GLY:129>  (97) 
0

>  <halogenbond:CYS:147>  (97) 
0

>  <hydroph_interaction:THR:39>  (97) 
0

>  <hbond:ASN:69>  (97) 
0

>  <hydroph_interaction:THR:132>  (97) 
0

>  <hbond:TYR:122>  (97) 
0

>  <hydroph_interaction:PHE:109>  (97) 
0

>  <hydroph_interaction:PHE:140>  (97) 
0

>  <hbond:PRO:141>  (97) 
0

$$$$
Z5524140120-x1329-0AS2
     RDKit          3D

 39 40  0  0  0  0  0  0  0  0999 V2000
   -4.0340   -7.3730    1.5190 C   0  0  0  0  0  0  0  0  0  0  0  0
   -5.3920   -7.6570    1.1700 O   0  0  0  0  0  0  0  0  0  0  0  0
   -5.5370   -8.6980    0.1960 C   0  0  0  0  0  0  0  0  0  0  0  0
   -5.0970   -9.8280    0.3190 O   0  0  0  0  0  0  0  0  0  0  0  0
   -6.3140   -8.1990   -0.9960 C   0  0  2  0  0  0  0  0  0  0  0  0
   -6.4700   -9.1410   -2.0350 C   0  0  0  0  0  0  0  0  0  0  0  0
   -6.5710   -8.6400   -3.3390 C   0  0  0  0  0  0  0  0  0  0  0  0
   -7.2380   -7.3320   -3.3580 N   0  0  0  0  0  0  0  0  0  0  0  0
   -7.5580   -6.9440   -4.7470 C   0  0  0  0  0  0  0  0  0  0  0  0
   -6.7020   -6.5270   -5.7030 O   0  0  0  0  0  0  0  0  0  0  0  0
   -9.0190   -7.0300   -5.1980 C   0  0  0  0  0  0  0  0  0  0  0  0
   -9.6680   -5.4220   -5.6770 S   0  0  0  0  0  0  0  0  0  0  0  0
   -8.6720   -4.8610   -7.0540 C   0  0  0  0  0  0  0  0  0  0  0  0
   -8.6770   -3.6690   -7.7730 C   0  0  0  0  0  0  0  0  0  0  0  0
   -7.7460   -3.6750   -8.7330 N   0  0  0  0  0  0  0  0  0  0  0  0
   -7.0560   -4.8640   -8.7270 N   0  0  0  0  0  0  0  0  0  0  0  0
   -7.6290   -5.5580   -7.7140 C   0  0  0  0  0  0  0  0  0  0  0  0
   -6.7800   -6.3790   -2.3380 C   0  0  0  0  0  0  0  0  0  0  0  0
   -5.8810   -6.9260   -1.4260 C   0  0  2  0  0  0  0  0  0  0  0  0
   -4.4610   -6.9810   -2.0270 C   0  0  0  0  0  0  0  0  0  0  0  0
   -3.9740   -6.8860    2.5000 H   0  0  0  0  0  0  0  0  0  0  0  0
   -3.5550   -6.7200    0.7810 H   0  0  0  0  0  0  0  0  0  0  0  0
   -3.4790   -8.3170    1.5640 H   0  0  0  0  0  0  0  0  0  0  0  0
   -7.3220   -8.0130   -0.6170 H   0  0  0  0  0  0  0  0  0  0  0  0
   -7.2750   -9.8740   -1.9010 H   0  0  0  0  0  0  0  0  0  0  0  0
   -5.5700   -9.7670   -2.0280 H   0  0  0  0  0  0  0  0  0  0  0  0
   -7.1680   -9.3580   -3.9140 H   0  0  0  0  0  0  0  0  0  0  0  0
   -5.6390   -8.5550   -3.8940 H   0  0  0  0  0  0  0  0  0  0  0  0
   -9.7250   -7.5170   -4.5200 H   0  0  0  0  0  0  0  0  0  0  0  0
   -9.0020   -7.6430   -6.1040 H   0  0  0  0  0  0  0  0  0  0  0  0
   -9.3550   -2.8330   -7.5780 H   0  0  0  0  0  0  0  0  0  0  0  0
   -7.5060   -2.9640   -9.4130 H   0  0  0  0  0  0  0  0  0  0  0  0
   -7.1970   -6.5570   -7.5560 H   0  0  0  0  0  0  0  0  0  0  0  0
   -6.2970   -5.5200   -2.8230 H   0  0  0  0  0  0  0  0  0  0  0  0
   -7.6580   -6.0250   -1.8030 H   0  0  0  0  0  0  0  0  0  0  0  0
   -5.8360   -6.3110   -0.5240 H   0  0  0  0  0  0  0  0  0  0  0  0
   -3.7100   -7.0280   -1.2310 H   0  0  0  0  0  0  0  0  0  0  0  0
   -4.1630   -6.1980   -2.7270 H   0  0  0  0  0  0  0  0  0  0  0  0
   -4.3860   -7.9040   -2.6070 H   0  0  0  0  0  0  0  0  0  0  0  0
  1  2  1  0
  2  3  1  0
  3  4  2  0
  3  5  1  0
  5  6  1  0
  6  7  1  0
  7  8  1  0
  8  9  1  0
  9 10  2  0
  9 11  1  0
 11 12  1  0
 12 13  1  0
 13 14  2  0
 14 15  1  0
 15 16  1  0
 16 17  2  0
  8 18  1  0
 18 19  1  0
 19 20  1  0
 19  5  1  0
 17 13  1  0
  1 21  1  0
  1 22  1  0
  1 23  1  0
  5 24  1  1
  6 25  1  0
  6 26  1  0
  7 27  1  0
  7 28  1  0
 11 29  1  0
 11 30  1  0
 14 31  1  0
 15 32  1  0
 17 33  1  0
 18 34  1  0
 18 35  1  0
 19 36  1  1
 20 37  1  0
 20 38  1  0
 20 39  1  0
A    1
 C1 
A    2
 O1 
A    3
 C2 
A    4
 O2 
A    5
 C3 
A    6
 C4 
A    7
 C5 
A    8
 N1 
A    9
 C6 
A   10
 O3 
A   11
 C7 
A   12
 S1 
A   13
 C8 
A   14
 C9 
A   15
 N2 
A   16
 N3 
A   17
 C10
A   18
 C11
A   19
 C12
A   20
 C13
A   21
 H1 
A   22
 H2 
A   23
 H3 
A   24
 H4 
A   25
 H5 
A   26
 H6 
A   27
 H7 
A   28
 H8 
A   29
 H9 
A   30
 H10
A   31
 H11
A   32
 H12
A   33
 H13
A   34
 H14
A   35
 H15
A   36
 H16
A   37
 H17
A   38
 H18
A   39
 H19
M  END
>  <ref_pdb>  (98) 
x0147_0A

>  <ref_mols>  (98) 
x1329_0AS2,x0789_0AS1

>  <original SMILES>  (98) 
[H]c1nn([H])c([H])c1SC([H])([H])C(=O)N1C([H])([H])C([H])([H])[C@@]([H])(C(=O)OC([H])([H])[H])[C@@]([H])(C([H])([H])[H])C1([H])[H]

>  <index>  (98) 
12394

>  <∆∆G>  (98) 
-7.834883

>  <comRMSD>  (98) 
0.280228

>  <N_constrained_atoms>  (98) 
17.0

>  <N_unconstrained_atoms>  (98) 
3.0

>  <LE>  (98) 
0.391744

>  <percent_hybrid>  (98) 
36.0

>  <max_hit_Tanimoto>  (98) 
0.211806

>  <largest_ring>  (98) 
6

>  <N_interactions_kept>  (98) 
0.0

>  <N_interactions_lost>  (98) 
0.5

>  <interaction_uniqueness_metric>  (98) 
0.063354

>  <N_HA>  (98) 
20

>  <N_rotatable_bonds>  (98) 
6

>  <N_interactions>  (98) 
2

>  <N_PAINS>  (98) 
0

>  <UFF_Gibbs>  (98) 
163.261903

>  <strain_per_HA>  (98) 
8.163054

>  <ad_hoc_penalty>  (98) 
-27.240255

>  <cluster>  (98) 
4278

>  <ranked>  (98) 
112.0

>  <merger_rank>  (98) 
4

>  <hydroph_interaction:LEU:127>  (98) 
1

>  <hbond:GLY:128>  (98) 
0

>  <hydroph_interaction:ALA:144>  (98) 
0

>  <hbond:GLY:164>  (98) 
0

>  <hbond:HIS:40>  (98) 
0

>  <pistack:HIS:40>  (98) 
0

>  <hydroph_interaction:LEU:125>  (98) 
0

>  <hydroph_interaction:PHE:170>  (98) 
0

>  <hydroph_interaction:HIS:40>  (98) 
0

>  <pication:HIS:40>  (98) 
0

>  <hbond:THR:142>  (98) 
0

>  <hbond:HIS:161>  (98) 
0

>  <hbond:GLY:166>  (98) 
0

>  <hbond:VAL:162>  (98) 
0

>  <hydroph_interaction:ASN:165>  (98) 
0

>  <hbond:ASN:126>  (98) 
0

>  <hbond:ARG:143>  (98) 
0

>  <hbond:GLU:71>  (98) 
0

>  <saltbridge:HIS:161>  (98) 
0

>  <hbond:ALA:144>  (98) 
0

>  <hbond:GLY:145>  (98) 
0

>  <hbond:GLN:146>  (98) 
0

>  <hbond:CYS:147>  (98) 
0

>  <halogenbond:ASN:126>  (98) 
0

>  <saltbridge:HIS:40>  (98) 
1

>  <hbond:LEU:127>  (98) 
0

>  <hbond:THR:130>  (98) 
0

>  <hydroph_interaction:GLU:71>  (98) 
0

>  <hydroph_interaction:THR:130>  (98) 
0

>  <saltbridge:ARG:143>  (98) 
0

>  <saltbridge:GLU:71>  (98) 
0

>  <hbond:GLY:129>  (98) 
0

>  <halogenbond:CYS:147>  (98) 
0

>  <hydroph_interaction:THR:39>  (98) 
0

>  <hbond:ASN:69>  (98) 
0

>  <hydroph_interaction:THR:132>  (98) 
0

>  <hbond:TYR:122>  (98) 
0

>  <hydroph_interaction:PHE:109>  (98) 
0

>  <hydroph_interaction:PHE:140>  (98) 
0

>  <hbond:PRO:141>  (98) 
0

$$$$
Z4100772594-x1919-0AS11
     RDKit          3D

 33 33  0  0  0  0  0  0  0  0999 V2000
   -7.3230   -2.8700   -1.2400 C   0  0  0  0  0  0  0  0  0  0  0  0
   -7.2550   -4.3800   -1.4070 C   0  0  0  0  0  0  0  0  0  0  0  0
   -7.0900   -4.8180   -3.1570 S   0  0  0  0  0  6  0  0  0  0  0  0
   -6.0890   -3.9870   -3.7640 O   0  0  0  0  0  0  0  0  0  0  0  0
   -6.7150   -6.6040   -3.0990 C   0  0  0  0  0  0  0  0  0  0  0  0
   -5.2660   -6.9000   -3.4160 C   0  0  0  0  0  0  0  0  0  0  0  0
   -8.5440   -4.5950   -3.9530 N   0  0  0  0  0  0  0  0  0  0  0  0
   -9.1800   -5.7850   -4.5380 C   0  0  0  0  0  0  0  0  0  0  0  0
   -9.6180   -6.6850   -3.8200 O   0  0  0  0  0  0  0  0  0  0  0  0
   -9.2980   -5.9010   -6.0600 C   0  0  0  0  0  0  0  0  0  0  0  0
   -8.4570   -5.1220   -7.0970 C   0  0  0  0  0  0  0  0  0  0  0  0
   -7.2440   -5.7160   -7.7030 C   0  0  0  0  0  0  0  0  0  0  0  0
   -6.7050   -4.8280   -8.5870 N   0  0  0  0  0  0  0  0  0  0  0  0
   -7.4680   -3.7030   -8.6070 N   0  0  0  0  0  0  0  0  0  0  0  0
   -8.4920   -3.8540   -7.7420 C   0  0  0  0  0  0  0  0  0  0  0  0
   -9.4140   -2.8160   -7.5910 C   0  0  0  0  0  0  0  0  0  0  0  0
   -6.3220   -2.4260   -1.1830 H   0  0  0  0  0  0  0  0  0  0  0  0
   -7.8260   -2.4250   -2.1030 H   0  0  0  0  0  0  0  0  0  0  0  0
   -7.8860   -2.5910   -0.3460 H   0  0  0  0  0  0  0  0  0  0  0  0
   -6.3740   -4.7800   -0.8900 H   0  0  0  0  0  0  0  0  0  0  0  0
   -8.1530   -4.8640   -1.0060 H   0  0  0  0  0  0  0  0  0  0  0  0
   -6.9370   -6.9890   -2.0970 H   0  0  0  0  0  0  0  0  0  0  0  0
   -7.3660   -7.1430   -3.7940 H   0  0  0  0  0  0  0  0  0  0  0  0
   -4.9270   -7.7740   -2.8470 H   0  0  0  0  0  0  0  0  0  0  0  0
   -4.6340   -6.0330   -3.2100 H   0  0  0  0  0  0  0  0  0  0  0  0
   -5.1810   -7.1680   -4.4730 H   0  0  0  0  0  0  0  0  0  0  0  0
  -10.3450   -5.6670   -6.2630 H   0  0  0  0  0  0  0  0  0  0  0  0
   -9.1470   -6.9580   -6.3090 H   0  0  0  0  0  0  0  0  0  0  0  0
   -6.9140   -6.7250   -7.4170 H   0  0  0  0  0  0  0  0  0  0  0  0
   -5.8600   -4.8960   -9.1910 H   0  0  0  0  0  0  0  0  0  0  0  0
   -9.5380   -2.4680   -6.5680 H   0  0  0  0  0  0  0  0  0  0  0  0
  -10.4040   -3.0760   -7.9370 H   0  0  0  0  0  0  0  0  0  0  0  0
   -9.1960   -1.9020   -8.1330 H   0  0  0  0  0  0  0  0  0  0  0  0
  1  2  1  0
  2  3  1  0
  3  4  2  0
  3  5  1  0
  5  6  1  0
  3  7  2  0
  7  8  1  0
  8  9  2  0
  8 10  1  0
 10 11  1  0
 11 12  2  0
 12 13  1  0
 13 14  1  0
 14 15  2  0
 15 16  1  0
 15 11  1  0
  1 17  1  0
  1 18  1  0
  1 19  1  0
  2 20  1  0
  2 21  1  0
  5 22  1  0
  5 23  1  0
  6 24  1  0
  6 25  1  0
  6 26  1  0
 10 27  1  0
 10 28  1  0
 12 29  1  0
 13 30  1  0
 16 31  1  0
 16 32  1  0
 16 33  1  0
A    1
 C1 
A    2
 C2 
A    3
 S1 
A    4
 O1 
A    5
 C3 
A    6
 C4 
A    7
 N1 
A    8
 C5 
A    9
 O2 
A   10
 C6 
A   11
 C7 
A   12
 C8 
A   13
 N2 
A   14
 N3 
A   15
 C9 
A   16
 C10
A   17
 H1 
A   18
 H2 
A   19
 H3 
A   20
 H4 
A   21
 H5 
A   22
 H6 
A   23
 H7 
A   24
 H8 
A   25
 H9 
A   26
 H10
A   27
 H11
A   28
 H12
A   29
 H13
A   30
 H14
A   31
 H15
A   32
 H16
A   33
 H17
M  END
>  <ref_pdb>  (99) 
x0147_0A

>  <ref_mols>  (99) 
x1919_0AS11,x1537_0A

>  <original SMILES>  (99) 
[H]c1c(C([H])([H])C(=O)N=S(=O)(C([H])([H])C([H])([H])[H])C([H])([H])C([H])([H])[H])c(C([H])([H])[H])nn1[H]

>  <index>  (99) 
10333

>  <∆∆G>  (99) 
-8.159746

>  <comRMSD>  (99) 
0.447122

>  <N_constrained_atoms>  (99) 
13.0

>  <N_unconstrained_atoms>  (99) 
3.0

>  <LE>  (99) 
0.509984

>  <percent_hybrid>  (99) 
47.0

>  <max_hit_Tanimoto>  (99) 
0.053488

>  <largest_ring>  (99) 
5

>  <N_interactions_kept>  (99) 
1.0

>  <N_interactions_lost>  (99) 
1.0

>  <interaction_uniqueness_metric>  (99) 
0.038332

>  <N_HA>  (99) 
16

>  <N_rotatable_bonds>  (99) 
7

>  <N_interactions>  (99) 
3

>  <N_PAINS>  (99) 
0

>  <UFF_Gibbs>  (99) 
66.583426

>  <strain_per_HA>  (99) 
4.161438

>  <ad_hoc_penalty>  (99) 
-27.207423

>  <cluster>  (99) 
4829

>  <ranked>  (99) 
113.0

>  <merger_rank>  (99) 
1

>  <hydroph_interaction:LEU:127>  (99) 
0

>  <hbond:GLY:128>  (99) 
0

>  <hydroph_interaction:ALA:144>  (99) 
1

>  <hbond:GLY:164>  (99) 
2

>  <hbond:HIS:40>  (99) 
0

>  <pistack:HIS:40>  (99) 
0

>  <hydroph_interaction:LEU:125>  (99) 
0

>  <hydroph_interaction:PHE:170>  (99) 
0

>  <hydroph_interaction:HIS:40>  (99) 
0

>  <pication:HIS:40>  (99) 
0

>  <hbond:THR:142>  (99) 
0

>  <hbond:HIS:161>  (99) 
0

>  <hbond:GLY:166>  (99) 
0

>  <hbond:VAL:162>  (99) 
0

>  <hydroph_interaction:ASN:165>  (99) 
0

>  <hbond:ASN:126>  (99) 
0

>  <hbond:ARG:143>  (99) 
0

>  <hbond:GLU:71>  (99) 
0

>  <saltbridge:HIS:161>  (99) 
0

>  <hbond:ALA:144>  (99) 
0

>  <hbond:GLY:145>  (99) 
0

>  <hbond:GLN:146>  (99) 
0

>  <hbond:CYS:147>  (99) 
0

>  <halogenbond:ASN:126>  (99) 
0

>  <saltbridge:HIS:40>  (99) 
0

>  <hbond:LEU:127>  (99) 
0

>  <hbond:THR:130>  (99) 
0

>  <hydroph_interaction:GLU:71>  (99) 
0

>  <hydroph_interaction:THR:130>  (99) 
0

>  <saltbridge:ARG:143>  (99) 
0

>  <saltbridge:GLU:71>  (99) 
0

>  <hbond:GLY:129>  (99) 
0

>  <halogenbond:CYS:147>  (99) 
0

>  <hydroph_interaction:THR:39>  (99) 
0

>  <hbond:ASN:69>  (99) 
0

>  <hydroph_interaction:THR:132>  (99) 
0

>  <hbond:TYR:122>  (99) 
0

>  <hydroph_interaction:PHE:109>  (99) 
0

>  <hydroph_interaction:PHE:140>  (99) 
0

>  <hbond:PRO:141>  (99) 
0

$$$$
Z5531808363-x0130-0AS3
     RDKit          3D

 37 37  0  0  0  0  0  0  0  0999 V2000
   -6.3930   -4.9320   -1.1130 C   0  0  0  0  0  0  0  0  0  0  0  0
   -7.3260   -5.7590   -1.9300 C   0  0  0  0  0  0  0  0  0  0  0  0
   -6.9780   -5.5260   -3.6640 S   0  0  0  0  0  6  0  0  0  0  0  0
   -8.1570   -5.9730   -4.3780 O   0  0  0  0  0  0  0  0  0  0  0  0
   -6.4290   -4.1850   -3.8220 O   0  0  0  0  0  0  0  0  0  0  0  0
   -5.8080   -6.7100   -3.9430 N   0  0  0  0  0  0  0  0  0  0  0  0
   -5.9250   -8.0180   -3.2750 C   0  0  0  0  0  0  0  0  0  0  0  0
   -5.1960   -8.0520   -1.9040 C   0  0  0  0  0  0  0  0  0  0  0  0
   -5.8870   -8.7660   -0.7530 C   0  0  0  0  0  0  0  0  0  0  0  0
   -5.2600   -8.8460    0.6220 C   0  0  0  0  0  0  0  0  0  0  0  0
   -3.9160   -8.1890    0.8080 C   0  0  0  0  0  0  0  0  0  0  0  0
   -3.2010   -8.1720    2.0390 C   0  0  0  0  0  0  0  0  0  0  0  0
   -4.0410   -7.9990    3.1740 O   0  0  0  0  0  0  0  0  0  0  0  0
   -1.7560   -8.3220    2.1060 N   0  0  0  0  0  0  0  0  0  0  0  0
   -1.2060   -9.6490    2.1620 C   0  0  0  0  0  0  0  0  0  0  0  0
   -0.4030   -9.8470    3.2780 C   0  0  0  0  0  0  0  0  0  0  0  0
    0.2300  -11.5570    3.2430 S   0  0  0  0  0  0  0  0  0  0  0  0
   -3.3290   -7.5510   -0.2920 C   0  0  0  0  0  0  0  0  0  0  0  0
   -3.9560   -7.4700   -1.6680 C   0  0  0  0  0  0  0  0  0  0  0  0
   -5.9890   -5.5460   -0.3030 H   0  0  0  0  0  0  0  0  0  0  0  0
   -5.5890   -4.5900   -1.7580 H   0  0  0  0  0  0  0  0  0  0  0  0
   -6.9020   -4.0690   -0.6910 H   0  0  0  0  0  0  0  0  0  0  0  0
   -7.2520   -6.8230   -1.6890 H   0  0  0  0  0  0  0  0  0  0  0  0
   -8.3540   -5.4350   -1.7400 H   0  0  0  0  0  0  0  0  0  0  0  0
   -4.8700   -6.3820   -4.2190 H   0  0  0  0  0  0  0  0  0  0  0  0
   -5.5220   -8.7990   -3.9320 H   0  0  0  0  0  0  0  0  0  0  0  0
   -6.9790   -8.2700   -3.1210 H   0  0  0  0  0  0  0  0  0  0  0  0
   -6.8630   -9.2410   -0.8900 H   0  0  0  0  0  0  0  0  0  0  0  0
   -5.7620   -9.3600    1.4530 H   0  0  0  0  0  0  0  0  0  0  0  0
   -1.1660   -7.6390    1.5980 H   0  0  0  0  0  0  0  0  0  0  0  0
   -2.0450  -10.3330    2.0560 H   0  0  0  0  0  0  0  0  0  0  0  0
   -0.5720   -9.7530    1.2750 H   0  0  0  0  0  0  0  0  0  0  0  0
    0.4460   -9.2030    3.4390 H   0  0  0  0  0  0  0  0  0  0  0  0
   -1.0280   -9.7630    4.1730 H   0  0  0  0  0  0  0  0  0  0  0  0
   -0.5810  -12.0350    4.1990 H   0  0  0  0  0  0  0  0  0  0  0  0
   -2.3610   -7.0570   -0.2370 H   0  0  0  0  0  0  0  0  0  0  0  0
   -3.4240   -6.9510   -2.4700 H   0  0  0  0  0  0  0  0  0  0  0  0
  1  2  1  0
  2  3  1  0
  3  4  2  0
  3  5  2  0
  3  6  1  0
  6  7  1  0
  7  8  1  0
  8  9  2  0
  9 10  1  0
 10 11  2  0
 11 12  1  0
 12 13  2  0
 12 14  1  0
 14 15  1  0
 15 16  1  0
 16 17  1  0
 11 18  1  0
 18 19  2  0
 19  8  1  0
  1 20  1  0
  1 21  1  0
  1 22  1  0
  2 23  1  0
  2 24  1  0
  6 25  1  0
  7 26  1  0
  7 27  1  0
  9 28  1  0
 10 29  1  0
 14 30  1  0
 15 31  1  0
 15 32  1  0
 16 33  1  0
 16 34  1  0
 17 35  1  0
 18 36  1  0
 19 37  1  0
A    1
 C1 
A    2
 C2 
A    3
 S1 
A    4
 O1 
A    5
 O2 
A    6
 N1 
A    7
 C3 
A    8
 C4 
A    9
 C5 
A   10
 C6 
A   11
 C7 
A   12
 C8 
A   13
 O3 
A   14
 N2 
A   15
 C9 
A   16
 C10
A   17
 S2 
A   18
 C11
A   19
 C12
A   20
 H1 
A   21
 H2 
A   22
 H3 
A   23
 H4 
A   24
 H5 
A   25
 H6 
A   26
 H7 
A   27
 H8 
A   28
 H9 
A   29
 H10
A   30
 H11
A   31
 H12
A   32
 H13
A   33
 H14
A   34
 H15
A   35
 H16
A   36
 H17
A   37
 H18
M  END
>  <ref_pdb>  (100) 
x0147_0A

>  <ref_mols>  (100) 
x0130_0AS3,x1140_0A

>  <original SMILES>  (100) 
[H]SC([H])([H])C([H])([H])N([H])C(=O)c1c([H])c([H])c(C([H])([H])N([H])S(=O)(=O)C([H])([H])C([H])([H])[H])c([H])c1[H]

>  <index>  (100) 
2059

>  <∆∆G>  (100) 
-9.308255

>  <comRMSD>  (100) 
0.803004

>  <N_constrained_atoms>  (100) 
21.0

>  <N_unconstrained_atoms>  (100) 
1.0

>  <LE>  (100) 
0.423103

>  <percent_hybrid>  (100) 
32.0

>  <max_hit_Tanimoto>  (100) 
0.36773

>  <largest_ring>  (100) 
6

>  <N_interactions_kept>  (100) 
2.5

>  <N_interactions_lost>  (100) 
4.0

>  <interaction_uniqueness_metric>  (100) 
0.16512

>  <N_HA>  (100) 
19

>  <N_rotatable_bonds>  (100) 
9

>  <N_interactions>  (100) 
8

>  <N_PAINS>  (100) 
0

>  <UFF_Gibbs>  (100) 
120.886343

>  <strain_per_HA>  (100) 
6.362406

>  <ad_hoc_penalty>  (100) 
-27.099011

>  <cluster>  (100) 
439

>  <ranked>  (100) 
114.0

>  <merger_rank>  (100) 
2

>  <hydroph_interaction:LEU:127>  (100) 
2

>  <hbond:GLY:128>  (100) 
0

>  <hydroph_interaction:ALA:144>  (100) 
0

>  <hbond:GLY:164>  (100) 
1

>  <hbond:HIS:40>  (100) 
0

>  <pistack:HIS:40>  (100) 
1

>  <hydroph_interaction:LEU:125>  (100) 
0

>  <hydroph_interaction:PHE:170>  (100) 
0

>  <hydroph_interaction:HIS:40>  (100) 
1

>  <pication:HIS:40>  (100) 
0

>  <hbond:THR:142>  (100) 
0

>  <hbond:HIS:161>  (100) 
0

>  <hbond:GLY:166>  (100) 
0

>  <hbond:VAL:162>  (100) 
1

>  <hydroph_interaction:ASN:165>  (100) 
0

>  <hbond:ASN:126>  (100) 
0

>  <hbond:ARG:143>  (100) 
0

>  <hbond:GLU:71>  (100) 
1

>  <saltbridge:HIS:161>  (100) 
0

>  <hbond:ALA:144>  (100) 
0

>  <hbond:GLY:145>  (100) 
0

>  <hbond:GLN:146>  (100) 
0

>  <hbond:CYS:147>  (100) 
0

>  <halogenbond:ASN:126>  (100) 
0

>  <saltbridge:HIS:40>  (100) 
0

>  <hbond:LEU:127>  (100) 
0

>  <hbond:THR:130>  (100) 
1

>  <hydroph_interaction:GLU:71>  (100) 
0

>  <hydroph_interaction:THR:130>  (100) 
0

>  <saltbridge:ARG:143>  (100) 
0

>  <saltbridge:GLU:71>  (100) 
0

>  <hbond:GLY:129>  (100) 
0

>  <halogenbond:CYS:147>  (100) 
0

>  <hydroph_interaction:THR:39>  (100) 
0

>  <hbond:ASN:69>  (100) 
0

>  <hydroph_interaction:THR:132>  (100) 
0

>  <hbond:TYR:122>  (100) 
0

>  <hydroph_interaction:PHE:109>  (100) 
0

>  <hydroph_interaction:PHE:140>  (100) 
0

>  <hbond:PRO:141>  (100) 
0

$$$$
Z4997375633-x1919-0AS4
     RDKit          3D

 32 32  0  0  0  0  0  0  0  0999 V2000
   -4.7210    5.1280   -1.8000 C   0  0  0  0  0  0  0  0  0  0  0  0
   -5.4310    4.6990   -0.5430 C   0  0  0  0  0  0  0  0  0  0  0  0
   -5.8470    5.4370    0.3570 O   0  0  0  0  0  0  0  0  0  0  0  0
   -5.6920    3.1840   -0.3190 C   0  0  0  0  0  0  0  0  0  0  0  0
   -5.9690    2.4780   -1.6740 C   0  0  0  0  0  0  0  0  0  0  0  0
   -5.7130    0.9370   -1.7180 C   0  0  0  0  0  0  0  0  0  0  0  0
   -6.0870    0.2330   -0.3980 C   0  0  0  0  0  0  0  0  0  0  0  0
   -7.1480   -0.8400   -0.7050 C   0  0  0  0  0  0  0  0  0  0  0  0
   -8.3420   -0.6260   -0.8570 O   0  0  0  0  0  0  0  0  0  0  0  0
   -6.5640   -2.0690   -0.7780 O   0  0  0  0  0  0  0  0  0  0  0  0
   -7.4830   -3.0840   -1.2260 C   0  0  0  0  0  0  0  0  0  0  0  0
   -6.8270   -4.3600   -1.7810 C   0  0  0  0  0  0  0  0  0  0  0  0
   -7.0700   -4.7770   -3.1780 C   0  0  0  0  0  0  0  0  0  0  0  0
   -6.2460   -6.2190   -3.5680 S   0  0  0  0  0  0  0  0  0  0  0  0
   -5.5710   -6.3410   -2.0010 C   0  0  0  0  0  0  0  0  0  0  0  0
   -5.9620   -5.2840   -1.1480 C   0  0  0  0  0  0  0  0  0  0  0  0
   -4.4730    6.1910   -1.7290 H   0  0  0  0  0  0  0  0  0  0  0  0
   -3.7940    4.5700   -1.9530 H   0  0  0  0  0  0  0  0  0  0  0  0
   -5.3780    4.9620   -2.6570 H   0  0  0  0  0  0  0  0  0  0  0  0
   -6.5590    3.0740    0.3390 H   0  0  0  0  0  0  0  0  0  0  0  0
   -4.8730    2.6870    0.2060 H   0  0  0  0  0  0  0  0  0  0  0  0
   -5.3520    2.9650   -2.4350 H   0  0  0  0  0  0  0  0  0  0  0  0
   -6.9940    2.7240   -1.9510 H   0  0  0  0  0  0  0  0  0  0  0  0
   -6.3320    0.5300   -2.5280 H   0  0  0  0  0  0  0  0  0  0  0  0
   -4.6890    0.7110   -2.0070 H   0  0  0  0  0  0  0  0  0  0  0  0
   -5.1400   -0.0550    0.0680 H   0  0  0  0  0  0  0  0  0  0  0  0
   -6.5320    0.9620    0.2910 H   0  0  0  0  0  0  0  0  0  0  0  0
   -8.1550   -3.3840   -0.4160 H   0  0  0  0  0  0  0  0  0  0  0  0
   -8.1200   -2.6700   -2.0140 H   0  0  0  0  0  0  0  0  0  0  0  0
   -7.6810   -4.2820   -3.9240 H   0  0  0  0  0  0  0  0  0  0  0  0
   -4.9140   -7.1680   -1.7600 H   0  0  0  0  0  0  0  0  0  0  0  0
   -5.6270   -5.2190   -0.1300 H   0  0  0  0  0  0  0  0  0  0  0  0
  1  2  1  0
  2  3  2  0
  2  4  1  0
  4  5  1  0
  5  6  1  0
  6  7  1  0
  7  8  1  0
  8  9  2  0
  8 10  1  0
 10 11  1  0
 11 12  1  0
 12 13  2  0
 13 14  1  0
 14 15  1  0
 15 16  2  0
 16 12  1  0
  1 17  1  0
  1 18  1  0
  1 19  1  0
  4 20  1  0
  4 21  1  0
  5 22  1  0
  5 23  1  0
  6 24  1  0
  6 25  1  0
  7 26  1  0
  7 27  1  0
 11 28  1  0
 11 29  1  0
 13 30  1  0
 15 31  1  0
 16 32  1  0
A    1
 C1 
A    2
 C2 
A    3
 O1 
A    4
 C3 
A    5
 C4 
A    6
 C5 
A    7
 C6 
A    8
 C7 
A    9
 O2 
A   10
 O3 
A   11
 C8 
A   12
 C9 
A   13
 C10
A   14
 S1 
A   15
 C11
A   16
 C12
A   17
 H1 
A   18
 H2 
A   19
 H3 
A   20
 H4 
A   21
 H5 
A   22
 H6 
A   23
 H7 
A   24
 H8 
A   25
 H9 
A   26
 H10
A   27
 H11
A   28
 H12
A   29
 H13
A   30
 H14
A   31
 H15
A   32
 H16
M  END
>  <ref_pdb>  (101) 
x0147_0A

>  <ref_mols>  (101) 
x1919_0AS4,x1285_0BS1

>  <original SMILES>  (101) 
[H]c1sc([H])c(C([H])([H])OC(=O)C([H])([H])C([H])([H])C([H])([H])C([H])([H])C(=O)C([H])([H])[H])c1[H]

>  <index>  (101) 
15785

>  <∆∆G>  (101) 
-6.243591

>  <comRMSD>  (101) 
0.894258

>  <N_constrained_atoms>  (101) 
14.0

>  <N_unconstrained_atoms>  (101) 
5.0

>  <LE>  (101) 
0.32861

>  <percent_hybrid>  (101) 
36.0

>  <max_hit_Tanimoto>  (101) 
0.207843

>  <largest_ring>  (101) 
5

>  <N_interactions_kept>  (101) 
2.0

>  <N_interactions_lost>  (101) 
1.5

>  <interaction_uniqueness_metric>  (101) 
0.124443

>  <N_HA>  (101) 
16

>  <N_rotatable_bonds>  (101) 
8

>  <N_interactions>  (101) 
6

>  <N_PAINS>  (101) 
0

>  <UFF_Gibbs>  (101) 
58.366641

>  <strain_per_HA>  (101) 
3.647892

>  <ad_hoc_penalty>  (101) 
-27.016762

>  <cluster>  (101) 
1784

>  <ranked>  (101) 
115.0

>  <merger_rank>  (101) 
2

>  <hydroph_interaction:LEU:127>  (101) 
2

>  <hbond:GLY:128>  (101) 
0

>  <hydroph_interaction:ALA:144>  (101) 
0

>  <hbond:GLY:164>  (101) 
0

>  <hbond:HIS:40>  (101) 
0

>  <pistack:HIS:40>  (101) 
0

>  <hydroph_interaction:LEU:125>  (101) 
1

>  <hydroph_interaction:PHE:170>  (101) 
2

>  <hydroph_interaction:HIS:40>  (101) 
0

>  <pication:HIS:40>  (101) 
0

>  <hbond:THR:142>  (101) 
0

>  <hbond:HIS:161>  (101) 
0

>  <hbond:GLY:166>  (101) 
0

>  <hbond:VAL:162>  (101) 
0

>  <hydroph_interaction:ASN:165>  (101) 
1

>  <hbond:ASN:126>  (101) 
0

>  <hbond:ARG:143>  (101) 
0

>  <hbond:GLU:71>  (101) 
0

>  <saltbridge:HIS:161>  (101) 
0

>  <hbond:ALA:144>  (101) 
0

>  <hbond:GLY:145>  (101) 
0

>  <hbond:GLN:146>  (101) 
0

>  <hbond:CYS:147>  (101) 
0

>  <halogenbond:ASN:126>  (101) 
0

>  <saltbridge:HIS:40>  (101) 
0

>  <hbond:LEU:127>  (101) 
0

>  <hbond:THR:130>  (101) 
0

>  <hydroph_interaction:GLU:71>  (101) 
0

>  <hydroph_interaction:THR:130>  (101) 
0

>  <saltbridge:ARG:143>  (101) 
0

>  <saltbridge:GLU:71>  (101) 
0

>  <hbond:GLY:129>  (101) 
0

>  <halogenbond:CYS:147>  (101) 
0

>  <hydroph_interaction:THR:39>  (101) 
0

>  <hbond:ASN:69>  (101) 
0

>  <hydroph_interaction:THR:132>  (101) 
0

>  <hbond:TYR:122>  (101) 
0

>  <hydroph_interaction:PHE:109>  (101) 
0

>  <hydroph_interaction:PHE:140>  (101) 
0

>  <hbond:PRO:141>  (101) 
0

$$$$
Z2706821555-x1084-0A
     RDKit          3D

 41 42  0  0  0  0  0  0  0  0999 V2000
   -2.7720   -7.6640    2.5550 C   0  0  0  0  0  0  0  0  0  0  0  0
   -3.4440   -8.6170    1.8290 N   0  0  0  0  0  0  0  0  0  0  0  0
   -3.9650   -8.2160    0.5590 C   0  0  0  0  0  0  0  0  0  0  0  0
   -2.9080   -7.9410   -0.4850 C   0  0  0  0  0  0  0  0  0  0  0  0
   -3.3350   -7.4980   -1.8670 C   0  0  0  0  0  0  0  0  0  0  0  0
   -4.8280   -7.3440   -2.1120 C   0  0  0  0  0  0  0  0  0  0  0  0
   -5.3620   -6.9440   -3.2340 N   0  0  0  0  0  0  0  0  0  0  0  0
   -6.5720   -6.3400   -3.2930 C   0  0  0  0  0  0  0  0  0  0  0  0
   -7.3680   -6.1910   -2.3700 O   0  0  0  0  0  0  0  0  0  0  0  0
   -6.8770   -5.8860   -4.5600 N   0  0  0  0  0  0  0  0  0  0  0  0
   -7.2280   -6.8280   -5.6350 C   0  0  0  0  0  0  0  0  0  0  0  0
   -8.4290   -6.5250   -6.2770 C   0  0  0  0  0  0  0  0  0  0  0  0
   -8.2980   -5.4300   -7.1270 C   0  0  0  0  0  0  0  0  0  0  0  0
   -7.1800   -5.2960   -7.9760 C   0  0  0  0  0  0  0  0  0  0  0  0
   -6.9450   -4.2880   -8.8050 N   0  0  0  0  0  0  0  0  0  0  0  0
   -7.9210   -3.3480   -8.7610 C   0  0  0  0  0  0  0  0  0  0  0  0
   -9.0340   -3.3970   -7.9880 C   0  0  0  0  0  0  0  0  0  0  0  0
   -9.2680   -4.4320   -7.1520 C   0  0  0  0  0  0  0  0  0  0  0  0
  -10.5080   -4.4470   -6.3260 C   0  0  0  0  0  0  0  0  0  0  0  0
   -5.7040   -7.6410   -1.0610 C   0  0  0  0  0  0  0  0  0  0  0  0
   -5.2990   -8.0550    0.2050 C   0  0  0  0  0  0  0  0  0  0  0  0
   -3.4430   -6.8450    2.8300 H   0  0  0  0  0  0  0  0  0  0  0  0
   -2.3520   -8.0900    3.4710 H   0  0  0  0  0  0  0  0  0  0  0  0
   -1.9680   -7.2510    1.9370 H   0  0  0  0  0  0  0  0  0  0  0  0
   -4.1450   -9.1000    2.3850 H   0  0  0  0  0  0  0  0  0  0  0  0
   -1.8450   -8.0560   -0.2610 H   0  0  0  0  0  0  0  0  0  0  0  0
   -2.5340   -7.3160   -2.5850 H   0  0  0  0  0  0  0  0  0  0  0  0
   -4.6880   -6.6780   -3.9560 H   0  0  0  0  0  0  0  0  0  0  0  0
   -7.3190   -4.9780   -4.5980 H   0  0  0  0  0  0  0  0  0  0  0  0
   -6.4040   -6.8510   -6.3530 H   0  0  0  0  0  0  0  0  0  0  0  0
   -7.2940   -7.8210   -5.1790 H   0  0  0  0  0  0  0  0  0  0  0  0
   -8.6660   -7.4710   -6.7550 H   0  0  0  0  0  0  0  0  0  0  0  0
   -9.2810   -6.4090   -5.6190 H   0  0  0  0  0  0  0  0  0  0  0  0
   -6.4070   -6.0580   -7.9910 H   0  0  0  0  0  0  0  0  0  0  0  0
   -7.8190   -2.5000   -9.3740 H   0  0  0  0  0  0  0  0  0  0  0  0
   -9.7560   -2.5750   -8.0470 H   0  0  0  0  0  0  0  0  0  0  0  0
  -11.0370   -5.3860   -6.5080 H   0  0  0  0  0  0  0  0  0  0  0  0
  -11.1560   -3.6050   -6.5910 H   0  0  0  0  0  0  0  0  0  0  0  0
  -10.2480   -4.3800   -5.2620 H   0  0  0  0  0  0  0  0  0  0  0  0
   -6.7940   -7.5650   -1.1500 H   0  0  0  0  0  0  0  0  0  0  0  0
   -6.1290   -8.2370    0.8960 H   0  0  0  0  0  0  0  0  0  0  0  0
  1  2  1  0
  2  3  1  0
  3  4  2  0
  4  5  1  0
  5  6  2  0
  6  7  1  0
  7  8  1  0
  8  9  2  0
  8 10  1  0
 10 11  1  0
 11 12  1  0
 12 13  1  0
 13 14  2  0
 14 15  1  0
 15 16  2  0
 16 17  1  0
 17 18  2  0
 18 19  1  0
  6 20  1  0
 20 21  2  0
 21  3  1  0
 18 13  1  0
  1 22  1  0
  1 23  1  0
  1 24  1  0
  2 25  1  0
  4 26  1  0
  5 27  1  0
  7 28  1  0
 10 29  1  0
 11 30  1  0
 11 31  1  0
 12 32  1  0
 12 33  1  0
 14 34  1  0
 16 35  1  0
 17 36  1  0
 19 37  1  0
 19 38  1  0
 19 39  1  0
 20 40  1  0
 21 41  1  0
A    1
 C1 
A    2
 N1 
A    3
 C2 
A    4
 C3 
A    5
 C4 
A    6
 C5 
A    7
 N2 
A    8
 C6 
A    9
 O1 
A   10
 N3 
A   11
 C7 
A   12
 C8 
A   13
 C9 
A   14
 C10
A   15
 N4 
A   16
 C11
A   17
 C12
A   18
 C13
A   19
 C14
A   20
 C15
A   21
 C16
A   22
 H1 
A   23
 H2 
A   24
 H3 
A   25
 H4 
A   26
 H5 
A   27
 H6 
A   28
 H7 
A   29
 H8 
A   30
 H9 
A   31
 H10
A   32
 H11
A   33
 H12
A   34
 H13
A   35
 H14
A   36
 H15
A   37
 H16
A   38
 H17
A   39
 H18
A   40
 H19
A   41
 H20
M  END
>  <ref_pdb>  (102) 
x0147_0A

>  <ref_mols>  (102) 
x1084_0A,x0980_0BS1

>  <original SMILES>  (102) 
[H]c1nc([H])c(C([H])([H])C([H])([H])N([H])C(=O)N([H])c2c([H])c([H])c(N([H])C([H])([H])[H])c([H])c2[H])c(C([H])([H])[H])c1[H]

>  <index>  (102) 
4027

>  <∆∆G>  (102) 
-7.616472

>  <comRMSD>  (102) 
0.683312

>  <N_constrained_atoms>  (102) 
21.0

>  <N_unconstrained_atoms>  (102) 
2.0

>  <LE>  (102) 
0.331151

>  <percent_hybrid>  (102) 
39.0

>  <max_hit_Tanimoto>  (102) 
0.168519

>  <largest_ring>  (102) 
6

>  <N_interactions_kept>  (102) 
1.0

>  <N_interactions_lost>  (102) 
2.0

>  <interaction_uniqueness_metric>  (102) 
0.086121

>  <N_HA>  (102) 
21

>  <N_rotatable_bonds>  (102) 
7

>  <N_interactions>  (102) 
5

>  <N_PAINS>  (102) 
0

>  <UFF_Gibbs>  (102) 
148.066542

>  <strain_per_HA>  (102) 
7.050754

>  <ad_hoc_penalty>  (102) 
-26.922547

>  <cluster>  (102) 
83

>  <ranked>  (102) 
116.0

>  <merger_rank>  (102) 
2

>  <hydroph_interaction:LEU:127>  (102) 
1

>  <hbond:GLY:128>  (102) 
0

>  <hydroph_interaction:ALA:144>  (102) 
1

>  <hbond:GLY:164>  (102) 
1

>  <hbond:HIS:40>  (102) 
0

>  <pistack:HIS:40>  (102) 
0

>  <hydroph_interaction:LEU:125>  (102) 
0

>  <hydroph_interaction:PHE:170>  (102) 
0

>  <hydroph_interaction:HIS:40>  (102) 
1

>  <pication:HIS:40>  (102) 
0

>  <hbond:THR:142>  (102) 
0

>  <hbond:HIS:161>  (102) 
0

>  <hbond:GLY:166>  (102) 
0

>  <hbond:VAL:162>  (102) 
1

>  <hydroph_interaction:ASN:165>  (102) 
0

>  <hbond:ASN:126>  (102) 
0

>  <hbond:ARG:143>  (102) 
0

>  <hbond:GLU:71>  (102) 
0

>  <saltbridge:HIS:161>  (102) 
0

>  <hbond:ALA:144>  (102) 
0

>  <hbond:GLY:145>  (102) 
0

>  <hbond:GLN:146>  (102) 
0

>  <hbond:CYS:147>  (102) 
0

>  <halogenbond:ASN:126>  (102) 
0

>  <saltbridge:HIS:40>  (102) 
0

>  <hbond:LEU:127>  (102) 
0

>  <hbond:THR:130>  (102) 
0

>  <hydroph_interaction:GLU:71>  (102) 
0

>  <hydroph_interaction:THR:130>  (102) 
0

>  <saltbridge:ARG:143>  (102) 
0

>  <saltbridge:GLU:71>  (102) 
0

>  <hbond:GLY:129>  (102) 
0

>  <halogenbond:CYS:147>  (102) 
0

>  <hydroph_interaction:THR:39>  (102) 
0

>  <hbond:ASN:69>  (102) 
0

>  <hydroph_interaction:THR:132>  (102) 
0

>  <hbond:TYR:122>  (102) 
0

>  <hydroph_interaction:PHE:109>  (102) 
0

>  <hydroph_interaction:PHE:140>  (102) 
0

>  <hbond:PRO:141>  (102) 
0

$$$$
Z2518710911-x1919-0AS12
     RDKit          3D

 53 54  0  0  0  0  0  0  0  0999 V2000
   -5.8610    0.1240   -0.7520 C   0  0  0  0  0  0  0  0  0  0  0  0
   -7.0150   -0.8440   -0.7390 C   0  0  0  0  0  0  0  0  0  0  0  0
   -6.6440   -2.1250   -1.4850 C   0  0  0  0  0  0  0  0  0  0  0  0
   -7.6600   -3.2870   -1.3650 C   0  0  0  0  0  0  0  0  0  0  0  0
   -6.9600   -4.5480   -1.5890 N   0  0  0  0  0  0  0  0  0  0  0  0
   -7.1960   -5.2430   -2.7440 C   0  0  0  0  0  0  0  0  0  0  0  0
   -7.4280   -4.7020   -3.8590 N   0  0  0  0  0  0  0  0  0  0  0  0
   -7.6820   -5.6990   -4.8920 C   0  0  0  0  0  0  0  0  0  0  0  0
   -8.7870   -5.2270   -5.7800 C   0  0  0  0  0  0  0  0  0  0  0  0
   -8.2100   -4.8800   -7.0370 N   0  0  0  0  0  0  0  0  0  0  0  0
   -7.3060   -5.6660   -7.6930 C   0  0  0  0  0  0  0  0  0  0  0  0
   -7.0040   -4.9510   -8.8550 C   0  0  0  0  0  0  0  0  0  0  0  0
   -7.7000   -3.7860   -8.8770 N   0  0  0  0  0  0  0  0  0  0  0  0
   -8.4330   -3.7550   -7.7890 C   0  0  0  0  0  0  0  0  0  0  0  0
   -9.3640   -2.6610   -7.4220 C   0  0  0  0  0  0  0  0  0  0  0  0
   -7.1680   -6.5840   -2.5290 N   0  0  0  0  0  0  0  0  0  0  0  0
   -6.0430   -7.3940   -2.9880 C   0  0  0  0  0  0  0  0  0  0  0  0
   -5.3380   -7.8320   -1.7450 C   0  0  0  0  0  0  0  0  0  0  0  0
   -3.8940   -7.3890   -1.5110 C   0  0  0  0  0  0  0  0  0  0  0  0
   -3.2550   -7.8570   -0.2160 C   0  0  0  0  0  0  0  0  0  0  0  0
   -4.1250   -8.7110    0.6900 C   0  0  0  0  0  0  0  0  0  0  0  0
   -3.4800   -9.1620    1.9670 C   0  0  0  0  0  0  0  0  0  0  0  0
   -5.4310   -9.0570    0.3620 C   0  0  0  0  0  0  0  0  0  0  0  0
   -6.0190   -8.6280   -0.8230 C   0  0  0  0  0  0  0  0  0  0  0  0
   -5.3380    0.1550    0.2090 H   0  0  0  0  0  0  0  0  0  0  0  0
   -6.2420    1.1260   -0.9600 H   0  0  0  0  0  0  0  0  0  0  0  0
   -5.1540   -0.1660   -1.5340 H   0  0  0  0  0  0  0  0  0  0  0  0
   -7.8790   -0.3720   -1.2170 H   0  0  0  0  0  0  0  0  0  0  0  0
   -7.2920   -1.0710    0.2940 H   0  0  0  0  0  0  0  0  0  0  0  0
   -5.6910   -2.4750   -1.1260 H   0  0  0  0  0  0  0  0  0  0  0  0
   -6.4920   -1.8890   -2.5450 H   0  0  0  0  0  0  0  0  0  0  0  0
   -8.4560   -3.1550   -2.1090 H   0  0  0  0  0  0  0  0  0  0  0  0
   -8.1220   -3.2780   -0.3770 H   0  0  0  0  0  0  0  0  0  0  0  0
   -6.9750   -5.1450   -0.7660 H   0  0  0  0  0  0  0  0  0  0  0  0
   -6.7960   -5.9060   -5.4970 H   0  0  0  0  0  0  0  0  0  0  0  0
   -7.9870   -6.6390   -4.4210 H   0  0  0  0  0  0  0  0  0  0  0  0
   -9.5350   -6.0140   -5.9480 H   0  0  0  0  0  0  0  0  0  0  0  0
   -9.3050   -4.3540   -5.3680 H   0  0  0  0  0  0  0  0  0  0  0  0
   -6.9630   -6.6170   -7.3100 H   0  0  0  0  0  0  0  0  0  0  0  0
   -6.3370   -5.2240   -9.6490 H   0  0  0  0  0  0  0  0  0  0  0  0
  -10.3880   -2.9110   -7.7090 H   0  0  0  0  0  0  0  0  0  0  0  0
   -9.3310   -2.4540   -6.3500 H   0  0  0  0  0  0  0  0  0  0  0  0
   -9.0850   -1.7470   -7.9530 H   0  0  0  0  0  0  0  0  0  0  0  0
   -8.0480   -7.0170   -2.7830 H   0  0  0  0  0  0  0  0  0  0  0  0
   -6.3540   -8.2540   -3.5890 H   0  0  0  0  0  0  0  0  0  0  0  0
   -5.3730   -6.7890   -3.6120 H   0  0  0  0  0  0  0  0  0  0  0  0
   -3.3650   -6.7800   -2.2240 H   0  0  0  0  0  0  0  0  0  0  0  0
   -2.2280   -7.5880    0.0370 H   0  0  0  0  0  0  0  0  0  0  0  0
   -2.3970   -8.9870    1.9490 H   0  0  0  0  0  0  0  0  0  0  0  0
   -3.8900   -8.6090    2.8170 H   0  0  0  0  0  0  0  0  0  0  0  0
   -3.6490  -10.2340    2.1140 H   0  0  0  0  0  0  0  0  0  0  0  0
   -6.0140   -9.6760    1.0420 H   0  0  0  0  0  0  0  0  0  0  0  0
   -7.0450   -8.9240   -1.0310 H   0  0  0  0  0  0  0  0  0  0  0  0
  1  2  1  0
  2  3  1  0
  3  4  1  0
  4  5  1  0
  5  6  1  0
  6  7  2  3
  7  8  1  0
  8  9  1  0
  9 10  1  0
 10 11  1  0
 11 12  2  0
 12 13  1  0
 13 14  2  0
 14 15  1  0
  6 16  1  0
 16 17  1  0
 17 18  1  0
 18 19  2  0
 19 20  1  0
 20 21  2  0
 21 22  1  0
 21 23  1  0
 23 24  2  0
 14 10  1  0
 24 18  1  0
  1 25  1  0
  1 26  1  0
  1 27  1  0
  2 28  1  0
  2 29  1  0
  3 30  1  0
  3 31  1  0
  4 32  1  0
  4 33  1  0
  5 34  1  0
  8 35  1  0
  8 36  1  0
  9 37  1  0
  9 38  1  0
 11 39  1  0
 12 40  1  0
 15 41  1  0
 15 42  1  0
 15 43  1  0
 16 44  1  0
 17 45  1  0
 17 46  1  0
 19 47  1  0
 20 48  1  0
 22 49  1  0
 22 50  1  0
 22 51  1  0
 23 52  1  0
 24 53  1  0
A    1
 C1 
A    2
 C2 
A    3
 C3 
A    4
 C4 
A    5
 N1 
A    6
 C5 
A    7
 N2 
A    8
 C6 
A    9
 C7 
A   10
 N3 
A   11
 C8 
A   12
 C9 
A   13
 N4 
A   14
 C10
A   15
 C11
A   16
 N5 
A   17
 C12
A   18
 C13
A   19
 C14
A   20
 C15
A   21
 C16
A   22
 C17
A   23
 C18
A   24
 C19
A   25
 H1 
A   26
 H2 
A   27
 H3 
A   28
 H4 
A   29
 H5 
A   30
 H6 
A   31
 H7 
A   32
 H8 
A   33
 H9 
A   34
 H10
A   35
 H11
A   36
 H12
A   37
 H13
A   38
 H14
A   39
 H15
A   40
 H16
A   41
 H17
A   42
 H18
A   43
 H19
A   44
 H20
A   45
 H21
A   46
 H22
A   47
 H23
A   48
 H24
A   49
 H25
A   50
 H26
A   51
 H27
A   52
 H28
A   53
 H29
M  END
>  <ref_pdb>  (103) 
x0147_0A

>  <ref_mols>  (103) 
x1919_0AS12,x1537_0A

>  <original SMILES>  (103) 
[H]c1nc(C([H])([H])[H])n(C([H])([H])C([H])([H])N=C(N([H])C([H])([H])c2c([H])c([H])c(C([H])([H])[H])c([H])c2[H])N([H])C([H])([H])C([H])([H])C([H])([H])C([H])([H])[H])c1[H]

>  <index>  (103) 
324

>  <∆∆G>  (103) 
-8.816039

>  <comRMSD>  (103) 
0.543277

>  <N_constrained_atoms>  (103) 
22.0

>  <N_unconstrained_atoms>  (103) 
3.0

>  <LE>  (103) 
0.352642

>  <percent_hybrid>  (103) 
28.0

>  <max_hit_Tanimoto>  (103) 
0.17053

>  <largest_ring>  (103) 
6

>  <N_interactions_kept>  (103) 
2.5

>  <N_interactions_lost>  (103) 
2.0

>  <interaction_uniqueness_metric>  (103) 
0.06071

>  <N_HA>  (103) 
24

>  <N_rotatable_bonds>  (103) 
11

>  <N_interactions>  (103) 
6

>  <N_PAINS>  (103) 
0

>  <UFF_Gibbs>  (103) 
139.488878

>  <strain_per_HA>  (103) 
5.812012

>  <ad_hoc_penalty>  (103) 
-26.902904

>  <cluster>  (103) 
7280

>  <ranked>  (103) 
117.0

>  <merger_rank>  (103) 
1

>  <hydroph_interaction:LEU:127>  (103) 
2

>  <hbond:GLY:128>  (103) 
0

>  <hydroph_interaction:ALA:144>  (103) 
0

>  <hbond:GLY:164>  (103) 
2

>  <hbond:HIS:40>  (103) 
0

>  <pistack:HIS:40>  (103) 
1

>  <hydroph_interaction:LEU:125>  (103) 
0

>  <hydroph_interaction:PHE:170>  (103) 
0

>  <hydroph_interaction:HIS:40>  (103) 
1

>  <pication:HIS:40>  (103) 
0

>  <hbond:THR:142>  (103) 
0

>  <hbond:HIS:161>  (103) 
0

>  <hbond:GLY:166>  (103) 
0

>  <hbond:VAL:162>  (103) 
0

>  <hydroph_interaction:ASN:165>  (103) 
0

>  <hbond:ASN:126>  (103) 
0

>  <hbond:ARG:143>  (103) 
0

>  <hbond:GLU:71>  (103) 
0

>  <saltbridge:HIS:161>  (103) 
0

>  <hbond:ALA:144>  (103) 
0

>  <hbond:GLY:145>  (103) 
0

>  <hbond:GLN:146>  (103) 
0

>  <hbond:CYS:147>  (103) 
0

>  <halogenbond:ASN:126>  (103) 
0

>  <saltbridge:HIS:40>  (103) 
0

>  <hbond:LEU:127>  (103) 
0

>  <hbond:THR:130>  (103) 
0

>  <hydroph_interaction:GLU:71>  (103) 
0

>  <hydroph_interaction:THR:130>  (103) 
0

>  <saltbridge:ARG:143>  (103) 
0

>  <saltbridge:GLU:71>  (103) 
0

>  <hbond:GLY:129>  (103) 
0

>  <halogenbond:CYS:147>  (103) 
0

>  <hydroph_interaction:THR:39>  (103) 
0

>  <hbond:ASN:69>  (103) 
0

>  <hydroph_interaction:THR:132>  (103) 
0

>  <hbond:TYR:122>  (103) 
0

>  <hydroph_interaction:PHE:109>  (103) 
0

>  <hydroph_interaction:PHE:140>  (103) 
0

>  <hbond:PRO:141>  (103) 
0

$$$$
PV-007068870009-x0771-0A
     RDKit          3D

 32 34  0  0  0  0  0  0  0  0999 V2000
  -10.8010   -1.9020  -16.2940 N   0  0  0  0  0  0  0  0  0  0  0  0
  -10.4740   -3.1420  -16.7840 C   0  0  0  0  0  0  0  0  0  0  0  0
   -9.3320   -3.8240  -16.2830 O   0  0  0  0  0  0  0  0  0  0  0  0
  -11.4210   -3.6400  -17.8790 C   0  0  0  0  0  0  0  0  0  0  0  0
  -12.1050   -2.4800  -18.5670 C   0  0  0  0  0  0  0  0  0  0  0  0
  -13.0590   -2.8760  -19.6550 C   0  0  0  0  0  0  0  0  0  0  0  0
  -13.2570   -4.3470  -19.9720 C   0  0  0  0  0  0  0  0  0  0  0  0
  -14.1070   -4.6990  -20.9390 F   0  0  0  0  0  0  0  0  0  0  0  0
  -12.5640   -5.3260  -19.2660 C   0  0  0  0  0  0  0  0  0  0  0  0
  -12.9050   -6.6200  -19.7300 C   0  0  0  0  0  0  0  0  0  0  0  0
  -13.9880   -6.6620  -20.5570 O   0  0  0  0  0  0  0  0  0  0  0  0
  -12.2250   -7.7430  -19.3680 N   0  0  0  0  0  0  0  0  0  0  0  0
  -11.3460   -8.4980  -20.2640 C   0  0  0  0  0  0  0  0  0  0  0  0
  -10.4180   -7.7460  -21.2040 C   0  0  0  0  0  0  0  0  0  0  0  0
  -10.2550   -6.4160  -21.3960 N   0  0  0  0  0  0  0  0  0  0  0  0
   -9.3370   -6.1850  -22.3180 C   0  0  0  0  0  0  0  0  0  0  0  0
   -8.5760   -7.6260  -23.0400 S   0  0  0  0  0  0  0  0  0  0  0  0
   -9.5960   -8.5230  -21.9990 C   0  0  0  0  0  0  0  0  0  0  0  0
   -9.5390  -10.0220  -22.0170 C   0  0  0  0  0  0  0  0  0  0  0  0
  -10.5270  -10.6760  -21.0510 C   0  0  0  0  0  0  0  0  0  0  0  0
  -11.3750   -9.9030  -20.2350 C   0  0  0  0  0  0  0  0  0  0  0  0
  -12.4900  -10.6860  -19.1680 Cl  0  0  0  0  0  0  0  0  0  0  0  0
  -11.6480   -5.0010  -18.2220 C   0  0  0  0  0  0  0  0  0  0  0  0
  -10.4690   -1.6760  -15.3570 H   0  0  0  0  0  0  0  0  0  0  0  0
  -11.5990   -1.3860  -16.6300 H   0  0  0  0  0  0  0  0  0  0  0  0
  -11.9130   -1.4370  -18.2830 H   0  0  0  0  0  0  0  0  0  0  0  0
  -13.5670   -2.0480  -20.1650 H   0  0  0  0  0  0  0  0  0  0  0  0
  -12.7000   -8.3250  -18.6810 H   0  0  0  0  0  0  0  0  0  0  0  0
   -9.0600   -5.1840  -22.6190 H   0  0  0  0  0  0  0  0  0  0  0  0
   -8.8660  -10.5910  -22.6600 H   0  0  0  0  0  0  0  0  0  0  0  0
  -10.5920  -11.7570  -20.9780 H   0  0  0  0  0  0  0  0  0  0  0  0
  -11.1210   -5.7870  -17.6830 H   0  0  0  0  0  0  0  0  0  0  0  0
  1  2  1  0
  2  3  2  0
  2  4  1  0
  4  5  2  0
  5  6  1  0
  6  7  2  0
  7  8  1  0
  7  9  1  0
  9 10  1  0
 10 11  2  0
 10 12  1  0
 12 13  1  0
 13 14  2  0
 14 15  1  0
 15 16  2  0
 16 17  1  0
 17 18  1  0
 18 19  2  0
 19 20  1  0
 20 21  2  0
 21 22  1  0
  9 23  2  0
 23  4  1  0
 21 13  1  0
 18 14  1  0
  1 24  1  0
  1 25  1  0
  5 26  1  0
  6 27  1  0
 12 28  1  0
 16 29  1  0
 19 30  1  0
 20 31  1  0
 23 32  1  0
A    1
 N1 
A    2
 C1 
A    3
 O1 
A    4
 C2 
A    5
 C3 
A    6
 C4 
A    7
 C5 
A    8
 F1 
A    9
 C6 
A   10
 C7 
A   11
 O2 
A   12
 N2 
A   13
 C8 
A   14
 C9 
A   15
 N3 
A   16
 C10
A   17
 S1 
A   18
 C11
A   19
 C12
A   20
 C13
A   21
 C14
A   22
CL1 
A   23
 C15
A   24
 H1 
A   25
 H2 
A   26
 H3 
A   27
 H4 
A   28
 H5 
A   29
 H6 
A   30
 H7 
A   31
 H8 
A   32
 H9 
M  END
>  <ref_pdb>  (104) 
x0147_0A

>  <ref_mols>  (104) 
x0771_0A,x0176_0A

>  <original SMILES>  (104) 
[H]c1nc2c(N([H])C(=O)c3c([H])c(C(=O)N([H])[H])c([H])c([H])c3F)c(Cl)c([H])c([H])c2s1

>  <index>  (104) 
17301

>  <∆∆G>  (104) 
-4.434942

>  <comRMSD>  (104) 
0.422684

>  <N_constrained_atoms>  (104) 
22.0

>  <N_unconstrained_atoms>  (104) 
1.0

>  <LE>  (104) 
0.192824

>  <percent_hybrid>  (104) 
46.0

>  <max_hit_Tanimoto>  (104) 
0.261611

>  <largest_ring>  (104) 
6

>  <N_interactions_kept>  (104) 
1.0

>  <N_interactions_lost>  (104) 
1.0

>  <interaction_uniqueness_metric>  (104) 
0.536128

>  <N_HA>  (104) 
23

>  <N_rotatable_bonds>  (104) 
3

>  <N_interactions>  (104) 
2

>  <N_PAINS>  (104) 
0

>  <UFF_Gibbs>  (104) 
187.024135

>  <strain_per_HA>  (104) 
8.131449

>  <ad_hoc_penalty>  (104) 
-26.777425

>  <cluster>  (104) 
1671

>  <ranked>  (104) 
120.0

>  <merger_rank>  (104) 
2

>  <hydroph_interaction:LEU:127>  (104) 
0

>  <hbond:GLY:128>  (104) 
0

>  <hydroph_interaction:ALA:144>  (104) 
0

>  <hbond:GLY:164>  (104) 
0

>  <hbond:HIS:40>  (104) 
0

>  <pistack:HIS:40>  (104) 
0

>  <hydroph_interaction:LEU:125>  (104) 
0

>  <hydroph_interaction:PHE:170>  (104) 
0

>  <hydroph_interaction:HIS:40>  (104) 
0

>  <pication:HIS:40>  (104) 
0

>  <hbond:THR:142>  (104) 
0

>  <hbond:HIS:161>  (104) 
0

>  <hbond:GLY:166>  (104) 
0

>  <hbond:VAL:162>  (104) 
0

>  <hydroph_interaction:ASN:165>  (104) 
0

>  <hbond:ASN:126>  (104) 
0

>  <hbond:ARG:143>  (104) 
0

>  <hbond:GLU:71>  (104) 
0

>  <saltbridge:HIS:161>  (104) 
0

>  <hbond:ALA:144>  (104) 
0

>  <hbond:GLY:145>  (104) 
0

>  <hbond:GLN:146>  (104) 
1

>  <hbond:CYS:147>  (104) 
0

>  <halogenbond:ASN:126>  (104) 
0

>  <saltbridge:HIS:40>  (104) 
0

>  <hbond:LEU:127>  (104) 
0

>  <hbond:THR:130>  (104) 
0

>  <hydroph_interaction:GLU:71>  (104) 
0

>  <hydroph_interaction:THR:130>  (104) 
0

>  <saltbridge:ARG:143>  (104) 
0

>  <saltbridge:GLU:71>  (104) 
0

>  <hbond:GLY:129>  (104) 
0

>  <halogenbond:CYS:147>  (104) 
0

>  <hydroph_interaction:THR:39>  (104) 
0

>  <hbond:ASN:69>  (104) 
0

>  <hydroph_interaction:THR:132>  (104) 
0

>  <hbond:TYR:122>  (104) 
0

>  <hydroph_interaction:PHE:109>  (104) 
0

>  <hydroph_interaction:PHE:140>  (104) 
0

>  <hbond:PRO:141>  (104) 
1

$$$$
PV-006758549418-x0771-1A
     RDKit          3D

 45 48  0  0  0  0  0  0  0  0999 V2000
   -7.0780  -11.1700   -5.8590 C   0  0  0  0  0  0  0  0  0  0  0  0
   -6.5050   -9.7600   -5.9250 C   0  0  1  0  0  0  0  0  0  0  0  0
   -6.8680   -9.1030   -7.2420 C   0  0  0  0  0  0  0  0  0  0  0  0
   -7.2050   -7.7170   -6.8490 C   0  0  0  0  0  0  0  0  0  0  0  0
   -7.2720   -6.5150   -7.8010 C   0  0  0  0  0  0  0  0  0  0  0  0
   -7.6300   -5.2850   -7.2950 C   0  0  0  0  0  0  0  0  0  0  0  0
   -7.7280   -4.1830   -8.0940 C   0  0  0  0  0  0  0  0  0  0  0  0
   -8.5690   -3.3110   -7.9680 O   0  0  0  0  0  0  0  0  0  0  0  0
   -6.7870   -4.1580   -9.0560 O   0  0  0  0  0  0  0  0  0  0  0  0
   -7.9040   -5.2930   -5.7820 C   0  0  0  0  0  0  0  0  0  0  0  0
   -7.8080   -6.4310   -4.9750 C   0  0  0  0  0  0  0  0  0  0  0  0
   -7.4510   -7.6680   -5.5330 C   0  0  0  0  0  0  0  0  0  0  0  0
   -7.2880   -8.9320   -4.9610 N   0  0  0  0  0  0  0  0  0  0  0  0
   -6.9900   -9.0360   -3.5620 C   0  0  0  0  0  0  0  0  0  0  0  0
   -5.9780   -7.9990   -3.1200 C   0  0  0  0  0  0  0  0  0  0  0  0
   -5.3860   -8.2170   -1.7480 C   0  0  0  0  0  0  0  0  0  0  0  0
   -6.0450   -9.1260   -0.8570 C   0  0  0  0  0  0  0  0  0  0  0  0
   -5.5780   -9.4080    0.4420 C   0  0  0  0  0  0  0  0  0  0  0  0
   -4.3210   -8.6880    0.8610 C   0  0  0  0  0  0  0  0  0  0  0  0
   -3.6130   -8.7460    2.0430 O   0  0  0  0  0  0  0  0  0  0  0  0
   -2.3620   -8.0160    1.7540 C   0  0  0  0  0  0  0  0  0  0  0  0
   -2.5420   -7.2060    0.4850 C   0  0  0  0  0  0  0  0  0  0  0  0
   -3.7710   -7.8590   -0.0200 C   0  0  0  0  0  0  0  0  0  0  0  0
   -4.2220   -7.5390   -1.3780 C   0  0  0  0  0  0  0  0  0  0  0  0
   -6.2940  -11.8850   -5.5870 H   0  0  0  0  0  0  0  0  0  0  0  0
   -7.4970  -11.4410   -6.8320 H   0  0  0  0  0  0  0  0  0  0  0  0
   -7.8700  -11.2160   -5.1080 H   0  0  0  0  0  0  0  0  0  0  0  0
   -5.4300   -9.8350   -5.8500 H   0  0  0  0  0  0  0  0  0  0  0  0
   -7.7380   -9.6260   -7.6390 H   0  0  0  0  0  0  0  0  0  0  0  0
   -6.1260   -9.1230   -8.0220 H   0  0  0  0  0  0  0  0  0  0  0  0
   -7.0290   -6.7510   -8.8470 H   0  0  0  0  0  0  0  0  0  0  0  0
   -6.5440   -3.2190   -9.0970 H   0  0  0  0  0  0  0  0  0  0  0  0
   -8.1890   -4.3560   -5.3100 H   0  0  0  0  0  0  0  0  0  0  0  0
   -8.0160   -6.3540   -3.9100 H   0  0  0  0  0  0  0  0  0  0  0  0
   -6.6200  -10.0450   -3.3390 H   0  0  0  0  0  0  0  0  0  0  0  0
   -7.9050   -8.9120   -2.9900 H   0  0  0  0  0  0  0  0  0  0  0  0
   -5.1790   -7.9800   -3.8740 H   0  0  0  0  0  0  0  0  0  0  0  0
   -6.4180   -6.9980   -3.1740 H   0  0  0  0  0  0  0  0  0  0  0  0
   -6.9490   -9.6290   -1.1940 H   0  0  0  0  0  0  0  0  0  0  0  0
   -6.0890  -10.1000    1.1000 H   0  0  0  0  0  0  0  0  0  0  0  0
   -2.1100   -7.3760    2.6020 H   0  0  0  0  0  0  0  0  0  0  0  0
   -1.5600   -8.7510    1.6420 H   0  0  0  0  0  0  0  0  0  0  0  0
   -1.7300   -7.3430   -0.2070 H   0  0  0  0  0  0  0  0  0  0  0  0
   -2.6810   -6.1490    0.7080 H   0  0  0  0  0  0  0  0  0  0  0  0
   -3.7010   -6.8460   -2.0290 H   0  0  0  0  0  0  0  0  0  0  0  0
  1  2  1  0
  2  3  1  0
  3  4  1  0
  4  5  2  0
  5  6  1  0
  6  7  1  0
  7  8  2  0
  7  9  1  0
  6 10  2  0
 10 11  1  0
 11 12  2  0
 12 13  1  0
 13 14  1  0
 14 15  1  0
 15 16  1  0
 16 17  2  0
 17 18  1  0
 18 19  2  0
 19 20  1  0
 20 21  1  0
 21 22  1  0
 22 23  1  0
 23 24  2  0
 13  2  1  0
 12  4  1  0
 24 16  1  0
 23 19  1  0
  1 25  1  0
  1 26  1  0
  1 27  1  0
  2 28  1  1
  3 29  1  0
  3 30  1  0
  5 31  1  0
  9 32  1  0
 10 33  1  0
 11 34  1  0
 14 35  1  0
 14 36  1  0
 15 37  1  0
 15 38  1  0
 17 39  1  0
 18 40  1  0
 21 41  1  0
 21 42  1  0
 22 43  1  0
 22 44  1  0
 24 45  1  0
A    1
 C1 
A    2
 C2 
A    3
 C3 
A    4
 C4 
A    5
 C5 
A    6
 C6 
A    7
 C7 
A    8
 O1 
A    9
 O2 
A   10
 C8 
A   11
 C9 
A   12
 C10
A   13
 N1 
A   14
 C11
A   15
 C12
A   16
 C13
A   17
 C14
A   18
 C15
A   19
 C16
A   20
 O3 
A   21
 C17
A   22
 C18
A   23
 C19
A   24
 C20
A   25
 H1 
A   26
 H2 
A   27
 H3 
A   28
 H4 
A   29
 H5 
A   30
 H6 
A   31
 H7 
A   32
 H8 
A   33
 H9 
A   34
 H10
A   35
 H11
A   36
 H12
A   37
 H13
A   38
 H14
A   39
 H15
A   40
 H16
A   41
 H17
A   42
 H18
A   43
 H19
A   44
 H20
A   45
 H21
M  END
>  <ref_pdb>  (105) 
x0147_0A

>  <ref_mols>  (105) 
x0771_1A,x1140_0AS4

>  <original SMILES>  (105) 
[H]OC(=O)c1c([H])c([H])c2c(c1[H])C([H])([H])[C@]([H])(C([H])([H])[H])N2C([H])([H])C([H])([H])c1c([H])c([H])c2c(c1[H])C([H])([H])C([H])([H])O2

>  <index>  (105) 
13387

>  <∆∆G>  (105) 
-5.847096

>  <comRMSD>  (105) 
0.32778

>  <N_constrained_atoms>  (105) 
21.0

>  <N_unconstrained_atoms>  (105) 
3.0

>  <LE>  (105) 
0.243629

>  <percent_hybrid>  (105) 
43.0

>  <max_hit_Tanimoto>  (105) 
0.404052

>  <largest_ring>  (105) 
6

>  <N_interactions_kept>  (105) 
2.5

>  <N_interactions_lost>  (105) 
1.5

>  <interaction_uniqueness_metric>  (105) 
0.119192

>  <N_HA>  (105) 
24

>  <N_rotatable_bonds>  (105) 
5

>  <N_interactions>  (105) 
4

>  <N_PAINS>  (105) 
0

>  <UFF_Gibbs>  (105) 
120.115502

>  <strain_per_HA>  (105) 
5.004792

>  <ad_hoc_penalty>  (105) 
-26.768587

>  <cluster>  (105) 
741

>  <ranked>  (105) 
121.0

>  <merger_rank>  (105) 
3

>  <hydroph_interaction:LEU:127>  (105) 
0

>  <hbond:GLY:128>  (105) 
0

>  <hydroph_interaction:ALA:144>  (105) 
1

>  <hbond:GLY:164>  (105) 
0

>  <hbond:HIS:40>  (105) 
0

>  <pistack:HIS:40>  (105) 
1

>  <hydroph_interaction:LEU:125>  (105) 
0

>  <hydroph_interaction:PHE:170>  (105) 
0

>  <hydroph_interaction:HIS:40>  (105) 
1

>  <pication:HIS:40>  (105) 
0

>  <hbond:THR:142>  (105) 
0

>  <hbond:HIS:161>  (105) 
0

>  <hbond:GLY:166>  (105) 
0

>  <hbond:VAL:162>  (105) 
0

>  <hydroph_interaction:ASN:165>  (105) 
0

>  <hbond:ASN:126>  (105) 
0

>  <hbond:ARG:143>  (105) 
0

>  <hbond:GLU:71>  (105) 
0

>  <saltbridge:HIS:161>  (105) 
1

>  <hbond:ALA:144>  (105) 
0

>  <hbond:GLY:145>  (105) 
0

>  <hbond:GLN:146>  (105) 
0

>  <hbond:CYS:147>  (105) 
0

>  <halogenbond:ASN:126>  (105) 
0

>  <saltbridge:HIS:40>  (105) 
0

>  <hbond:LEU:127>  (105) 
0

>  <hbond:THR:130>  (105) 
0

>  <hydroph_interaction:GLU:71>  (105) 
0

>  <hydroph_interaction:THR:130>  (105) 
0

>  <saltbridge:ARG:143>  (105) 
0

>  <saltbridge:GLU:71>  (105) 
0

>  <hbond:GLY:129>  (105) 
0

>  <halogenbond:CYS:147>  (105) 
0

>  <hydroph_interaction:THR:39>  (105) 
0

>  <hbond:ASN:69>  (105) 
0

>  <hydroph_interaction:THR:132>  (105) 
0

>  <hbond:TYR:122>  (105) 
0

>  <hydroph_interaction:PHE:109>  (105) 
0

>  <hydroph_interaction:PHE:140>  (105) 
0

>  <hbond:PRO:141>  (105) 
0

$$$$
Z1240242730-x0130-0AS1
     RDKit          3D

 37 37  0  0  0  0  0  0  0  0999 V2000
    1.3440  -10.1140    2.5650 C   0  0  0  0  0  0  0  0  0  0  0  0
    0.3390   -9.2430    3.2530 C   0  0  0  0  0  0  0  0  0  0  0  0
   -0.9300   -9.1520    2.4560 C   0  0  0  0  0  0  0  0  0  0  0  0
   -2.2110   -9.4860    3.0890 C   0  0  0  0  0  0  0  0  0  0  0  0
   -3.5260   -9.4140    2.3600 C   0  0  0  0  0  0  0  0  0  0  0  0
   -4.1980  -10.4280    2.2200 O   0  0  0  0  0  0  0  0  0  0  0  0
   -3.7960   -8.0790    1.9200 N   0  0  0  0  0  0  0  0  0  0  0  0
   -4.3040   -8.0800    0.5690 C   0  0  0  0  0  0  0  0  0  0  0  0
   -5.6470   -8.7780    0.3380 C   0  0  0  0  0  0  0  0  0  0  0  0
   -6.0950   -8.7020   -1.0880 C   0  0  0  0  0  0  0  0  0  0  0  0
   -5.3470   -8.0580   -2.0760 C   0  0  0  0  0  0  0  0  0  0  0  0
   -5.7770   -7.9720   -3.3940 C   0  0  0  0  0  0  0  0  0  0  0  0
   -5.7640   -6.6360   -3.9990 N   0  0  0  0  0  0  0  0  0  0  0  0
   -6.8970   -5.4740   -3.4880 S   0  0  0  0  0  6  0  0  0  0  0  0
   -6.7370   -5.4740   -1.7090 C   0  0  0  0  0  0  0  0  0  0  0  0
   -8.2100   -6.0010   -3.7930 O   0  0  0  0  0  0  0  0  0  0  0  0
   -6.5090   -4.1530   -3.9520 O   0  0  0  0  0  0  0  0  0  0  0  0
   -4.1380   -7.4730   -1.7450 C   0  0  0  0  0  0  0  0  0  0  0  0
   -3.5970   -7.4660   -0.4610 C   0  0  0  0  0  0  0  0  0  0  0  0
    0.8890  -10.6190    1.7060 H   0  0  0  0  0  0  0  0  0  0  0  0
    1.7370  -10.8720    3.2520 H   0  0  0  0  0  0  0  0  0  0  0  0
    2.1830   -9.5100    2.2020 H   0  0  0  0  0  0  0  0  0  0  0  0
    0.7730   -8.2440    3.3860 H   0  0  0  0  0  0  0  0  0  0  0  0
    0.1330   -9.6360    4.2540 H   0  0  0  0  0  0  0  0  0  0  0  0
   -0.8980   -8.8400    1.4080 H   0  0  0  0  0  0  0  0  0  0  0  0
   -2.1920   -9.7930    4.1400 H   0  0  0  0  0  0  0  0  0  0  0  0
   -4.2860   -7.4790    2.5670 H   0  0  0  0  0  0  0  0  0  0  0  0
   -6.1480   -9.2470    1.1900 H   0  0  0  0  0  0  0  0  0  0  0  0
   -7.0500   -9.1690   -1.3570 H   0  0  0  0  0  0  0  0  0  0  0  0
   -6.8020   -8.3280   -3.3850 H   0  0  0  0  0  0  0  0  0  0  0  0
   -5.2690   -8.6130   -4.1110 H   0  0  0  0  0  0  0  0  0  0  0  0
   -4.8450   -6.2920   -4.2970 H   0  0  0  0  0  0  0  0  0  0  0  0
   -7.1630   -4.5510   -1.3210 H   0  0  0  0  0  0  0  0  0  0  0  0
   -5.6830   -5.5540   -1.4260 H   0  0  0  0  0  0  0  0  0  0  0  0
   -7.2560   -6.3430   -1.2910 H   0  0  0  0  0  0  0  0  0  0  0  0
   -3.5020   -6.9590   -2.4720 H   0  0  0  0  0  0  0  0  0  0  0  0
   -2.6420   -6.9820   -0.2810 H   0  0  0  0  0  0  0  0  0  0  0  0
  1  2  1  0
  2  3  1  0
  3  4  2  3
  4  5  1  0
  5  6  2  0
  5  7  1  0
  7  8  1  0
  8  9  2  0
  9 10  1  0
 10 11  2  0
 11 12  1  0
 12 13  1  0
 13 14  1  0
 14 15  1  0
 14 16  2  0
 14 17  2  0
 11 18  1  0
 18 19  2  0
 19  8  1  0
  1 20  1  0
  1 21  1  0
  1 22  1  0
  2 23  1  0
  2 24  1  0
  3 25  1  0
  4 26  1  0
  7 27  1  0
  9 28  1  0
 10 29  1  0
 12 30  1  0
 12 31  1  0
 13 32  1  0
 15 33  1  0
 15 34  1  0
 15 35  1  0
 18 36  1  0
 19 37  1  0
A    1
 C1 
A    2
 C2 
A    3
 C3 
A    4
 C4 
A    5
 C5 
A    6
 O1 
A    7
 N1 
A    8
 C6 
A    9
 C7 
A   10
 C8 
A   11
 C9 
A   12
 C10
A   13
 N2 
A   14
 S1 
A   15
 C11
A   16
 O2 
A   17
 O3 
A   18
 C12
A   19
 C13
A   20
 H1 
A   21
 H2 
A   22
 H3 
A   23
 H4 
A   24
 H5 
A   25
 H6 
A   26
 H7 
A   27
 H8 
A   28
 H9 
A   29
 H10
A   30
 H11
A   31
 H12
A   32
 H13
A   33
 H14
A   34
 H15
A   35
 H16
A   36
 H17
A   37
 H18
M  END
>  <ref_pdb>  (106) 
x0147_0A

>  <ref_mols>  (106) 
x0130_0AS1,x1140_0A

>  <original SMILES>  (106) 
[H]C(C(=O)N([H])c1c([H])c([H])c(C([H])([H])N([H])S(=O)(=O)C([H])([H])[H])c([H])c1[H])=C([H])C([H])([H])C([H])([H])[H]

>  <index>  (106) 
8395

>  <∆∆G>  (106) 
-8.407586

>  <comRMSD>  (106) 
0.903746

>  <N_constrained_atoms>  (106) 
20.0

>  <N_unconstrained_atoms>  (106) 
2.0

>  <LE>  (106) 
0.382163

>  <percent_hybrid>  (106) 
20.0

>  <max_hit_Tanimoto>  (106) 
0.304577

>  <largest_ring>  (106) 
6

>  <N_interactions_kept>  (106) 
3.0

>  <N_interactions_lost>  (106) 
3.0

>  <interaction_uniqueness_metric>  (106) 
0.210098

>  <N_HA>  (106) 
19

>  <N_rotatable_bonds>  (106) 
8

>  <N_interactions>  (106) 
6

>  <N_PAINS>  (106) 
0

>  <UFF_Gibbs>  (106) 
100.373058

>  <strain_per_HA>  (106) 
5.282765

>  <ad_hoc_penalty>  (106) 
-26.761697

>  <cluster>  (106) 
5385

>  <ranked>  (106) 
122.0

>  <merger_rank>  (106) 
1

>  <hydroph_interaction:LEU:127>  (106) 
1

>  <hbond:GLY:128>  (106) 
0

>  <hydroph_interaction:ALA:144>  (106) 
0

>  <hbond:GLY:164>  (106) 
1

>  <hbond:HIS:40>  (106) 
0

>  <pistack:HIS:40>  (106) 
1

>  <hydroph_interaction:LEU:125>  (106) 
0

>  <hydroph_interaction:PHE:170>  (106) 
0

>  <hydroph_interaction:HIS:40>  (106) 
0

>  <pication:HIS:40>  (106) 
0

>  <hbond:THR:142>  (106) 
0

>  <hbond:HIS:161>  (106) 
0

>  <hbond:GLY:166>  (106) 
0

>  <hbond:VAL:162>  (106) 
1

>  <hydroph_interaction:ASN:165>  (106) 
0

>  <hbond:ASN:126>  (106) 
0

>  <hbond:ARG:143>  (106) 
0

>  <hbond:GLU:71>  (106) 
0

>  <saltbridge:HIS:161>  (106) 
0

>  <hbond:ALA:144>  (106) 
0

>  <hbond:GLY:145>  (106) 
0

>  <hbond:GLN:146>  (106) 
0

>  <hbond:CYS:147>  (106) 
0

>  <halogenbond:ASN:126>  (106) 
0

>  <saltbridge:HIS:40>  (106) 
0

>  <hbond:LEU:127>  (106) 
1

>  <hbond:THR:130>  (106) 
0

>  <hydroph_interaction:GLU:71>  (106) 
0

>  <hydroph_interaction:THR:130>  (106) 
0

>  <saltbridge:ARG:143>  (106) 
0

>  <saltbridge:GLU:71>  (106) 
0

>  <hbond:GLY:129>  (106) 
0

>  <halogenbond:CYS:147>  (106) 
0

>  <hydroph_interaction:THR:39>  (106) 
1

>  <hbond:ASN:69>  (106) 
0

>  <hydroph_interaction:THR:132>  (106) 
0

>  <hbond:TYR:122>  (106) 
0

>  <hydroph_interaction:PHE:109>  (106) 
0

>  <hydroph_interaction:PHE:140>  (106) 
0

>  <hbond:PRO:141>  (106) 
0

$$$$
PV-002134051551-x2149-0AS2
     RDKit          3D

 35 37  0  0  0  0  0  0  0  0999 V2000
   -6.6890   -4.6820   -8.9550 O   0  0  0  0  0  0  0  0  0  0  0  0
   -7.2360   -5.2140   -7.9660 C   0  0  0  0  0  0  0  0  0  0  0  0
   -8.3720   -4.7540   -7.1990 C   0  0  0  0  0  0  0  0  0  0  0  0
   -8.5460   -5.6690   -6.0540 C   0  0  0  0  0  0  0  0  0  0  0  0
   -7.3850   -6.4560   -5.9120 C   0  0  0  0  0  0  0  0  0  0  0  0
   -7.7030   -7.7030   -5.3450 C   0  0  0  0  0  0  0  0  0  0  0  0
   -7.1970   -7.8180   -3.9230 N   0  0  0  0  0  0  0  0  0  0  0  0
   -5.7430   -7.9810   -3.6830 C   0  0  0  0  0  0  0  0  0  0  0  0
   -5.3490   -8.1860   -2.1950 C   0  0  0  0  0  0  0  0  0  0  0  0
   -6.1530   -8.9250   -1.2910 C   0  0  0  0  0  0  0  0  0  0  0  0
   -5.6940   -9.0930    0.1440 C   0  0  0  0  0  0  0  0  0  0  0  0
   -4.3770   -8.4400    0.5050 C   0  0  0  0  0  0  0  0  0  0  0  0
   -3.7110   -8.4220    1.7130 C   0  0  0  0  0  0  0  0  0  0  0  0
   -2.4560   -7.6150    1.4630 C   0  0  0  0  0  0  0  0  0  0  0  0
   -2.4930   -7.2230    0.0600 O   0  0  0  0  0  0  0  0  0  0  0  0
   -3.6610   -7.7430   -0.4290 C   0  0  0  0  0  0  0  0  0  0  0  0
   -4.1320   -7.6150   -1.7440 C   0  0  0  0  0  0  0  0  0  0  0  0
   -6.8930   -6.4030   -7.3240 O   0  0  0  0  0  0  0  0  0  0  0  0
   -9.2510   -4.7790   -7.8510 H   0  0  0  0  0  0  0  0  0  0  0  0
   -8.2050   -3.7340   -6.8380 H   0  0  0  0  0  0  0  0  0  0  0  0
   -8.5930   -5.0520   -5.1510 H   0  0  0  0  0  0  0  0  0  0  0  0
   -9.5430   -6.0800   -6.1550 H   0  0  0  0  0  0  0  0  0  0  0  0
   -6.5100   -6.1090   -5.3860 H   0  0  0  0  0  0  0  0  0  0  0  0
   -7.2810   -8.5170   -5.9430 H   0  0  0  0  0  0  0  0  0  0  0  0
   -8.7910   -7.8350   -5.3520 H   0  0  0  0  0  0  0  0  0  0  0  0
   -7.5640   -7.2160   -3.1890 H   0  0  0  0  0  0  0  0  0  0  0  0
   -5.3500   -8.8200   -4.2730 H   0  0  0  0  0  0  0  0  0  0  0  0
   -5.2190   -7.0940   -4.0620 H   0  0  0  0  0  0  0  0  0  0  0  0
   -7.0890   -9.3710   -1.6170 H   0  0  0  0  0  0  0  0  0  0  0  0
   -6.2780   -9.6510    0.8710 H   0  0  0  0  0  0  0  0  0  0  0  0
   -3.3670   -9.3360    2.2080 H   0  0  0  0  0  0  0  0  0  0  0  0
   -4.2430   -7.8980    2.5170 H   0  0  0  0  0  0  0  0  0  0  0  0
   -1.5540   -8.1990    1.6710 H   0  0  0  0  0  0  0  0  0  0  0  0
   -2.4180   -6.7060    2.0720 H   0  0  0  0  0  0  0  0  0  0  0  0
   -3.4570   -7.0330   -2.3810 H   0  0  0  0  0  0  0  0  0  0  0  0
  1  2  2  0
  2  3  1  0
  3  4  1  0
  4  5  1  0
  5  6  1  0
  6  7  1  0
  7  8  1  0
  8  9  1  0
  9 10  2  0
 10 11  1  0
 11 12  2  0
 12 13  1  0
 13 14  1  0
 14 15  1  0
 15 16  1  0
 16 17  2  0
  5 18  1  0
 18  2  1  0
 17  9  1  0
 16 12  1  0
  3 19  1  0
  3 20  1  0
  4 21  1  0
  4 22  1  0
  5 23  1  0
  6 24  1  0
  6 25  1  0
  7 26  1  0
  8 27  1  0
  8 28  1  0
 10 29  1  0
 11 30  1  0
 13 31  1  0
 13 32  1  0
 14 33  1  0
 14 34  1  0
 17 35  1  0
A    1
 O1 
A    2
 C1 
A    3
 C2 
A    4
 C3 
A    5
 C4 
A    6
 C5 
A    7
 N1 
A    8
 C6 
A    9
 C7 
A   10
 C8 
A   11
 C9 
A   12
 C10
A   13
 C11
A   14
 C12
A   15
 O2 
A   16
 C13
A   17
 C14
A   18
 O3 
A   19
 H1 
A   20
 H2 
A   21
 H3 
A   22
 H4 
A   23
 H5 
A   24
 H6 
A   25
 H7 
A   26
 H8 
A   27
 H9 
A   28
 H10
A   29
 H11
A   30
 H12
A   31
 H13
A   32
 H14
A   33
 H15
A   34
 H16
A   35
 H17
M  END
>  <ref_pdb>  (107) 
x0147_0A

>  <ref_mols>  (107) 
x2149_0AS2,x1140_0AS2

>  <original SMILES>  (107) 
[H]c1c([H])c2c(c([H])c1C([H])([H])N([H])C([H])([H])C1([H])OC(=O)C([H])([H])C1([H])[H])OC([H])([H])C2([H])[H]

>  <index>  (107) 
9495

>  <∆∆G>  (107) 
-5.71109

>  <comRMSD>  (107) 
0.413529

>  <N_constrained_atoms>  (107) 
17.0

>  <N_unconstrained_atoms>  (107) 
2.0

>  <LE>  (107) 
0.300584

>  <percent_hybrid>  (107) 
42.0

>  <max_hit_Tanimoto>  (107) 
0.236715

>  <largest_ring>  (107) 
6

>  <N_interactions_kept>  (107) 
2.0

>  <N_interactions_lost>  (107) 
1.5

>  <interaction_uniqueness_metric>  (107) 
0.105349

>  <N_HA>  (107) 
18

>  <N_rotatable_bonds>  (107) 
4

>  <N_interactions>  (107) 
4

>  <N_PAINS>  (107) 
0

>  <UFF_Gibbs>  (107) 
92.655366

>  <strain_per_HA>  (107) 
5.147492

>  <ad_hoc_penalty>  (107) 
-26.751653

>  <cluster>  (107) 
5054

>  <ranked>  (107) 
123.0

>  <merger_rank>  (107) 
2

>  <hydroph_interaction:LEU:127>  (107) 
1

>  <hbond:GLY:128>  (107) 
0

>  <hydroph_interaction:ALA:144>  (107) 
0

>  <hbond:GLY:164>  (107) 
0

>  <hbond:HIS:40>  (107) 
0

>  <pistack:HIS:40>  (107) 
1

>  <hydroph_interaction:LEU:125>  (107) 
0

>  <hydroph_interaction:PHE:170>  (107) 
0

>  <hydroph_interaction:HIS:40>  (107) 
1

>  <pication:HIS:40>  (107) 
0

>  <hbond:THR:142>  (107) 
0

>  <hbond:HIS:161>  (107) 
0

>  <hbond:GLY:166>  (107) 
0

>  <hbond:VAL:162>  (107) 
0

>  <hydroph_interaction:ASN:165>  (107) 
0

>  <hbond:ASN:126>  (107) 
0

>  <hbond:ARG:143>  (107) 
0

>  <hbond:GLU:71>  (107) 
0

>  <saltbridge:HIS:161>  (107) 
1

>  <hbond:ALA:144>  (107) 
0

>  <hbond:GLY:145>  (107) 
0

>  <hbond:GLN:146>  (107) 
0

>  <hbond:CYS:147>  (107) 
0

>  <halogenbond:ASN:126>  (107) 
0

>  <saltbridge:HIS:40>  (107) 
0

>  <hbond:LEU:127>  (107) 
0

>  <hbond:THR:130>  (107) 
0

>  <hydroph_interaction:GLU:71>  (107) 
0

>  <hydroph_interaction:THR:130>  (107) 
0

>  <saltbridge:ARG:143>  (107) 
0

>  <saltbridge:GLU:71>  (107) 
0

>  <hbond:GLY:129>  (107) 
0

>  <halogenbond:CYS:147>  (107) 
0

>  <hydroph_interaction:THR:39>  (107) 
0

>  <hbond:ASN:69>  (107) 
0

>  <hydroph_interaction:THR:132>  (107) 
0

>  <hbond:TYR:122>  (107) 
0

>  <hydroph_interaction:PHE:109>  (107) 
0

>  <hydroph_interaction:PHE:140>  (107) 
0

>  <hbond:PRO:141>  (107) 
0

$$$$
Z2518203607-x1071-0AS4
     RDKit          3D

 37 38  0  0  0  0  0  0  0  0999 V2000
   -6.3460   -3.4990   -2.6720 N   0  0  0  0  0  0  0  0  0  0  0  0
   -6.9540   -4.4790   -2.8520 C   0  0  0  0  0  0  0  0  0  0  0  0
   -8.0430   -4.5760   -3.7020 N   0  0  0  0  0  0  0  0  0  0  0  0
   -8.7910   -5.8350   -3.8690 C   0  0  0  0  0  0  0  0  0  0  0  0
   -9.4580   -5.8000   -5.0390 C   0  0  0  0  0  0  0  0  0  0  0  0
   -8.7240   -5.5360   -6.2210 C   0  0  0  0  0  0  0  0  0  0  0  0
   -7.7520   -6.3530   -6.7920 C   0  0  0  0  0  0  0  0  0  0  0  0
   -7.0700   -5.9880   -7.9570 C   0  0  0  0  0  0  0  0  0  0  0  0
   -7.3560   -4.7830   -8.5730 C   0  0  0  0  0  0  0  0  0  0  0  0
   -6.7890   -4.4200   -9.5840 O   0  0  0  0  0  0  0  0  0  0  0  0
   -8.3250   -3.9660   -8.0220 C   0  0  0  0  0  0  0  0  0  0  0  0
   -8.9970   -4.3230   -6.8770 C   0  0  0  0  0  0  0  0  0  0  0  0
   -6.4860   -5.5710   -2.1220 N   0  0  0  0  0  0  0  0  0  0  0  0
   -7.1880   -5.9900   -0.9810 C   0  0  0  0  0  0  0  0  0  0  0  0
   -6.6680   -7.0780   -0.2780 C   0  0  0  0  0  0  0  0  0  0  0  0
   -4.8570   -7.2110   -0.4730 S   0  0  0  0  0  0  0  0  0  0  0  0
   -4.8280   -7.3100   -2.2950 C   0  0  0  0  0  0  0  0  0  0  0  0
   -5.9540   -6.7300   -2.9010 C   0  0  0  0  0  0  0  0  0  0  0  0
   -6.3720   -3.0970   -1.7380 H   0  0  0  0  0  0  0  0  0  0  0  0
   -6.6060   -2.7790   -3.3720 H   0  0  0  0  0  0  0  0  0  0  0  0
   -8.1090   -6.6950   -3.8560 H   0  0  0  0  0  0  0  0  0  0  0  0
   -9.5020   -5.9990   -3.0490 H   0  0  0  0  0  0  0  0  0  0  0  0
  -10.2120   -5.0100   -4.9280 H   0  0  0  0  0  0  0  0  0  0  0  0
   -9.9870   -6.7570   -5.1430 H   0  0  0  0  0  0  0  0  0  0  0  0
   -7.5390   -7.2920   -6.2930 H   0  0  0  0  0  0  0  0  0  0  0  0
   -6.3200   -6.6580   -8.3610 H   0  0  0  0  0  0  0  0  0  0  0  0
   -5.8380   -4.6860   -9.5910 H   0  0  0  0  0  0  0  0  0  0  0  0
   -8.5770   -3.0050   -8.4920 H   0  0  0  0  0  0  0  0  0  0  0  0
   -9.7370   -3.5930   -6.5370 H   0  0  0  0  0  0  0  0  0  0  0  0
   -8.1960   -6.2650   -1.3020 H   0  0  0  0  0  0  0  0  0  0  0  0
   -7.2600   -5.1620   -0.2820 H   0  0  0  0  0  0  0  0  0  0  0  0
   -7.1120   -7.9710   -0.7370 H   0  0  0  0  0  0  0  0  0  0  0  0
   -6.8720   -7.1780    0.7920 H   0  0  0  0  0  0  0  0  0  0  0  0
   -4.7380   -8.3640   -2.5920 H   0  0  0  0  0  0  0  0  0  0  0  0
   -3.9150   -6.8230   -2.6520 H   0  0  0  0  0  0  0  0  0  0  0  0
   -5.6720   -6.4200   -3.9170 H   0  0  0  0  0  0  0  0  0  0  0  0
   -6.7270   -7.4840   -3.0190 H   0  0  0  0  0  0  0  0  0  0  0  0
  1  2  1  0
  2  3  2  3
  3  4  1  0
  4  5  1  0
  5  6  1  0
  6  7  2  0
  7  8  1  0
  8  9  2  0
  9 10  1  0
  9 11  1  0
 11 12  2  0
  2 13  1  0
 13 14  1  0
 14 15  1  0
 15 16  1  0
 16 17  1  0
 17 18  1  0
 12  6  1  0
 18 13  1  0
  1 19  1  0
  1 20  1  0
  4 21  1  0
  4 22  1  0
  5 23  1  0
  5 24  1  0
  7 25  1  0
  8 26  1  0
 10 27  1  0
 11 28  1  0
 12 29  1  0
 14 30  1  0
 14 31  1  0
 15 32  1  0
 15 33  1  0
 17 34  1  0
 17 35  1  0
 18 36  1  0
 18 37  1  0
A    1
 N1 
A    2
 C1 
A    3
 N2 
A    4
 C2 
A    5
 C3 
A    6
 C4 
A    7
 C5 
A    8
 C6 
A    9
 C7 
A   10
 O1 
A   11
 C8 
A   12
 C9 
A   13
 N3 
A   14
 C10
A   15
 C11
A   16
 S1 
A   17
 C12
A   18
 C13
A   19
 H1 
A   20
 H2 
A   21
 H3 
A   22
 H4 
A   23
 H5 
A   24
 H6 
A   25
 H7 
A   26
 H8 
A   27
 H9 
A   28
 H10
A   29
 H11
A   30
 H12
A   31
 H13
A   32
 H14
A   33
 H15
A   34
 H16
A   35
 H17
A   36
 H18
A   37
 H19
M  END
>  <ref_pdb>  (108) 
x0147_0A

>  <ref_mols>  (108) 
x1071_0AS4,x1498_0A

>  <original SMILES>  (108) 
[H]Oc1c([H])c([H])c(C([H])([H])C([H])([H])N=C(N([H])[H])N2C([H])([H])C([H])([H])SC([H])([H])C2([H])[H])c([H])c1[H]

>  <index>  (108) 
9423

>  <∆∆G>  (108) 
-6.85481

>  <comRMSD>  (108) 
0.449032

>  <N_constrained_atoms>  (108) 
16.0

>  <N_unconstrained_atoms>  (108) 
2.0

>  <LE>  (108) 
0.380823

>  <percent_hybrid>  (108) 
44.0

>  <max_hit_Tanimoto>  (108) 
0.074499

>  <largest_ring>  (108) 
6

>  <N_interactions_kept>  (108) 
1.0

>  <N_interactions_lost>  (108) 
1.0

>  <interaction_uniqueness_metric>  (108) 
0.017959

>  <N_HA>  (108) 
18

>  <N_rotatable_bonds>  (108) 
4

>  <N_interactions>  (108) 
3

>  <N_PAINS>  (108) 
0

>  <UFF_Gibbs>  (108) 
152.596651

>  <strain_per_HA>  (108) 
8.477545

>  <ad_hoc_penalty>  (108) 
-26.730177

>  <cluster>  (108) 
545

>  <ranked>  (108) 
124.0

>  <merger_rank>  (108) 
2

>  <hydroph_interaction:LEU:127>  (108) 
0

>  <hbond:GLY:128>  (108) 
0

>  <hydroph_interaction:ALA:144>  (108) 
0

>  <hbond:GLY:164>  (108) 
3

>  <hbond:HIS:40>  (108) 
0

>  <pistack:HIS:40>  (108) 
0

>  <hydroph_interaction:LEU:125>  (108) 
0

>  <hydroph_interaction:PHE:170>  (108) 
0

>  <hydroph_interaction:HIS:40>  (108) 
0

>  <pication:HIS:40>  (108) 
0

>  <hbond:THR:142>  (108) 
0

>  <hbond:HIS:161>  (108) 
0

>  <hbond:GLY:166>  (108) 
0

>  <hbond:VAL:162>  (108) 
0

>  <hydroph_interaction:ASN:165>  (108) 
0

>  <hbond:ASN:126>  (108) 
0

>  <hbond:ARG:143>  (108) 
0

>  <hbond:GLU:71>  (108) 
0

>  <saltbridge:HIS:161>  (108) 
0

>  <hbond:ALA:144>  (108) 
0

>  <hbond:GLY:145>  (108) 
0

>  <hbond:GLN:146>  (108) 
0

>  <hbond:CYS:147>  (108) 
0

>  <halogenbond:ASN:126>  (108) 
0

>  <saltbridge:HIS:40>  (108) 
0

>  <hbond:LEU:127>  (108) 
0

>  <hbond:THR:130>  (108) 
0

>  <hydroph_interaction:GLU:71>  (108) 
0

>  <hydroph_interaction:THR:130>  (108) 
0

>  <saltbridge:ARG:143>  (108) 
0

>  <saltbridge:GLU:71>  (108) 
0

>  <hbond:GLY:129>  (108) 
0

>  <halogenbond:CYS:147>  (108) 
0

>  <hydroph_interaction:THR:39>  (108) 
0

>  <hbond:ASN:69>  (108) 
0

>  <hydroph_interaction:THR:132>  (108) 
0

>  <hbond:TYR:122>  (108) 
0

>  <hydroph_interaction:PHE:109>  (108) 
0

>  <hydroph_interaction:PHE:140>  (108) 
0

>  <hbond:PRO:141>  (108) 
0

$$$$
Z2751779981-x0771-1AS1
     RDKit          3D

 35 37  0  0  0  0  0  0  0  0999 V2000
   -7.0770   -4.3930   -9.2320 N   0  0  0  0  0  0  0  0  0  0  0  0
   -8.0610   -4.3060   -8.1770 C   0  0  0  0  0  0  0  0  0  0  0  0
   -7.7490   -5.3750   -7.1700 C   0  0  0  0  0  0  0  0  0  0  0  0
   -7.1800   -6.5940   -7.5210 C   0  0  0  0  0  0  0  0  0  0  0  0
   -6.8630   -7.6410   -6.4780 C   0  0  0  0  0  0  0  0  0  0  0  0
   -7.1420   -7.3860   -5.1260 C   0  0  0  0  0  0  0  0  0  0  0  0
   -6.8620   -8.2660   -4.1020 N   0  0  0  0  0  0  0  0  0  0  0  0
   -5.4790   -8.0680   -3.5980 C   0  0  0  0  0  0  0  0  0  0  0  0
   -5.2730   -8.2850   -2.2230 C   0  0  0  0  0  0  0  0  0  0  0  0
   -6.1030   -9.0730   -1.2210 C   0  0  0  0  0  0  0  0  0  0  0  0
   -5.5520   -9.1080    0.2150 C   0  0  0  0  0  0  0  0  0  0  0  0
   -4.3920   -8.4630    0.5270 C   0  0  0  0  0  0  0  0  0  0  0  0
   -3.7920   -8.4170    1.7510 O   0  0  0  0  0  0  0  0  0  0  0  0
   -2.6260   -7.6080    1.4460 C   0  0  0  0  0  0  0  0  0  0  0  0
   -2.5680   -7.1940    0.0710 O   0  0  0  0  0  0  0  0  0  0  0  0
   -3.6870   -7.7600   -0.4340 C   0  0  0  0  0  0  0  0  0  0  0  0
   -4.1030   -7.6640   -1.7680 C   0  0  0  0  0  0  0  0  0  0  0  0
   -7.7220   -6.1460   -4.8410 C   0  0  0  0  0  0  0  0  0  0  0  0
   -8.0140   -5.1810   -5.8140 C   0  0  0  0  0  0  0  0  0  0  0  0
   -6.1730   -4.7200   -8.9370 H   0  0  0  0  0  0  0  0  0  0  0  0
   -6.9270   -3.4830   -9.6590 H   0  0  0  0  0  0  0  0  0  0  0  0
   -9.0720   -4.4110   -8.5660 H   0  0  0  0  0  0  0  0  0  0  0  0
   -7.9980   -3.3150   -7.7140 H   0  0  0  0  0  0  0  0  0  0  0  0
   -6.9600   -6.7790   -8.5800 H   0  0  0  0  0  0  0  0  0  0  0  0
   -6.4090   -8.5970   -6.7670 H   0  0  0  0  0  0  0  0  0  0  0  0
   -7.5540   -8.2150   -3.3620 H   0  0  0  0  0  0  0  0  0  0  0  0
   -4.8600   -8.8020   -4.1170 H   0  0  0  0  0  0  0  0  0  0  0  0
   -5.1320   -7.1100   -3.9810 H   0  0  0  0  0  0  0  0  0  0  0  0
   -7.0310   -9.5890   -1.4910 H   0  0  0  0  0  0  0  0  0  0  0  0
   -6.0940   -9.6570    0.9930 H   0  0  0  0  0  0  0  0  0  0  0  0
   -2.6440   -6.7050    2.0760 H   0  0  0  0  0  0  0  0  0  0  0  0
   -1.7320   -8.1730    1.6740 H   0  0  0  0  0  0  0  0  0  0  0  0
   -3.4260   -7.0730   -2.3890 H   0  0  0  0  0  0  0  0  0  0  0  0
   -7.9930   -5.8190   -3.8290 H   0  0  0  0  0  0  0  0  0  0  0  0
   -8.4620   -4.2630   -5.4180 H   0  0  0  0  0  0  0  0  0  0  0  0
  1  2  1  0
  2  3  1  0
  3  4  2  0
  4  5  1  0
  5  6  2  0
  6  7  1  0
  7  8  1  0
  8  9  1  0
  9 10  2  0
 10 11  1  0
 11 12  2  0
 12 13  1  0
 13 14  1  0
 14 15  1  0
 15 16  1  0
 16 17  2  0
  6 18  1  0
 18 19  2  0
 19  3  1  0
 17  9  1  0
 16 12  1  0
  1 20  1  0
  1 21  1  0
  2 22  1  0
  2 23  1  0
  4 24  1  0
  5 25  1  0
  7 26  1  0
  8 27  1  0
  8 28  1  0
 10 29  1  0
 11 30  1  0
 14 31  1  0
 14 32  1  0
 17 33  1  0
 18 34  1  0
 19 35  1  0
A    1
 N1 
A    2
 C1 
A    3
 C2 
A    4
 C3 
A    5
 C4 
A    6
 C5 
A    7
 N2 
A    8
 C6 
A    9
 C7 
A   10
 C8 
A   11
 C9 
A   12
 C10
A   13
 O1 
A   14
 C11
A   15
 O2 
A   16
 C12
A   17
 C13
A   18
 C14
A   19
 C15
A   20
 H1 
A   21
 H2 
A   22
 H3 
A   23
 H4 
A   24
 H5 
A   25
 H6 
A   26
 H7 
A   27
 H8 
A   28
 H9 
A   29
 H10
A   30
 H11
A   31
 H12
A   32
 H13
A   33
 H14
A   34
 H15
A   35
 H16
M  END
>  <ref_pdb>  (109) 
x0147_0A

>  <ref_mols>  (109) 
x0771_1AS1,x1140_0AS2

>  <original SMILES>  (109) 
[H]c1c([H])c(C([H])([H])N([H])c2c([H])c([H])c(C([H])([H])N([H])[H])c([H])c2[H])c([H])c2c1OC([H])([H])O2

>  <index>  (109) 
16755

>  <∆∆G>  (109) 
-7.697507

>  <comRMSD>  (109) 
0.456532

>  <N_constrained_atoms>  (109) 
19.0

>  <N_unconstrained_atoms>  (109) 
1.0

>  <LE>  (109) 
0.384875

>  <percent_hybrid>  (109) 
48.0

>  <max_hit_Tanimoto>  (109) 
0.565432

>  <largest_ring>  (109) 
6

>  <N_interactions_kept>  (109) 
1.0

>  <N_interactions_lost>  (109) 
2.5

>  <interaction_uniqueness_metric>  (109) 
0.127057

>  <N_HA>  (109) 
19

>  <N_rotatable_bonds>  (109) 
5

>  <N_interactions>  (109) 
4

>  <N_PAINS>  (109) 
0

>  <UFF_Gibbs>  (109) 
79.783521

>  <strain_per_HA>  (109) 
4.199111

>  <ad_hoc_penalty>  (109) 
-26.645005

>  <cluster>  (109) 
327

>  <ranked>  (109) 
125.0

>  <merger_rank>  (109) 
3

>  <hydroph_interaction:LEU:127>  (109) 
1

>  <hbond:GLY:128>  (109) 
0

>  <hydroph_interaction:ALA:144>  (109) 
0

>  <hbond:GLY:164>  (109) 
0

>  <hbond:HIS:40>  (109) 
1

>  <pistack:HIS:40>  (109) 
1

>  <hydroph_interaction:LEU:125>  (109) 
0

>  <hydroph_interaction:PHE:170>  (109) 
0

>  <hydroph_interaction:HIS:40>  (109) 
0

>  <pication:HIS:40>  (109) 
0

>  <hbond:THR:142>  (109) 
0

>  <hbond:HIS:161>  (109) 
0

>  <hbond:GLY:166>  (109) 
0

>  <hbond:VAL:162>  (109) 
0

>  <hydroph_interaction:ASN:165>  (109) 
0

>  <hbond:ASN:126>  (109) 
0

>  <hbond:ARG:143>  (109) 
1

>  <hbond:GLU:71>  (109) 
0

>  <saltbridge:HIS:161>  (109) 
0

>  <hbond:ALA:144>  (109) 
0

>  <hbond:GLY:145>  (109) 
0

>  <hbond:GLN:146>  (109) 
0

>  <hbond:CYS:147>  (109) 
0

>  <halogenbond:ASN:126>  (109) 
0

>  <saltbridge:HIS:40>  (109) 
0

>  <hbond:LEU:127>  (109) 
0

>  <hbond:THR:130>  (109) 
0

>  <hydroph_interaction:GLU:71>  (109) 
0

>  <hydroph_interaction:THR:130>  (109) 
0

>  <saltbridge:ARG:143>  (109) 
0

>  <saltbridge:GLU:71>  (109) 
0

>  <hbond:GLY:129>  (109) 
0

>  <halogenbond:CYS:147>  (109) 
0

>  <hydroph_interaction:THR:39>  (109) 
0

>  <hbond:ASN:69>  (109) 
0

>  <hydroph_interaction:THR:132>  (109) 
0

>  <hbond:TYR:122>  (109) 
0

>  <hydroph_interaction:PHE:109>  (109) 
0

>  <hydroph_interaction:PHE:140>  (109) 
0

>  <hbond:PRO:141>  (109) 
0

$$$$
Z1289790450-x1071-0A
     RDKit          3D

 46 47  0  0  0  0  0  0  0  0999 V2000
   -5.7260    0.5420   -2.0160 C   0  0  0  0  0  0  0  0  0  0  0  0
   -6.7360   -0.4810   -0.9470 S   0  0  0  0  0  6  0  0  0  0  0  0
   -5.8990   -0.8100    0.1480 O   0  0  0  0  0  0  0  0  0  0  0  0
   -8.0120    0.1720   -0.7630 O   0  0  0  0  0  0  0  0  0  0  0  0
   -6.9240   -1.8550   -2.1240 C   0  0  0  0  0  0  0  0  0  0  0  0
   -6.7780   -3.2960   -1.6920 C   0  0  0  0  0  0  0  0  0  0  0  0
   -6.8350   -4.4670   -2.6900 C   0  0  0  0  0  0  0  0  0  0  0  0
   -6.3880   -5.6900   -2.0300 N   0  0  0  0  0  0  0  0  0  0  0  0
   -7.1620   -6.0970   -0.9940 C   0  0  0  0  0  0  0  0  0  0  0  0
   -6.2650   -6.8870   -0.0880 C   0  0  0  0  0  0  0  0  0  0  0  0
   -5.7170   -8.1160   -0.8130 C   0  0  0  0  0  0  0  0  0  0  0  0
   -4.9720   -9.0550   -0.1540 C   0  0  0  0  0  0  0  0  0  0  0  0
   -3.9760   -8.4780    0.7340 N   0  0  0  0  0  0  0  0  0  0  0  0
   -2.9280   -7.5850    0.2670 C   0  0  0  0  0  0  0  0  0  0  0  0
   -2.3860   -7.1470    1.4710 C   0  0  0  0  0  0  0  0  0  0  0  0
   -3.2070   -7.4550    2.5200 C   0  0  0  0  0  0  0  0  0  0  0  0
   -4.0930   -8.4270    2.1280 C   0  0  0  0  0  0  0  0  0  0  0  0
   -4.8020   -9.0850    2.8720 O   0  0  0  0  0  0  0  0  0  0  0  0
   -5.0250   -7.6140   -2.0990 C   0  0  0  0  0  0  0  0  0  0  0  0
   -5.8490   -6.7790   -2.8520 C   0  0  0  0  0  0  0  0  0  0  0  0
   -6.1060    0.4510   -3.0370 H   0  0  0  0  0  0  0  0  0  0  0  0
   -5.7540    1.5920   -1.7140 H   0  0  0  0  0  0  0  0  0  0  0  0
   -4.6910    0.1890   -2.0260 H   0  0  0  0  0  0  0  0  0  0  0  0
   -6.1560   -1.6610   -2.8760 H   0  0  0  0  0  0  0  0  0  0  0  0
   -7.9050   -1.7350   -2.5890 H   0  0  0  0  0  0  0  0  0  0  0  0
   -5.8380   -3.3740   -1.1500 H   0  0  0  0  0  0  0  0  0  0  0  0
   -7.5450   -3.4780   -0.9320 H   0  0  0  0  0  0  0  0  0  0  0  0
   -7.8330   -4.5930   -3.1300 H   0  0  0  0  0  0  0  0  0  0  0  0
   -6.1550   -4.2430   -3.5190 H   0  0  0  0  0  0  0  0  0  0  0  0
   -7.5990   -5.2420   -0.4620 H   0  0  0  0  0  0  0  0  0  0  0  0
   -7.9920   -6.7160   -1.3480 H   0  0  0  0  0  0  0  0  0  0  0  0
   -5.4410   -6.2560    0.2560 H   0  0  0  0  0  0  0  0  0  0  0  0
   -6.8080   -7.2040    0.8120 H   0  0  0  0  0  0  0  0  0  0  0  0
   -6.5810   -8.6850   -1.1700 H   0  0  0  0  0  0  0  0  0  0  0  0
   -4.4840   -9.8100   -0.7420 H   0  0  0  0  0  0  0  0  0  0  0  0
   -5.6490   -9.6080    0.5100 H   0  0  0  0  0  0  0  0  0  0  0  0
   -2.1990   -8.1130   -0.3530 H   0  0  0  0  0  0  0  0  0  0  0  0
   -3.3880   -6.7740   -0.2940 H   0  0  0  0  0  0  0  0  0  0  0  0
   -1.4620   -7.7040    1.6380 H   0  0  0  0  0  0  0  0  0  0  0  0
   -2.1200   -6.0890    1.4470 H   0  0  0  0  0  0  0  0  0  0  0  0
   -2.6180   -7.8620    3.3460 H   0  0  0  0  0  0  0  0  0  0  0  0
   -3.7520   -6.5750    2.8610 H   0  0  0  0  0  0  0  0  0  0  0  0
   -4.0780   -7.1120   -1.8810 H   0  0  0  0  0  0  0  0  0  0  0  0
   -4.7640   -8.4900   -2.7100 H   0  0  0  0  0  0  0  0  0  0  0  0
   -5.2590   -6.3580   -3.6750 H   0  0  0  0  0  0  0  0  0  0  0  0
   -6.6450   -7.3850   -3.3000 H   0  0  0  0  0  0  0  0  0  0  0  0
  1  2  1  0
  2  3  2  0
  2  4  2  0
  2  5  1  0
  5  6  1  0
  6  7  1  0
  7  8  1  0
  8  9  1  0
  9 10  1  0
 10 11  1  0
 11 12  1  0
 12 13  1  0
 13 14  1  0
 14 15  1  0
 15 16  1  0
 16 17  1  0
 17 18  2  0
 11 19  1  0
 19 20  1  0
 20  8  1  0
 17 13  1  0
  1 21  1  0
  1 22  1  0
  1 23  1  0
  5 24  1  0
  5 25  1  0
  6 26  1  0
  6 27  1  0
  7 28  1  0
  7 29  1  0
  9 30  1  0
  9 31  1  0
 10 32  1  0
 10 33  1  0
 11 34  1  0
 12 35  1  0
 12 36  1  0
 14 37  1  0
 14 38  1  0
 15 39  1  0
 15 40  1  0
 16 41  1  0
 16 42  1  0
 19 43  1  0
 19 44  1  0
 20 45  1  0
 20 46  1  0
A    1
 C1 
A    2
 S1 
A    3
 O1 
A    4
 O2 
A    5
 C2 
A    6
 C3 
A    7
 C4 
A    8
 N1 
A    9
 C5 
A   10
 C6 
A   11
 C7 
A   12
 C8 
A   13
 N2 
A   14
 C9 
A   15
 C10
A   16
 C11
A   17
 C12
A   18
 O3 
A   19
 C13
A   20
 C14
A   21
 H1 
A   22
 H2 
A   23
 H3 
A   24
 H4 
A   25
 H5 
A   26
 H6 
A   27
 H7 
A   28
 H8 
A   29
 H9 
A   30
 H10
A   31
 H11
A   32
 H12
A   33
 H13
A   34
 H14
A   35
 H15
A   36
 H16
A   37
 H17
A   38
 H18
A   39
 H19
A   40
 H20
A   41
 H21
A   42
 H22
A   43
 H23
A   44
 H24
A   45
 H25
A   46
 H26
M  END
>  <ref_pdb>  (110) 
x0147_0A

>  <ref_mols>  (110) 
x1071_0A,x1247_0AS1

>  <original SMILES>  (110) 
[H]C1([H])C(=O)N(C([H])([H])C2([H])C([H])([H])C([H])([H])N(C([H])([H])C([H])([H])C([H])([H])S(=O)(=O)C([H])([H])[H])C([H])([H])C2([H])[H])C([H])([H])C1([H])[H]

>  <index>  (110) 
1910

>  <∆∆G>  (110) 
-6.869017

>  <comRMSD>  (110) 
0.533635

>  <N_constrained_atoms>  (110) 
20.0

>  <N_unconstrained_atoms>  (110) 
1.0

>  <LE>  (110) 
0.327096

>  <percent_hybrid>  (110) 
30.0

>  <max_hit_Tanimoto>  (110) 
0.336815

>  <largest_ring>  (110) 
6

>  <N_interactions_kept>  (110) 
3.0

>  <N_interactions_lost>  (110) 
0.0

>  <interaction_uniqueness_metric>  (110) 
0.013896

>  <N_HA>  (110) 
20

>  <N_rotatable_bonds>  (110) 
7

>  <N_interactions>  (110) 
2

>  <N_PAINS>  (110) 
0

>  <UFF_Gibbs>  (110) 
143.926348

>  <strain_per_HA>  (110) 
7.196281

>  <ad_hoc_penalty>  (110) 
-26.513531

>  <cluster>  (110) 
6922

>  <ranked>  (110) 
126.0

>  <merger_rank>  (110) 
2

>  <hydroph_interaction:LEU:127>  (110) 
2

>  <hbond:GLY:128>  (110) 
0

>  <hydroph_interaction:ALA:144>  (110) 
0

>  <hbond:GLY:164>  (110) 
0

>  <hbond:HIS:40>  (110) 
0

>  <pistack:HIS:40>  (110) 
0

>  <hydroph_interaction:LEU:125>  (110) 
0

>  <hydroph_interaction:PHE:170>  (110) 
0

>  <hydroph_interaction:HIS:40>  (110) 
0

>  <pication:HIS:40>  (110) 
0

>  <hbond:THR:142>  (110) 
0

>  <hbond:HIS:161>  (110) 
0

>  <hbond:GLY:166>  (110) 
0

>  <hbond:VAL:162>  (110) 
0

>  <hydroph_interaction:ASN:165>  (110) 
0

>  <hbond:ASN:126>  (110) 
0

>  <hbond:ARG:143>  (110) 
0

>  <hbond:GLU:71>  (110) 
0

>  <saltbridge:HIS:161>  (110) 
0

>  <hbond:ALA:144>  (110) 
0

>  <hbond:GLY:145>  (110) 
0

>  <hbond:GLN:146>  (110) 
0

>  <hbond:CYS:147>  (110) 
0

>  <halogenbond:ASN:126>  (110) 
0

>  <saltbridge:HIS:40>  (110) 
0

>  <hbond:LEU:127>  (110) 
0

>  <hbond:THR:130>  (110) 
0

>  <hydroph_interaction:GLU:71>  (110) 
0

>  <hydroph_interaction:THR:130>  (110) 
0

>  <saltbridge:ARG:143>  (110) 
0

>  <saltbridge:GLU:71>  (110) 
0

>  <hbond:GLY:129>  (110) 
0

>  <halogenbond:CYS:147>  (110) 
0

>  <hydroph_interaction:THR:39>  (110) 
0

>  <hbond:ASN:69>  (110) 
0

>  <hydroph_interaction:THR:132>  (110) 
0

>  <hbond:TYR:122>  (110) 
0

>  <hydroph_interaction:PHE:109>  (110) 
0

>  <hydroph_interaction:PHE:140>  (110) 
0

>  <hbond:PRO:141>  (110) 
0

$$$$
Z3245079019-x1329-0AS3
     RDKit          3D

 32 32  0  0  0  0  0  0  0  0999 V2000
   -6.1360   -5.3250   -1.0720 C   0  0  0  0  0  0  0  0  0  0  0  0
   -7.3530   -5.6670   -1.8880 C   0  0  0  0  0  0  0  0  0  0  0  0
   -6.9890   -5.4830   -3.6570 S   0  0  0  0  0  6  0  0  0  0  0  0
   -8.1440   -5.9950   -4.3570 O   0  0  0  0  0  0  0  0  0  0  0  0
   -6.4660   -4.1410   -3.8560 O   0  0  0  0  0  0  0  0  0  0  0  0
   -5.7200   -6.5820   -3.9020 N   0  0  0  0  0  0  0  0  0  0  0  0
   -5.8350   -7.8840   -3.4470 C   0  0  0  0  0  0  0  0  0  0  0  0
   -5.3560   -8.0360   -2.0030 C   0  0  0  0  0  0  0  0  0  0  0  0
   -6.2720   -8.7180   -1.0230 C   0  0  0  0  0  0  0  0  0  0  0  0
   -5.7870   -8.8400    0.3840 C   0  0  0  0  0  0  0  0  0  0  0  0
   -4.4870   -8.3280    0.7980 C   0  0  0  0  0  0  0  0  0  0  0  0
   -4.1370   -8.4820    2.1300 C   0  0  0  0  0  0  0  0  0  0  0  0
   -3.7250   -7.7310   -0.1830 C   0  0  0  0  0  0  0  0  0  0  0  0
   -2.4720   -7.2380    0.1600 C   0  0  0  0  0  0  0  0  0  0  0  0
   -4.1260   -7.5810   -1.5340 C   0  0  0  0  0  0  0  0  0  0  0  0
   -6.1550   -5.8490   -0.1170 H   0  0  0  0  0  0  0  0  0  0  0  0
   -6.0820   -4.2510   -0.8910 H   0  0  0  0  0  0  0  0  0  0  0  0
   -5.2310   -5.6270   -1.6050 H   0  0  0  0  0  0  0  0  0  0  0  0
   -7.6900   -6.6890   -1.6840 H   0  0  0  0  0  0  0  0  0  0  0  0
   -8.1810   -4.9950   -1.6320 H   0  0  0  0  0  0  0  0  0  0  0  0
   -4.8260   -6.2520   -4.2850 H   0  0  0  0  0  0  0  0  0  0  0  0
   -5.2320   -8.5440   -4.0860 H   0  0  0  0  0  0  0  0  0  0  0  0
   -6.8710   -8.2260   -3.5090 H   0  0  0  0  0  0  0  0  0  0  0  0
   -7.2530   -9.1050   -1.3240 H   0  0  0  0  0  0  0  0  0  0  0  0
   -6.3500   -9.3040    1.1890 H   0  0  0  0  0  0  0  0  0  0  0  0
   -3.8710   -7.5250    2.5900 H   0  0  0  0  0  0  0  0  0  0  0  0
   -3.2770   -9.1510    2.2280 H   0  0  0  0  0  0  0  0  0  0  0  0
   -4.9790   -8.9100    2.6870 H   0  0  0  0  0  0  0  0  0  0  0  0
   -2.0180   -7.9660    0.8490 H   0  0  0  0  0  0  0  0  0  0  0  0
   -2.3610   -6.2660    0.6300 H   0  0  0  0  0  0  0  0  0  0  0  0
   -1.8460   -7.2230   -0.7310 H   0  0  0  0  0  0  0  0  0  0  0  0
   -3.4450   -7.0870   -2.2360 H   0  0  0  0  0  0  0  0  0  0  0  0
  1  2  1  0
  2  3  1  0
  3  4  2  0
  3  5  2  0
  3  6  1  0
  6  7  1  0
  7  8  1  0
  8  9  2  0
  9 10  1  0
 10 11  2  0
 11 12  1  0
 11 13  1  0
 13 14  1  0
 13 15  2  0
 15  8  1  0
  1 16  1  0
  1 17  1  0
  1 18  1  0
  2 19  1  0
  2 20  1  0
  6 21  1  0
  7 22  1  0
  7 23  1  0
  9 24  1  0
 10 25  1  0
 12 26  1  0
 12 27  1  0
 12 28  1  0
 14 29  1  0
 14 30  1  0
 14 31  1  0
 15 32  1  0
A    1
 C1 
A    2
 C2 
A    3
 S1 
A    4
 O1 
A    5
 O2 
A    6
 N1 
A    7
 C3 
A    8
 C4 
A    9
 C5 
A   10
 C6 
A   11
 C7 
A   12
 C8 
A   13
 C9 
A   14
 C10
A   15
 C11
A   16
 H1 
A   17
 H2 
A   18
 H3 
A   19
 H4 
A   20
 H5 
A   21
 H6 
A   22
 H7 
A   23
 H8 
A   24
 H9 
A   25
 H10
A   26
 H11
A   27
 H12
A   28
 H13
A   29
 H14
A   30
 H15
A   31
 H16
A   32
 H17
M  END
>  <ref_pdb>  (111) 
x0147_0A

>  <ref_mols>  (111) 
x1329_0AS3,x1140_0AS5

>  <original SMILES>  (111) 
[H]c1c([H])c(C([H])([H])N([H])S(=O)(=O)C([H])([H])C([H])([H])[H])c([H])c(C([H])([H])[H])c1C([H])([H])[H]

>  <index>  (111) 
8469

>  <∆∆G>  (111) 
-9.575511

>  <comRMSD>  (111) 
0.767708

>  <N_constrained_atoms>  (111) 
16.0

>  <N_unconstrained_atoms>  (111) 
1.0

>  <LE>  (111) 
0.563265

>  <percent_hybrid>  (111) 
20.0

>  <max_hit_Tanimoto>  (111) 
0.734127

>  <largest_ring>  (111) 
6

>  <N_interactions_kept>  (111) 
0.5

>  <N_interactions_lost>  (111) 
3.5

>  <interaction_uniqueness_metric>  (111) 
0.07058

>  <N_HA>  (111) 
15

>  <N_rotatable_bonds>  (111) 
7

>  <N_interactions>  (111) 
6

>  <N_PAINS>  (111) 
0

>  <UFF_Gibbs>  (111) 
80.989472

>  <strain_per_HA>  (111) 
5.399262

>  <ad_hoc_penalty>  (111) 
-26.374021

>  <cluster>  (111) 
5363

>  <ranked>  (111) 
129.0

>  <merger_rank>  (111) 
1

>  <hydroph_interaction:LEU:127>  (111) 
3

>  <hbond:GLY:128>  (111) 
0

>  <hydroph_interaction:ALA:144>  (111) 
0

>  <hbond:GLY:164>  (111) 
1

>  <hbond:HIS:40>  (111) 
0

>  <pistack:HIS:40>  (111) 
1

>  <hydroph_interaction:LEU:125>  (111) 
0

>  <hydroph_interaction:PHE:170>  (111) 
0

>  <hydroph_interaction:HIS:40>  (111) 
0

>  <pication:HIS:40>  (111) 
0

>  <hbond:THR:142>  (111) 
0

>  <hbond:HIS:161>  (111) 
0

>  <hbond:GLY:166>  (111) 
0

>  <hbond:VAL:162>  (111) 
1

>  <hydroph_interaction:ASN:165>  (111) 
0

>  <hbond:ASN:126>  (111) 
0

>  <hbond:ARG:143>  (111) 
0

>  <hbond:GLU:71>  (111) 
0

>  <saltbridge:HIS:161>  (111) 
0

>  <hbond:ALA:144>  (111) 
0

>  <hbond:GLY:145>  (111) 
0

>  <hbond:GLN:146>  (111) 
0

>  <hbond:CYS:147>  (111) 
0

>  <halogenbond:ASN:126>  (111) 
0

>  <saltbridge:HIS:40>  (111) 
0

>  <hbond:LEU:127>  (111) 
0

>  <hbond:THR:130>  (111) 
0

>  <hydroph_interaction:GLU:71>  (111) 
0

>  <hydroph_interaction:THR:130>  (111) 
0

>  <saltbridge:ARG:143>  (111) 
0

>  <saltbridge:GLU:71>  (111) 
0

>  <hbond:GLY:129>  (111) 
0

>  <halogenbond:CYS:147>  (111) 
0

>  <hydroph_interaction:THR:39>  (111) 
0

>  <hbond:ASN:69>  (111) 
0

>  <hydroph_interaction:THR:132>  (111) 
0

>  <hbond:TYR:122>  (111) 
0

>  <hydroph_interaction:PHE:109>  (111) 
0

>  <hydroph_interaction:PHE:140>  (111) 
0

>  <hbond:PRO:141>  (111) 
0

$$$$
Z339577344-x1071-0AS4
     RDKit          3D

 37 38  0  0  0  0  0  0  0  0999 V2000
   -6.7290   -3.4360   -2.4040 O   0  0  0  0  0  0  0  0  0  0  0  0
   -6.7190   -4.5600   -2.8430 C   0  0  0  0  0  0  0  0  0  0  0  0
   -7.0690   -4.8190   -4.1260 N   0  0  0  0  0  0  0  0  0  0  0  0
   -8.3050   -5.6350   -4.2000 C   0  0  0  0  0  0  0  0  0  0  0  0
   -8.4350   -6.3290   -5.5830 C   0  0  0  0  0  0  0  0  0  0  0  0
   -8.2260   -5.3530   -6.7320 C   0  0  0  0  0  0  0  0  0  0  0  0
   -9.1600   -4.1200   -6.6010 C   0  0  0  0  0  0  0  0  0  0  0  0
   -9.0570   -3.0460   -7.6540 C   0  0  0  0  0  0  0  0  0  0  0  0
   -8.0340   -3.3980   -8.6620 C   0  0  0  0  0  0  0  0  0  0  0  0
   -7.1310   -4.6120   -8.7930 C   0  0  0  0  0  0  0  0  0  0  0  0
   -7.2950   -5.5460   -7.7760 C   0  0  0  0  0  0  0  0  0  0  0  0
   -6.3580   -5.6800   -2.1260 N   0  0  0  0  0  0  0  0  0  0  0  0
   -6.9730   -6.1000   -0.9740 C   0  0  0  0  0  0  0  0  0  0  0  0
   -6.4590   -7.1860   -0.2830 C   0  0  0  0  0  0  0  0  0  0  0  0
   -4.9940   -7.4960   -0.5890 C   0  0  0  0  0  0  0  0  0  0  0  0
   -4.7040   -7.5550   -1.9640 C   0  0  0  0  0  0  0  0  0  0  0  0
   -5.6690   -6.7500   -2.8600 C   0  0  0  0  0  0  0  0  0  0  0  0
   -6.2980   -5.0330   -4.7570 H   0  0  0  0  0  0  0  0  0  0  0  0
   -9.1350   -4.9310   -4.0810 H   0  0  0  0  0  0  0  0  0  0  0  0
   -8.3210   -6.3010   -3.3410 H   0  0  0  0  0  0  0  0  0  0  0  0
   -7.7010   -7.1410   -5.6400 H   0  0  0  0  0  0  0  0  0  0  0  0
   -9.4240   -6.7880   -5.6740 H   0  0  0  0  0  0  0  0  0  0  0  0
   -9.8650   -4.0300   -5.7670 H   0  0  0  0  0  0  0  0  0  0  0  0
   -9.6460   -2.1320   -7.6790 H   0  0  0  0  0  0  0  0  0  0  0  0
   -7.9410   -2.6420   -9.4120 H   0  0  0  0  0  0  0  0  0  0  0  0
   -6.4310   -4.7360   -9.5970 H   0  0  0  0  0  0  0  0  0  0  0  0
   -6.6720   -6.4560   -7.7940 H   0  0  0  0  0  0  0  0  0  0  0  0
   -8.0360   -6.2740   -1.1650 H   0  0  0  0  0  0  0  0  0  0  0  0
   -6.9080   -5.2720   -0.2690 H   0  0  0  0  0  0  0  0  0  0  0  0
   -7.0150   -8.1290   -0.3480 H   0  0  0  0  0  0  0  0  0  0  0  0
   -6.4900   -6.9070    0.7740 H   0  0  0  0  0  0  0  0  0  0  0  0
   -4.3470   -6.7450   -0.1170 H   0  0  0  0  0  0  0  0  0  0  0  0
   -4.7630   -8.4610   -0.1160 H   0  0  0  0  0  0  0  0  0  0  0  0
   -4.7150   -8.6010   -2.2880 H   0  0  0  0  0  0  0  0  0  0  0  0
   -3.6680   -7.2340   -2.1170 H   0  0  0  0  0  0  0  0  0  0  0  0
   -5.1610   -6.3620   -3.7500 H   0  0  0  0  0  0  0  0  0  0  0  0
   -6.3040   -7.5720   -3.1890 H   0  0  0  0  0  0  0  0  0  0  0  0
  1  2  2  0
  2  3  1  0
  3  4  1  0
  4  5  1  0
  5  6  1  0
  6  7  2  0
  7  8  1  0
  8  9  2  0
  9 10  1  0
 10 11  2  0
  2 12  1  0
 12 13  1  0
 13 14  1  0
 14 15  1  0
 15 16  1  0
 16 17  1  0
 11  6  1  0
 17 12  1  0
  3 18  1  0
  4 19  1  0
  4 20  1  0
  5 21  1  0
  5 22  1  0
  7 23  1  0
  8 24  1  0
  9 25  1  0
 10 26  1  0
 11 27  1  0
 13 28  1  0
 13 29  1  0
 14 30  1  0
 14 31  1  0
 15 32  1  0
 15 33  1  0
 16 34  1  0
 16 35  1  0
 17 36  1  0
 17 37  1  0
A    1
 O1 
A    2
 C1 
A    3
 N1 
A    4
 C2 
A    5
 C3 
A    6
 C4 
A    7
 C5 
A    8
 C6 
A    9
 C7 
A   10
 C8 
A   11
 C9 
A   12
 N2 
A   13
 C10
A   14
 C11
A   15
 C12
A   16
 C13
A   17
 C14
A   18
 H1 
A   19
 H2 
A   20
 H3 
A   21
 H4 
A   22
 H5 
A   23
 H6 
A   24
 H7 
A   25
 H8 
A   26
 H9 
A   27
 H10
A   28
 H11
A   29
 H12
A   30
 H13
A   31
 H14
A   32
 H15
A   33
 H16
A   34
 H17
A   35
 H18
A   36
 H19
A   37
 H20
M  END
>  <ref_pdb>  (112) 
x0147_0A

>  <ref_mols>  (112) 
x1071_0AS4,x0980_0BS5

>  <original SMILES>  (112) 
[H]c1c([H])c([H])c(C([H])([H])C([H])([H])N([H])C(=O)N2C([H])([H])C([H])([H])C([H])([H])C([H])([H])C2([H])[H])c([H])c1[H]

>  <index>  (112) 
10488

>  <∆∆G>  (112) 
-5.975078

>  <comRMSD>  (112) 
0.990264

>  <N_constrained_atoms>  (112) 
15.0

>  <N_unconstrained_atoms>  (112) 
2.0

>  <LE>  (112) 
0.351475

>  <percent_hybrid>  (112) 
40.0

>  <max_hit_Tanimoto>  (112) 
0.260417

>  <largest_ring>  (112) 
6

>  <N_interactions_kept>  (112) 
0.5

>  <N_interactions_lost>  (112) 
1.0

>  <interaction_uniqueness_metric>  (112) 
0.028134

>  <N_HA>  (112) 
17

>  <N_rotatable_bonds>  (112) 
3

>  <N_interactions>  (112) 
3

>  <N_PAINS>  (112) 
0

>  <UFF_Gibbs>  (112) 
125.709123

>  <strain_per_HA>  (112) 
7.394611

>  <ad_hoc_penalty>  (112) 
-26.303867

>  <cluster>  (112) 
2160

>  <ranked>  (112) 
130.0

>  <merger_rank>  (112) 
2

>  <hydroph_interaction:LEU:127>  (112) 
0

>  <hbond:GLY:128>  (112) 
1

>  <hydroph_interaction:ALA:144>  (112) 
0

>  <hbond:GLY:164>  (112) 
2

>  <hbond:HIS:40>  (112) 
0

>  <pistack:HIS:40>  (112) 
0

>  <hydroph_interaction:LEU:125>  (112) 
0

>  <hydroph_interaction:PHE:170>  (112) 
0

>  <hydroph_interaction:HIS:40>  (112) 
0

>  <pication:HIS:40>  (112) 
0

>  <hbond:THR:142>  (112) 
0

>  <hbond:HIS:161>  (112) 
0

>  <hbond:GLY:166>  (112) 
0

>  <hbond:VAL:162>  (112) 
0

>  <hydroph_interaction:ASN:165>  (112) 
0

>  <hbond:ASN:126>  (112) 
0

>  <hbond:ARG:143>  (112) 
0

>  <hbond:GLU:71>  (112) 
0

>  <saltbridge:HIS:161>  (112) 
0

>  <hbond:ALA:144>  (112) 
0

>  <hbond:GLY:145>  (112) 
0

>  <hbond:GLN:146>  (112) 
0

>  <hbond:CYS:147>  (112) 
0

>  <halogenbond:ASN:126>  (112) 
0

>  <saltbridge:HIS:40>  (112) 
0

>  <hbond:LEU:127>  (112) 
0

>  <hbond:THR:130>  (112) 
0

>  <hydroph_interaction:GLU:71>  (112) 
0

>  <hydroph_interaction:THR:130>  (112) 
0

>  <saltbridge:ARG:143>  (112) 
0

>  <saltbridge:GLU:71>  (112) 
0

>  <hbond:GLY:129>  (112) 
0

>  <halogenbond:CYS:147>  (112) 
0

>  <hydroph_interaction:THR:39>  (112) 
0

>  <hbond:ASN:69>  (112) 
0

>  <hydroph_interaction:THR:132>  (112) 
0

>  <hbond:TYR:122>  (112) 
0

>  <hydroph_interaction:PHE:109>  (112) 
0

>  <hydroph_interaction:PHE:140>  (112) 
0

>  <hbond:PRO:141>  (112) 
0

$$$$
Z3621474998-x0130-0AS1
     RDKit          3D

 38 38  0  0  0  0  0  0  0  0999 V2000
    0.8370   -9.8720    2.8040 C   0  0  0  0  0  0  0  0  0  0  0  0
   -0.5690   -9.8840    2.2700 C   0  0  0  0  0  0  0  0  0  0  0  0
   -1.5040   -9.4190    2.9190 O   0  0  0  0  0  0  0  0  0  0  0  0
   -2.7520   -9.4340    2.3530 C   0  0  0  0  0  0  0  0  0  0  0  0
   -3.4710  -10.6620    2.2090 O   0  0  0  0  0  0  0  0  0  0  0  0
   -3.2790   -8.2140    1.9520 C   0  0  0  0  0  0  0  0  0  0  0  0
   -3.9610   -8.2350    0.7340 C   0  0  0  0  0  0  0  0  0  0  0  0
   -5.2720   -8.9420    0.5140 C   0  0  0  0  0  0  0  0  0  0  0  0
   -5.9650   -8.9080   -0.8480 C   0  0  0  0  0  0  0  0  0  0  0  0
   -5.3190   -8.1520   -1.9810 C   0  0  0  0  0  0  0  0  0  0  0  0
   -5.8590   -7.9920   -3.4070 C   0  0  0  0  0  0  0  0  0  0  0  0
   -5.7980   -6.7020   -4.0180 N   0  0  0  0  0  0  0  0  0  0  0  0
   -7.0470   -5.5740   -3.7050 S   0  0  0  0  0  6  0  0  0  0  0  0
   -8.2360   -6.0620   -4.3470 O   0  0  0  0  0  0  0  0  0  0  0  0
   -6.5440   -4.2280   -3.9410 O   0  0  0  0  0  0  0  0  0  0  0  0
   -7.3240   -5.7490   -1.9510 C   0  0  0  0  0  0  0  0  0  0  0  0
   -6.3620   -4.8950   -1.1540 C   0  0  0  0  0  0  0  0  0  0  0  0
   -4.1010   -7.5260   -1.7080 C   0  0  0  0  0  0  0  0  0  0  0  0
   -3.4190   -7.5670   -0.3520 C   0  0  0  0  0  0  0  0  0  0  0  0
    1.1310  -10.8770    3.1200 H   0  0  0  0  0  0  0  0  0  0  0  0
    1.5410   -9.5350    2.0350 H   0  0  0  0  0  0  0  0  0  0  0  0
    0.9120   -9.1880    3.6550 H   0  0  0  0  0  0  0  0  0  0  0  0
   -0.8370  -10.9290    2.1010 H   0  0  0  0  0  0  0  0  0  0  0  0
   -0.5480   -9.4040    1.2850 H   0  0  0  0  0  0  0  0  0  0  0  0
   -4.0590   -7.9600    2.6810 H   0  0  0  0  0  0  0  0  0  0  0  0
   -2.5810   -7.3780    2.0230 H   0  0  0  0  0  0  0  0  0  0  0  0
   -5.7330   -9.4850    1.3450 H   0  0  0  0  0  0  0  0  0  0  0  0
   -6.9190   -9.3970   -1.0780 H   0  0  0  0  0  0  0  0  0  0  0  0
   -5.3290   -8.6910   -4.0620 H   0  0  0  0  0  0  0  0  0  0  0  0
   -6.8950   -8.3480   -3.4130 H   0  0  0  0  0  0  0  0  0  0  0  0
   -4.8870   -6.3100   -4.2780 H   0  0  0  0  0  0  0  0  0  0  0  0
   -8.3490   -5.4330   -1.7320 H   0  0  0  0  0  0  0  0  0  0  0  0
   -7.2240   -6.8060   -1.6800 H   0  0  0  0  0  0  0  0  0  0  0  0
   -5.9060   -5.4760   -0.3500 H   0  0  0  0  0  0  0  0  0  0  0  0
   -6.8790   -4.0320   -0.7370 H   0  0  0  0  0  0  0  0  0  0  0  0
   -5.5810   -4.5420   -1.8200 H   0  0  0  0  0  0  0  0  0  0  0  0
   -3.5420   -6.9550   -2.4560 H   0  0  0  0  0  0  0  0  0  0  0  0
   -2.4710   -7.0230   -0.3130 H   0  0  0  0  0  0  0  0  0  0  0  0
  1  2  1  0
  2  3  1  0
  3  4  1  0
  4  5  2  0
  4  6  1  0
  6  7  1  0
  7  8  2  0
  8  9  1  0
  9 10  2  0
 10 11  1  0
 11 12  1  0
 12 13  1  0
 13 14  2  0
 13 15  2  0
 13 16  1  0
 16 17  1  0
 10 18  1  0
 18 19  2  0
 19  7  1  0
  1 20  1  0
  1 21  1  0
  1 22  1  0
  2 23  1  0
  2 24  1  0
  6 25  1  0
  6 26  1  0
  8 27  1  0
  9 28  1  0
 11 29  1  0
 11 30  1  0
 12 31  1  0
 16 32  1  0
 16 33  1  0
 17 34  1  0
 17 35  1  0
 17 36  1  0
 18 37  1  0
 19 38  1  0
A    1
 C1 
A    2
 C2 
A    3
 O1 
A    4
 C3 
A    5
 O2 
A    6
 C4 
A    7
 C5 
A    8
 C6 
A    9
 C7 
A   10
 C8 
A   11
 C9 
A   12
 N1 
A   13
 S1 
A   14
 O3 
A   15
 O4 
A   16
 C10
A   17
 C11
A   18
 C12
A   19
 C13
A   20
 H1 
A   21
 H2 
A   22
 H3 
A   23
 H4 
A   24
 H5 
A   25
 H6 
A   26
 H7 
A   27
 H8 
A   28
 H9 
A   29
 H10
A   30
 H11
A   31
 H12
A   32
 H13
A   33
 H14
A   34
 H15
A   35
 H16
A   36
 H17
A   37
 H18
A   38
 H19
M  END
>  <ref_pdb>  (113) 
x0147_0A

>  <ref_mols>  (113) 
x0130_0AS1,x1140_0A

>  <original SMILES>  (113) 
[H]c1c([H])c(C([H])([H])N([H])S(=O)(=O)C([H])([H])C([H])([H])[H])c([H])c([H])c1C([H])([H])C(=O)OC([H])([H])C([H])([H])[H]

>  <index>  (113) 
8382

>  <∆∆G>  (113) 
-8.614313

>  <comRMSD>  (113) 
0.528985

>  <N_constrained_atoms>  (113) 
19.0

>  <N_unconstrained_atoms>  (113) 
1.0

>  <LE>  (113) 
0.430716

>  <percent_hybrid>  (113) 
17.0

>  <max_hit_Tanimoto>  (113) 
0.379048

>  <largest_ring>  (113) 
6

>  <N_interactions_kept>  (113) 
3.0

>  <N_interactions_lost>  (113) 
3.0

>  <interaction_uniqueness_metric>  (113) 
0.159761

>  <N_HA>  (113) 
19

>  <N_rotatable_bonds>  (113) 
9

>  <N_interactions>  (113) 
7

>  <N_PAINS>  (113) 
0

>  <UFF_Gibbs>  (113) 
145.070867

>  <strain_per_HA>  (113) 
7.635269

>  <ad_hoc_penalty>  (113) 
-26.260573

>  <cluster>  (113) 
5391

>  <ranked>  (113) 
131.0

>  <merger_rank>  (113) 
2

>  <hydroph_interaction:LEU:127>  (113) 
2

>  <hbond:GLY:128>  (113) 
0

>  <hydroph_interaction:ALA:144>  (113) 
0

>  <hbond:GLY:164>  (113) 
1

>  <hbond:HIS:40>  (113) 
0

>  <pistack:HIS:40>  (113) 
1

>  <hydroph_interaction:LEU:125>  (113) 
0

>  <hydroph_interaction:PHE:170>  (113) 
0

>  <hydroph_interaction:HIS:40>  (113) 
1

>  <pication:HIS:40>  (113) 
0

>  <hbond:THR:142>  (113) 
0

>  <hbond:HIS:161>  (113) 
0

>  <hbond:GLY:166>  (113) 
0

>  <hbond:VAL:162>  (113) 
1

>  <hydroph_interaction:ASN:165>  (113) 
0

>  <hbond:ASN:126>  (113) 
0

>  <hbond:ARG:143>  (113) 
0

>  <hbond:GLU:71>  (113) 
0

>  <saltbridge:HIS:161>  (113) 
0

>  <hbond:ALA:144>  (113) 
0

>  <hbond:GLY:145>  (113) 
0

>  <hbond:GLN:146>  (113) 
0

>  <hbond:CYS:147>  (113) 
0

>  <halogenbond:ASN:126>  (113) 
0

>  <saltbridge:HIS:40>  (113) 
0

>  <hbond:LEU:127>  (113) 
0

>  <hbond:THR:130>  (113) 
0

>  <hydroph_interaction:GLU:71>  (113) 
0

>  <hydroph_interaction:THR:130>  (113) 
0

>  <saltbridge:ARG:143>  (113) 
0

>  <saltbridge:GLU:71>  (113) 
0

>  <hbond:GLY:129>  (113) 
0

>  <halogenbond:CYS:147>  (113) 
0

>  <hydroph_interaction:THR:39>  (113) 
1

>  <hbond:ASN:69>  (113) 
0

>  <hydroph_interaction:THR:132>  (113) 
0

>  <hbond:TYR:122>  (113) 
0

>  <hydroph_interaction:PHE:109>  (113) 
0

>  <hydroph_interaction:PHE:140>  (113) 
0

>  <hbond:PRO:141>  (113) 
0

$$$$
Z3176127070-x1084-0A
     RDKit          3D

 38 39  0  0  0  0  0  0  0  0999 V2000
   -7.5290   -7.3210   -3.2470 O   0  0  0  0  0  0  0  0  0  0  0  0
   -6.6730   -6.4660   -3.4340 C   0  0  0  0  0  0  0  0  0  0  0  0
   -6.8930   -5.1090   -3.8750 N   0  0  0  0  0  0  0  0  0  0  0  0
   -7.9290   -4.2990   -3.5510 C   0  0  0  0  0  0  0  0  0  0  0  0
   -9.1430   -4.1550   -4.3940 C   0  0  0  0  0  0  0  0  0  0  0  0
   -9.2330   -5.2760   -5.4390 C   0  0  0  0  0  0  0  0  0  0  0  0
   -8.6170   -4.7670   -6.7330 C   0  0  0  0  0  0  0  0  0  0  0  0
   -8.8130   -3.5350   -7.3550 C   0  0  0  0  0  0  0  0  0  0  0  0
   -7.9730   -3.5350   -8.5890 C   0  0  0  0  0  0  0  0  0  0  0  0
   -7.1980   -4.7090   -8.8720 C   0  0  0  0  0  0  0  0  0  0  0  0
   -7.4540   -5.8730   -7.6380 S   0  0  0  0  0  0  0  0  0  0  0  0
   -5.3360   -6.7300   -3.1700 N   0  0  0  0  0  0  0  0  0  0  0  0
   -4.8440   -7.2360   -1.9020 C   0  0  0  0  0  0  0  0  0  0  0  0
   -3.4700   -7.3700   -1.7470 C   0  0  0  0  0  0  0  0  0  0  0  0
   -2.9700   -7.8310   -0.5310 C   0  0  0  0  0  0  0  0  0  0  0  0
   -3.8490   -8.2050    0.6340 C   0  0  0  0  0  0  0  0  0  0  0  0
   -3.3080   -8.6630    1.8440 C   0  0  0  0  0  0  0  0  0  0  0  0
   -2.6030   -7.6210    2.5220 O   0  0  0  0  0  0  0  0  0  0  0  0
   -5.2170   -8.0740    0.4430 C   0  0  0  0  0  0  0  0  0  0  0  0
   -5.7370   -7.5620   -0.8890 C   0  0  0  0  0  0  0  0  0  0  0  0
   -5.9860   -4.6480   -3.9080 H   0  0  0  0  0  0  0  0  0  0  0  0
   -8.2630   -4.5730   -2.5450 H   0  0  0  0  0  0  0  0  0  0  0  0
   -7.4880   -3.3060   -3.4380 H   0  0  0  0  0  0  0  0  0  0  0  0
   -9.0680   -3.1530   -4.8310 H   0  0  0  0  0  0  0  0  0  0  0  0
  -10.0000   -4.0990   -3.7210 H   0  0  0  0  0  0  0  0  0  0  0  0
   -8.8980   -6.2470   -5.0860 H   0  0  0  0  0  0  0  0  0  0  0  0
  -10.2960   -5.4300   -5.6490 H   0  0  0  0  0  0  0  0  0  0  0  0
   -9.4450   -2.7230   -7.0220 H   0  0  0  0  0  0  0  0  0  0  0  0
   -7.9650   -2.6610   -9.2370 H   0  0  0  0  0  0  0  0  0  0  0  0
   -6.5500   -4.8390   -9.7390 H   0  0  0  0  0  0  0  0  0  0  0  0
   -4.6390   -6.5880   -3.9240 H   0  0  0  0  0  0  0  0  0  0  0  0
   -2.7910   -7.1160   -2.5630 H   0  0  0  0  0  0  0  0  0  0  0  0
   -1.9210   -7.9630   -0.3130 H   0  0  0  0  0  0  0  0  0  0  0  0
   -4.1380   -8.9380    2.5030 H   0  0  0  0  0  0  0  0  0  0  0  0
   -2.6330   -9.5140    1.8060 H   0  0  0  0  0  0  0  0  0  0  0  0
   -1.7850   -7.4200    1.9850 H   0  0  0  0  0  0  0  0  0  0  0  0
   -5.9150   -8.3290    1.2390 H   0  0  0  0  0  0  0  0  0  0  0  0
   -6.8090   -7.4540   -1.0280 H   0  0  0  0  0  0  0  0  0  0  0  0
  1  2  2  0
  2  3  1  0
  3  4  1  0
  4  5  1  0
  5  6  1  0
  6  7  1  0
  7  8  2  0
  8  9  1  0
  9 10  2  0
 10 11  1  0
  2 12  1  0
 12 13  1  0
 13 14  2  0
 14 15  1  0
 15 16  2  0
 16 17  1  0
 17 18  1  0
 16 19  1  0
 19 20  2  0
 11  7  1  0
 20 13  1  0
  3 21  1  0
  4 22  1  0
  4 23  1  0
  5 24  1  0
  5 25  1  0
  6 26  1  0
  6 27  1  0
  8 28  1  0
  9 29  1  0
 10 30  1  0
 12 31  1  0
 14 32  1  0
 15 33  1  0
 17 34  1  0
 17 35  1  0
 18 36  1  0
 19 37  1  0
 20 38  1  0
A    1
 O1 
A    2
 C1 
A    3
 N1 
A    4
 C2 
A    5
 C3 
A    6
 C4 
A    7
 C5 
A    8
 C6 
A    9
 C7 
A   10
 C8 
A   11
 S1 
A   12
 N2 
A   13
 C9 
A   14
 C10
A   15
 C11
A   16
 C12
A   17
 C13
A   18
 O2 
A   19
 C14
A   20
 C15
A   21
 H1 
A   22
 H2 
A   23
 H3 
A   24
 H4 
A   25
 H5 
A   26
 H6 
A   27
 H7 
A   28
 H8 
A   29
 H9 
A   30
 H10
A   31
 H11
A   32
 H12
A   33
 H13
A   34
 H14
A   35
 H15
A   36
 H16
A   37
 H17
A   38
 H18
M  END
>  <ref_pdb>  (114) 
x0147_0A

>  <ref_mols>  (114) 
x1084_0A,x0789_0AS1

>  <original SMILES>  (114) 
[H]OC([H])([H])c1c([H])c([H])c(N([H])C(=O)N([H])C([H])([H])C([H])([H])C([H])([H])c2sc([H])c([H])c2[H])c([H])c1[H]

>  <index>  (114) 
6503

>  <∆∆G>  (114) 
-7.222693

>  <comRMSD>  (114) 
0.483045

>  <N_constrained_atoms>  (114) 
18.0

>  <N_unconstrained_atoms>  (114) 
2.0

>  <LE>  (114) 
0.361135

>  <percent_hybrid>  (114) 
34.0

>  <max_hit_Tanimoto>  (114) 
0.192843

>  <largest_ring>  (114) 
6

>  <N_interactions_kept>  (114) 
0.0

>  <N_interactions_lost>  (114) 
3.0

>  <interaction_uniqueness_metric>  (114) 
0.104941

>  <N_HA>  (114) 
20

>  <N_rotatable_bonds>  (114) 
7

>  <N_interactions>  (114) 
7

>  <N_PAINS>  (114) 
0

>  <UFF_Gibbs>  (114) 
92.892236

>  <strain_per_HA>  (114) 
4.644589

>  <ad_hoc_penalty>  (114) 
-26.260534

>  <cluster>  (114) 
1412

>  <ranked>  (114) 
132.0

>  <merger_rank>  (114) 
1

>  <hydroph_interaction:LEU:127>  (114) 
1

>  <hbond:GLY:128>  (114) 
0

>  <hydroph_interaction:ALA:144>  (114) 
0

>  <hbond:GLY:164>  (114) 
2

>  <hbond:HIS:40>  (114) 
0

>  <pistack:HIS:40>  (114) 
0

>  <hydroph_interaction:LEU:125>  (114) 
0

>  <hydroph_interaction:PHE:170>  (114) 
0

>  <hydroph_interaction:HIS:40>  (114) 
1

>  <pication:HIS:40>  (114) 
0

>  <hbond:THR:142>  (114) 
0

>  <hbond:HIS:161>  (114) 
0

>  <hbond:GLY:166>  (114) 
0

>  <hbond:VAL:162>  (114) 
1

>  <hydroph_interaction:ASN:165>  (114) 
0

>  <hbond:ASN:126>  (114) 
0

>  <hbond:ARG:143>  (114) 
0

>  <hbond:GLU:71>  (114) 
0

>  <saltbridge:HIS:161>  (114) 
0

>  <hbond:ALA:144>  (114) 
0

>  <hbond:GLY:145>  (114) 
0

>  <hbond:GLN:146>  (114) 
0

>  <hbond:CYS:147>  (114) 
0

>  <halogenbond:ASN:126>  (114) 
0

>  <saltbridge:HIS:40>  (114) 
0

>  <hbond:LEU:127>  (114) 
0

>  <hbond:THR:130>  (114) 
2

>  <hydroph_interaction:GLU:71>  (114) 
0

>  <hydroph_interaction:THR:130>  (114) 
0

>  <saltbridge:ARG:143>  (114) 
0

>  <saltbridge:GLU:71>  (114) 
0

>  <hbond:GLY:129>  (114) 
0

>  <halogenbond:CYS:147>  (114) 
0

>  <hydroph_interaction:THR:39>  (114) 
0

>  <hbond:ASN:69>  (114) 
0

>  <hydroph_interaction:THR:132>  (114) 
0

>  <hbond:TYR:122>  (114) 
0

>  <hydroph_interaction:PHE:109>  (114) 
0

>  <hydroph_interaction:PHE:140>  (114) 
0

>  <hbond:PRO:141>  (114) 
0

$$$$
Z417004114-x1071-0A
     RDKit          3D

 34 34  0  0  0  0  0  0  0  0999 V2000
   -6.4670    2.1140   -1.4030 C   0  0  0  0  0  0  0  0  0  0  0  0
   -7.2680    0.8660   -1.4380 C   0  0  0  0  0  0  0  0  0  0  0  0
   -6.2030   -0.5520   -1.0960 S   0  0  0  0  0  6  0  0  0  0  0  0
   -4.9310   -0.1450   -1.6140 O   0  0  0  0  0  0  0  0  0  0  0  0
   -6.4110   -0.8730    0.2760 O   0  0  0  0  0  0  0  0  0  0  0  0
   -6.8440   -1.9000   -2.1600 C   0  0  0  0  0  0  0  0  0  0  0  0
   -6.7830   -3.2140   -1.6720 C   0  0  0  0  0  0  0  0  0  0  0  0
   -6.6440   -4.2960   -2.5700 C   0  0  0  0  0  0  0  0  0  0  0  0
   -6.6550   -4.1240   -3.9260 O   0  0  0  0  0  0  0  0  0  0  0  0
   -6.4680   -5.5260   -2.1110 N   0  0  0  0  0  0  0  0  0  0  0  0
   -7.2100   -5.8940   -1.0230 C   0  0  0  0  0  0  0  0  0  0  0  0
   -6.6150   -7.0010   -0.4140 C   0  0  0  0  0  0  0  0  0  0  0  0
   -5.1160   -7.2930   -0.7100 C   0  0  0  0  0  0  0  0  0  0  0  0
   -4.8330   -7.3170   -2.2080 C   0  0  0  0  0  0  0  0  0  0  0  0
   -5.9930   -6.5610   -2.8750 C   0  0  0  0  0  0  0  0  0  0  0  0
   -6.0600    2.2790   -0.3980 H   0  0  0  0  0  0  0  0  0  0  0  0
   -5.6130    2.0660   -2.0830 H   0  0  0  0  0  0  0  0  0  0  0  0
   -7.0860    2.9810   -1.6480 H   0  0  0  0  0  0  0  0  0  0  0  0
   -8.0730    0.9540   -0.6980 H   0  0  0  0  0  0  0  0  0  0  0  0
   -7.7170    0.7210   -2.4240 H   0  0  0  0  0  0  0  0  0  0  0  0
   -6.1690   -1.8910   -3.0170 H   0  0  0  0  0  0  0  0  0  0  0  0
   -7.8540   -1.6520   -2.5040 H   0  0  0  0  0  0  0  0  0  0  0  0
   -7.6560   -3.4020   -1.0390 H   0  0  0  0  0  0  0  0  0  0  0  0
   -5.9230   -3.2930   -1.0310 H   0  0  0  0  0  0  0  0  0  0  0  0
   -8.2110   -6.1600   -1.3780 H   0  0  0  0  0  0  0  0  0  0  0  0
   -7.3350   -5.0630   -0.3270 H   0  0  0  0  0  0  0  0  0  0  0  0
   -6.7610   -6.9380    0.6690 H   0  0  0  0  0  0  0  0  0  0  0  0
   -7.1750   -7.8790   -0.7650 H   0  0  0  0  0  0  0  0  0  0  0  0
   -4.8770   -8.2310   -0.1990 H   0  0  0  0  0  0  0  0  0  0  0  0
   -4.5390   -6.5510   -0.1500 H   0  0  0  0  0  0  0  0  0  0  0  0
   -4.6850   -8.3190   -2.5990 H   0  0  0  0  0  0  0  0  0  0  0  0
   -3.8620   -6.8920   -2.4770 H   0  0  0  0  0  0  0  0  0  0  0  0
   -5.7940   -6.1230   -3.8510 H   0  0  0  0  0  0  0  0  0  0  0  0
   -6.8300   -7.2480   -3.0440 H   0  0  0  0  0  0  0  0  0  0  0  0
  1  2  1  0
  2  3  1  0
  3  4  2  0
  3  5  2  0
  3  6  1  0
  6  7  1  0
  7  8  1  0
  8  9  2  0
  8 10  1  0
 10 11  1  0
 11 12  1  0
 12 13  1  0
 13 14  1  0
 14 15  1  0
 15 10  1  0
  1 16  1  0
  1 17  1  0
  1 18  1  0
  2 19  1  0
  2 20  1  0
  6 21  1  0
  6 22  1  0
  7 23  1  0
  7 24  1  0
 11 25  1  0
 11 26  1  0
 12 27  1  0
 12 28  1  0
 13 29  1  0
 13 30  1  0
 14 31  1  0
 14 32  1  0
 15 33  1  0
 15 34  1  0
A    1
 C1 
A    2
 C2 
A    3
 S1 
A    4
 O1 
A    5
 O2 
A    6
 C3 
A    7
 C4 
A    8
 C5 
A    9
 O3 
A   10
 N1 
A   11
 C6 
A   12
 C7 
A   13
 C8 
A   14
 C9 
A   15
 C10
A   16
 H1 
A   17
 H2 
A   18
 H3 
A   19
 H4 
A   20
 H5 
A   21
 H6 
A   22
 H7 
A   23
 H8 
A   24
 H9 
A   25
 H10
A   26
 H11
A   27
 H12
A   28
 H13
A   29
 H14
A   30
 H15
A   31
 H16
A   32
 H17
A   33
 H18
A   34
 H19
M  END
>  <ref_pdb>  (115) 
x0147_0A

>  <ref_mols>  (115) 
x1071_0A,x1052_1AS1

>  <original SMILES>  (115) 
[H]C([H])([H])C([H])([H])S(=O)(=O)C([H])([H])C([H])([H])C(=O)N1C([H])([H])C([H])([H])C([H])([H])C([H])([H])C1([H])[H]

>  <index>  (115) 
6311

>  <∆∆G>  (115) 
-6.782833

>  <comRMSD>  (115) 
0.546458

>  <N_constrained_atoms>  (115) 
17.0

>  <N_unconstrained_atoms>  (115) 
0.0

>  <LE>  (115) 
0.39899

>  <percent_hybrid>  (115) 
22.0

>  <max_hit_Tanimoto>  (115) 
0.345304

>  <largest_ring>  (115) 
6

>  <N_interactions_kept>  (115) 
2.0

>  <N_interactions_lost>  (115) 
1.0

>  <interaction_uniqueness_metric>  (115) 
0.067387

>  <N_HA>  (115) 
15

>  <N_rotatable_bonds>  (115) 
5

>  <N_interactions>  (115) 
3

>  <N_PAINS>  (115) 
0

>  <UFF_Gibbs>  (115) 
118.280989

>  <strain_per_HA>  (115) 
7.885347

>  <ad_hoc_penalty>  (115) 
-26.221861

>  <cluster>  (115) 
5841

>  <ranked>  (115) 
134.0

>  <merger_rank>  (115) 
1

>  <hydroph_interaction:LEU:127>  (115) 
1

>  <hbond:GLY:128>  (115) 
0

>  <hydroph_interaction:ALA:144>  (115) 
0

>  <hbond:GLY:164>  (115) 
1

>  <hbond:HIS:40>  (115) 
0

>  <pistack:HIS:40>  (115) 
0

>  <hydroph_interaction:LEU:125>  (115) 
0

>  <hydroph_interaction:PHE:170>  (115) 
0

>  <hydroph_interaction:HIS:40>  (115) 
0

>  <pication:HIS:40>  (115) 
0

>  <hbond:THR:142>  (115) 
0

>  <hbond:HIS:161>  (115) 
0

>  <hbond:GLY:166>  (115) 
0

>  <hbond:VAL:162>  (115) 
0

>  <hydroph_interaction:ASN:165>  (115) 
1

>  <hbond:ASN:126>  (115) 
0

>  <hbond:ARG:143>  (115) 
0

>  <hbond:GLU:71>  (115) 
0

>  <saltbridge:HIS:161>  (115) 
0

>  <hbond:ALA:144>  (115) 
0

>  <hbond:GLY:145>  (115) 
0

>  <hbond:GLN:146>  (115) 
0

>  <hbond:CYS:147>  (115) 
0

>  <halogenbond:ASN:126>  (115) 
0

>  <saltbridge:HIS:40>  (115) 
0

>  <hbond:LEU:127>  (115) 
0

>  <hbond:THR:130>  (115) 
0

>  <hydroph_interaction:GLU:71>  (115) 
0

>  <hydroph_interaction:THR:130>  (115) 
0

>  <saltbridge:ARG:143>  (115) 
0

>  <saltbridge:GLU:71>  (115) 
0

>  <hbond:GLY:129>  (115) 
0

>  <halogenbond:CYS:147>  (115) 
0

>  <hydroph_interaction:THR:39>  (115) 
0

>  <hbond:ASN:69>  (115) 
0

>  <hydroph_interaction:THR:132>  (115) 
0

>  <hbond:TYR:122>  (115) 
0

>  <hydroph_interaction:PHE:109>  (115) 
0

>  <hydroph_interaction:PHE:140>  (115) 
0

>  <hbond:PRO:141>  (115) 
0

$$$$
Z4393525063-x1919-0AS6
     RDKit          3D

 42 43  0  0  0  0  0  0  0  0999 V2000
   -5.3800    0.2650   -1.8330 C   0  0  0  0  0  0  0  0  0  0  0  0
   -6.1510    0.2420   -0.6840 C   0  0  0  0  0  0  0  0  0  0  0  0
   -7.2440   -0.8030   -0.6170 C   0  0  0  0  0  0  0  0  0  0  0  0
   -6.6800   -2.1050   -0.6740 O   0  0  0  0  0  0  0  0  0  0  0  0
   -7.5910   -3.1000   -1.1530 C   0  0  0  0  0  0  0  0  0  0  0  0
   -6.8780   -4.4160   -1.3840 C   0  0  0  0  0  0  0  0  0  0  0  0
   -6.8160   -4.6950   -3.1250 S   0  0  0  0  0  6  0  0  0  0  0  0
   -6.2170   -3.5290   -3.7020 O   0  0  0  0  0  0  0  0  0  0  0  0
   -8.1170   -5.1580   -3.5480 O   0  0  0  0  0  0  0  0  0  0  0  0
   -5.6710   -5.8960   -3.2620 N   0  0  0  0  0  0  0  0  0  0  0  0
   -5.9940   -7.1260   -3.9820 C   0  0  0  0  0  0  0  0  0  0  0  0
   -6.0160   -8.3720   -3.2370 C   0  0  0  0  0  0  0  0  0  0  0  0
   -5.4710   -8.3870   -1.9440 C   0  0  0  0  0  0  0  0  0  0  0  0
   -6.2630   -8.8540   -0.8700 C   0  0  0  0  0  0  0  0  0  0  0  0
   -5.7740   -8.8990    0.4400 C   0  0  0  0  0  0  0  0  0  0  0  0
   -4.3750   -8.4380    0.6650 C   0  0  0  0  0  0  0  0  0  0  0  0
   -3.6500   -8.3840    1.8720 O   0  0  0  0  0  0  0  0  0  0  0  0
   -2.4280   -7.8970    1.5150 C   0  0  0  0  0  0  0  0  0  0  0  0
   -2.4410   -7.6610    0.0550 C   0  0  0  0  0  0  0  0  0  0  0  0
   -3.6500   -7.9950   -0.4340 C   0  0  0  0  0  0  0  0  0  0  0  0
   -4.1400   -7.9450   -1.7250 C   0  0  0  0  0  0  0  0  0  0  0  0
   -5.7180   -0.3190   -2.6960 H   0  0  0  0  0  0  0  0  0  0  0  0
   -4.3890   -0.1000   -1.5780 H   0  0  0  0  0  0  0  0  0  0  0  0
   -5.2680    1.3050   -2.1440 H   0  0  0  0  0  0  0  0  0  0  0  0
   -5.4780    0.1060    0.1710 H   0  0  0  0  0  0  0  0  0  0  0  0
   -6.6070    1.2340   -0.5910 H   0  0  0  0  0  0  0  0  0  0  0  0
   -7.8010   -0.7150    0.3270 H   0  0  0  0  0  0  0  0  0  0  0  0
   -7.9600   -0.6410   -1.4340 H   0  0  0  0  0  0  0  0  0  0  0  0
   -8.0450   -2.7440   -2.0860 H   0  0  0  0  0  0  0  0  0  0  0  0
   -8.4120   -3.2350   -0.4420 H   0  0  0  0  0  0  0  0  0  0  0  0
   -7.4150   -5.2350   -0.9000 H   0  0  0  0  0  0  0  0  0  0  0  0
   -5.8620   -4.3740   -0.9890 H   0  0  0  0  0  0  0  0  0  0  0  0
   -5.0200   -5.9510   -2.4790 H   0  0  0  0  0  0  0  0  0  0  0  0
   -5.2510   -7.2510   -4.7780 H   0  0  0  0  0  0  0  0  0  0  0  0
   -6.9680   -7.0240   -4.4740 H   0  0  0  0  0  0  0  0  0  0  0  0
   -7.0560   -8.7130   -3.2150 H   0  0  0  0  0  0  0  0  0  0  0  0
   -5.4770   -9.1370   -3.8020 H   0  0  0  0  0  0  0  0  0  0  0  0
   -7.2830   -9.1900   -1.0530 H   0  0  0  0  0  0  0  0  0  0  0  0
   -6.3830   -9.2570    1.2740 H   0  0  0  0  0  0  0  0  0  0  0  0
   -1.5470   -7.6940    2.1410 H   0  0  0  0  0  0  0  0  0  0  0  0
   -1.7330   -7.3010   -0.6810 H   0  0  0  0  0  0  0  0  0  0  0  0
   -3.5170   -7.5850   -2.5400 H   0  0  0  0  0  0  0  0  0  0  0  0
  1  2  1  0
  2  3  1  0
  3  4  1  0
  4  5  1  0
  5  6  1  0
  6  7  1  0
  7  8  2  0
  7  9  2  0
  7 10  1  0
 10 11  1  0
 11 12  1  0
 12 13  1  0
 13 14  2  0
 14 15  1  0
 15 16  2  0
 16 17  1  0
 17 18  1  0
 18 19  2  0
 19 20  1  0
 20 21  2  0
 21 13  1  0
 20 16  1  0
  1 22  1  0
  1 23  1  0
  1 24  1  0
  2 25  1  0
  2 26  1  0
  3 27  1  0
  3 28  1  0
  5 29  1  0
  5 30  1  0
  6 31  1  0
  6 32  1  0
 10 33  1  0
 11 34  1  0
 11 35  1  0
 12 36  1  0
 12 37  1  0
 14 38  1  0
 15 39  1  0
 18 40  1  0
 19 41  1  0
 21 42  1  0
A    1
 C1 
A    2
 C2 
A    3
 C3 
A    4
 O1 
A    5
 C4 
A    6
 C5 
A    7
 S1 
A    8
 O2 
A    9
 O3 
A   10
 N1 
A   11
 C6 
A   12
 C7 
A   13
 C8 
A   14
 C9 
A   15
 C10
A   16
 C11
A   17
 O4 
A   18
 C12
A   19
 C13
A   20
 C14
A   21
 C15
A   22
 H1 
A   23
 H2 
A   24
 H3 
A   25
 H4 
A   26
 H5 
A   27
 H6 
A   28
 H7 
A   29
 H8 
A   30
 H9 
A   31
 H10
A   32
 H11
A   33
 H12
A   34
 H13
A   35
 H14
A   36
 H15
A   37
 H16
A   38
 H17
A   39
 H18
A   40
 H19
A   41
 H20
A   42
 H21
M  END
>  <ref_pdb>  (116) 
x0147_0A

>  <ref_mols>  (116) 
x1919_0AS6,x1140_0AS2

>  <original SMILES>  (116) 
[H]c1oc2c([H])c([H])c(C([H])([H])C([H])([H])N([H])S(=O)(=O)C([H])([H])C([H])([H])OC([H])([H])C([H])([H])C([H])([H])[H])c([H])c2c1[H]

>  <index>  (116) 
1752

>  <∆∆G>  (116) 
-9.705791

>  <comRMSD>  (116) 
0.415936

>  <N_constrained_atoms>  (116) 
19.0

>  <N_unconstrained_atoms>  (116) 
2.0

>  <LE>  (116) 
0.462181

>  <percent_hybrid>  (116) 
48.0

>  <max_hit_Tanimoto>  (116) 
0.131148

>  <largest_ring>  (116) 
6

>  <N_interactions_kept>  (116) 
1.0

>  <N_interactions_lost>  (116) 
4.5

>  <interaction_uniqueness_metric>  (116) 
0.149608

>  <N_HA>  (116) 
21

>  <N_rotatable_bonds>  (116) 
10

>  <N_interactions>  (116) 
9

>  <N_PAINS>  (116) 
0

>  <UFF_Gibbs>  (116) 
95.011202

>  <strain_per_HA>  (116) 
4.524321

>  <ad_hoc_penalty>  (116) 
-26.127944

>  <cluster>  (116) 
2712

>  <ranked>  (116) 
135.0

>  <merger_rank>  (116) 
1

>  <hydroph_interaction:LEU:127>  (116) 
2

>  <hbond:GLY:128>  (116) 
1

>  <hydroph_interaction:ALA:144>  (116) 
0

>  <hbond:GLY:164>  (116) 
1

>  <hbond:HIS:40>  (116) 
0

>  <pistack:HIS:40>  (116) 
1

>  <hydroph_interaction:LEU:125>  (116) 
1

>  <hydroph_interaction:PHE:170>  (116) 
1

>  <hydroph_interaction:HIS:40>  (116) 
1

>  <pication:HIS:40>  (116) 
0

>  <hbond:THR:142>  (116) 
0

>  <hbond:HIS:161>  (116) 
0

>  <hbond:GLY:166>  (116) 
0

>  <hbond:VAL:162>  (116) 
1

>  <hydroph_interaction:ASN:165>  (116) 
0

>  <hbond:ASN:126>  (116) 
0

>  <hbond:ARG:143>  (116) 
0

>  <hbond:GLU:71>  (116) 
0

>  <saltbridge:HIS:161>  (116) 
0

>  <hbond:ALA:144>  (116) 
0

>  <hbond:GLY:145>  (116) 
0

>  <hbond:GLN:146>  (116) 
0

>  <hbond:CYS:147>  (116) 
0

>  <halogenbond:ASN:126>  (116) 
0

>  <saltbridge:HIS:40>  (116) 
0

>  <hbond:LEU:127>  (116) 
0

>  <hbond:THR:130>  (116) 
0

>  <hydroph_interaction:GLU:71>  (116) 
0

>  <hydroph_interaction:THR:130>  (116) 
0

>  <saltbridge:ARG:143>  (116) 
0

>  <saltbridge:GLU:71>  (116) 
0

>  <hbond:GLY:129>  (116) 
0

>  <halogenbond:CYS:147>  (116) 
0

>  <hydroph_interaction:THR:39>  (116) 
0

>  <hbond:ASN:69>  (116) 
0

>  <hydroph_interaction:THR:132>  (116) 
0

>  <hbond:TYR:122>  (116) 
0

>  <hydroph_interaction:PHE:109>  (116) 
0

>  <hydroph_interaction:PHE:140>  (116) 
0

>  <hbond:PRO:141>  (116) 
0

$$$$
PV-005480388538-x1919-0AS2
     RDKit          3D

 44 47  0  0  0  0  0  0  0  0999 V2000
   -5.8800   -4.4430   -3.5070 O   0  0  0  0  0  0  0  0  0  0  0  0
   -6.7640   -5.1790   -3.1340 C   0  0  0  0  0  0  0  0  0  0  0  0
   -6.8360   -6.6240   -3.2390 N   0  0  0  0  0  0  0  0  0  0  0  0
   -5.7000   -7.3600   -3.4100 C   0  0  0  0  0  0  0  0  0  0  0  0
   -5.2640   -7.8230   -2.0300 C   0  0  0  0  0  0  0  0  0  0  0  0
   -6.1910   -8.7840   -1.2720 C   0  0  0  0  0  0  0  0  0  0  0  0
   -5.7250   -9.2130    0.0900 C   0  0  0  0  0  0  0  0  0  0  0  0
   -4.3860   -8.6450    0.5690 C   0  0  0  0  0  0  0  0  0  0  0  0
   -3.8750   -8.9670    1.7800 O   0  0  0  0  0  0  0  0  0  0  0  0
   -2.6930   -8.1050    1.8280 C   0  0  0  0  0  0  0  0  0  0  0  0
   -2.5580   -7.5290    0.5680 C   0  0  0  0  0  0  0  0  0  0  0  0
   -3.6570   -7.7930   -0.2090 C   0  0  0  0  0  0  0  0  0  0  0  0
   -4.0490   -7.3750   -1.4710 C   0  0  0  0  0  0  0  0  0  0  0  0
   -7.9820   -4.5640   -2.4820 C   0  0  0  0  0  0  0  0  0  0  0  0
   -7.9040   -4.0190   -1.3770 O   0  0  0  0  0  0  0  0  0  0  0  0
   -9.1070   -4.7090   -3.3080 N   0  0  0  0  0  0  0  0  0  0  0  0
   -9.1670   -5.5490   -4.5180 C   0  0  0  0  0  0  0  0  0  0  0  0
   -9.2090   -4.6300   -5.7710 C   0  0  0  0  0  0  0  0  0  0  0  0
  -10.2700   -3.5590   -5.6790 C   0  0  0  0  0  0  0  0  0  0  0  0
  -10.4320   -2.6170   -6.6970 C   0  0  0  0  0  0  0  0  0  0  0  0
   -9.6090   -2.6540   -7.8040 C   0  0  0  0  0  0  0  0  0  0  0  0
   -8.5480   -3.7420   -7.8970 C   0  0  0  0  0  0  0  0  0  0  0  0
   -8.3640   -4.7050   -6.9170 C   0  0  0  0  0  0  0  0  0  0  0  0
   -7.3520   -5.5530   -7.2890 C   0  0  0  0  0  0  0  0  0  0  0  0
   -6.8190   -5.1290   -8.5740 N   0  0  0  0  0  0  0  0  0  0  0  0
   -7.5960   -4.0310   -8.8510 N   0  0  0  0  0  0  0  0  0  0  0  0
   -7.5750   -7.0770   -2.7200 H   0  0  0  0  0  0  0  0  0  0  0  0
   -5.8610   -8.0950   -4.1960 H   0  0  0  0  0  0  0  0  0  0  0  0
   -4.9570   -6.6580   -3.7980 H   0  0  0  0  0  0  0  0  0  0  0  0
   -7.1350   -9.1330   -1.7090 H   0  0  0  0  0  0  0  0  0  0  0  0
   -6.3410   -9.9020    0.6840 H   0  0  0  0  0  0  0  0  0  0  0  0
   -2.8230   -7.3180    2.5840 H   0  0  0  0  0  0  0  0  0  0  0  0
   -1.8160   -8.7100    2.0930 H   0  0  0  0  0  0  0  0  0  0  0  0
   -2.4640   -6.4470    0.6760 H   0  0  0  0  0  0  0  0  0  0  0  0
   -1.6420   -7.9080    0.1530 H   0  0  0  0  0  0  0  0  0  0  0  0
   -3.4230   -6.6970   -2.0430 H   0  0  0  0  0  0  0  0  0  0  0  0
   -9.9190   -4.1520   -3.0500 H   0  0  0  0  0  0  0  0  0  0  0  0
  -10.0070   -6.2260   -4.3940 H   0  0  0  0  0  0  0  0  0  0  0  0
   -8.2750   -6.1790   -4.5610 H   0  0  0  0  0  0  0  0  0  0  0  0
  -10.9230   -3.4990   -4.8130 H   0  0  0  0  0  0  0  0  0  0  0  0
  -11.1980   -1.8510   -6.6150 H   0  0  0  0  0  0  0  0  0  0  0  0
   -9.7030   -1.9280   -8.6040 H   0  0  0  0  0  0  0  0  0  0  0  0
   -6.9400   -6.4160   -6.7800 H   0  0  0  0  0  0  0  0  0  0  0  0
   -7.4140   -3.5270   -9.7130 H   0  0  0  0  0  0  0  0  0  0  0  0
  1  2  2  0
  2  3  1  0
  3  4  1  0
  4  5  1  0
  5  6  2  0
  6  7  1  0
  7  8  2  0
  8  9  1  0
  9 10  1  0
 10 11  1  0
 11 12  1  0
 12 13  2  0
  2 14  1  0
 14 15  2  0
 14 16  1  0
 16 17  1  0
 17 18  1  0
 18 19  2  0
 19 20  1  0
 20 21  2  0
 21 22  1  0
 22 23  2  0
 23 24  1  0
 24 25  2  0
 25 26  1  0
 13  5  1  0
 12  8  1  0
 23 18  1  0
 26 22  1  0
  3 27  1  0
  4 28  1  0
  4 29  1  0
  6 30  1  0
  7 31  1  0
 10 32  1  0
 10 33  1  0
 11 34  1  0
 11 35  1  0
 13 36  1  0
 16 37  1  0
 17 38  1  0
 17 39  1  0
 19 40  1  0
 20 41  1  0
 21 42  1  0
 24 43  1  0
 26 44  1  0
A    1
 O1 
A    2
 C1 
A    3
 N1 
A    4
 C2 
A    5
 C3 
A    6
 C4 
A    7
 C5 
A    8
 C6 
A    9
 O2 
A   10
 C7 
A   11
 C8 
A   12
 C9 
A   13
 C10
A   14
 C11
A   15
 O3 
A   16
 N2 
A   17
 C12
A   18
 C13
A   19
 C14
A   20
 C15
A   21
 C16
A   22
 C17
A   23
 C18
A   24
 C19
A   25
 N3 
A   26
 N4 
A   27
 H1 
A   28
 H2 
A   29
 H3 
A   30
 H4 
A   31
 H5 
A   32
 H6 
A   33
 H7 
A   34
 H8 
A   35
 H9 
A   36
 H10
A   37
 H11
A   38
 H12
A   39
 H13
A   40
 H14
A   41
 H15
A   42
 H16
A   43
 H17
A   44
 H18
M  END
>  <ref_pdb>  (117) 
x0147_0A

>  <ref_mols>  (117) 
x1919_0AS2,x1594_0A

>  <original SMILES>  (117) 
[H]c1c([H])c(C([H])([H])N([H])C(=O)C(=O)N([H])C([H])([H])c2c([H])c([H])c([H])c3c2c([H])nn3[H])c([H])c2c1OC([H])([H])C2([H])[H]

>  <index>  (117) 
9891

>  <∆∆G>  (117) 
-7.027093

>  <comRMSD>  (117) 
0.625107

>  <N_constrained_atoms>  (117) 
26.0

>  <N_unconstrained_atoms>  (117) 
1.0

>  <LE>  (117) 
0.260263

>  <percent_hybrid>  (117) 
39.0

>  <max_hit_Tanimoto>  (117) 
0.259217

>  <largest_ring>  (117) 
6

>  <N_interactions_kept>  (117) 
1.5

>  <N_interactions_lost>  (117) 
2.0

>  <interaction_uniqueness_metric>  (117) 
0.042519

>  <N_HA>  (117) 
26

>  <N_rotatable_bonds>  (117) 
4

>  <N_interactions>  (117) 
3

>  <N_PAINS>  (117) 
0

>  <UFF_Gibbs>  (117) 
152.956779

>  <strain_per_HA>  (117) 
5.88293

>  <ad_hoc_penalty>  (117) 
-26.112139

>  <cluster>  (117) 
2203

>  <ranked>  (117) 
136.0

>  <merger_rank>  (117) 
1

>  <hydroph_interaction:LEU:127>  (117) 
0

>  <hbond:GLY:128>  (117) 
0

>  <hydroph_interaction:ALA:144>  (117) 
0

>  <hbond:GLY:164>  (117) 
1

>  <hbond:HIS:40>  (117) 
0

>  <pistack:HIS:40>  (117) 
1

>  <hydroph_interaction:LEU:125>  (117) 
0

>  <hydroph_interaction:PHE:170>  (117) 
0

>  <hydroph_interaction:HIS:40>  (117) 
1

>  <pication:HIS:40>  (117) 
0

>  <hbond:THR:142>  (117) 
0

>  <hbond:HIS:161>  (117) 
0

>  <hbond:GLY:166>  (117) 
0

>  <hbond:VAL:162>  (117) 
0

>  <hydroph_interaction:ASN:165>  (117) 
0

>  <hbond:ASN:126>  (117) 
0

>  <hbond:ARG:143>  (117) 
0

>  <hbond:GLU:71>  (117) 
0

>  <saltbridge:HIS:161>  (117) 
0

>  <hbond:ALA:144>  (117) 
0

>  <hbond:GLY:145>  (117) 
0

>  <hbond:GLN:146>  (117) 
0

>  <hbond:CYS:147>  (117) 
0

>  <halogenbond:ASN:126>  (117) 
0

>  <saltbridge:HIS:40>  (117) 
0

>  <hbond:LEU:127>  (117) 
0

>  <hbond:THR:130>  (117) 
0

>  <hydroph_interaction:GLU:71>  (117) 
0

>  <hydroph_interaction:THR:130>  (117) 
0

>  <saltbridge:ARG:143>  (117) 
0

>  <saltbridge:GLU:71>  (117) 
0

>  <hbond:GLY:129>  (117) 
0

>  <halogenbond:CYS:147>  (117) 
0

>  <hydroph_interaction:THR:39>  (117) 
0

>  <hbond:ASN:69>  (117) 
0

>  <hydroph_interaction:THR:132>  (117) 
0

>  <hbond:TYR:122>  (117) 
0

>  <hydroph_interaction:PHE:109>  (117) 
0

>  <hydroph_interaction:PHE:140>  (117) 
0

>  <hbond:PRO:141>  (117) 
0

$$$$
Z4264833334-x1919-0AS6
     RDKit          3D

 47 48  0  0  0  0  0  0  0  0999 V2000
   -5.6150    0.8470    0.1520 C   0  0  0  0  0  0  0  0  0  0  0  0
   -6.3400    0.3630   -1.0700 C   0  0  0  0  0  0  0  0  0  0  0  0
   -5.5870   -0.0700   -2.2840 C   0  0  0  0  0  0  0  0  0  0  0  0
   -7.2900   -0.7570   -0.6410 C   0  0  0  0  0  0  0  0  0  0  0  0
   -6.6290   -2.0160   -0.7140 O   0  0  0  0  0  0  0  0  0  0  0  0
   -7.4860   -3.0640   -1.1640 C   0  0  0  0  0  0  0  0  0  0  0  0
   -6.8170   -4.4030   -1.4840 C   0  0  0  0  0  0  0  0  0  0  0  0
   -6.8030   -4.6750   -3.2370 S   0  0  0  0  0  6  0  0  0  0  0  0
   -6.1170   -3.5400   -3.7720 O   0  0  0  0  0  0  0  0  0  0  0  0
   -8.1650   -4.9570   -3.6290 O   0  0  0  0  0  0  0  0  0  0  0  0
   -5.8850   -6.0430   -3.5310 N   0  0  0  0  0  0  0  0  0  0  0  0
   -6.5770   -7.3330   -3.7190 C   0  0  0  0  0  0  0  0  0  0  0  0
   -5.6640   -8.3900   -3.2790 C   0  0  0  0  0  0  0  0  0  0  0  0
   -5.2300   -8.4400   -1.9430 C   0  0  0  0  0  0  0  0  0  0  0  0
   -5.9370   -9.2040   -1.0100 C   0  0  0  0  0  0  0  0  0  0  0  0
   -5.5080   -9.2750    0.3140 C   0  0  0  0  0  0  0  0  0  0  0  0
   -4.3850   -8.5860    0.6860 C   0  0  0  0  0  0  0  0  0  0  0  0
   -3.8550   -8.5790    1.9460 O   0  0  0  0  0  0  0  0  0  0  0  0
   -2.5470   -8.0440    1.6990 C   0  0  0  0  0  0  0  0  0  0  0  0
   -2.6010   -7.2450    0.4080 C   0  0  0  0  0  0  0  0  0  0  0  0
   -3.6790   -7.8230   -0.2220 C   0  0  0  0  0  0  0  0  0  0  0  0
   -4.0830   -7.7330   -1.5430 C   0  0  0  0  0  0  0  0  0  0  0  0
   -4.5940    0.4650    0.1700 H   0  0  0  0  0  0  0  0  0  0  0  0
   -5.5610    1.9390    0.1760 H   0  0  0  0  0  0  0  0  0  0  0  0
   -6.1310    0.5080    1.0540 H   0  0  0  0  0  0  0  0  0  0  0  0
   -6.9760    1.1800   -1.4220 H   0  0  0  0  0  0  0  0  0  0  0  0
   -5.8450   -1.1130   -2.4970 H   0  0  0  0  0  0  0  0  0  0  0  0
   -4.5110   -0.0020   -2.1270 H   0  0  0  0  0  0  0  0  0  0  0  0
   -5.8620    0.5280   -3.1550 H   0  0  0  0  0  0  0  0  0  0  0  0
   -7.6400   -0.5760    0.3830 H   0  0  0  0  0  0  0  0  0  0  0  0
   -8.1820   -0.7690   -1.2790 H   0  0  0  0  0  0  0  0  0  0  0  0
   -8.0000   -2.7240   -2.0720 H   0  0  0  0  0  0  0  0  0  0  0  0
   -8.2570   -3.1990   -0.4020 H   0  0  0  0  0  0  0  0  0  0  0  0
   -5.7840   -4.4400   -1.1550 H   0  0  0  0  0  0  0  0  0  0  0  0
   -7.3620   -5.2270   -1.0160 H   0  0  0  0  0  0  0  0  0  0  0  0
   -4.9500   -5.9280   -3.9660 H   0  0  0  0  0  0  0  0  0  0  0  0
   -7.5140   -7.3790   -3.1540 H   0  0  0  0  0  0  0  0  0  0  0  0
   -6.8200   -7.4590   -4.7810 H   0  0  0  0  0  0  0  0  0  0  0  0
   -6.1070   -9.3640   -3.5240 H   0  0  0  0  0  0  0  0  0  0  0  0
   -4.7670   -8.3430   -3.9110 H   0  0  0  0  0  0  0  0  0  0  0  0
   -6.8250   -9.7530   -1.3070 H   0  0  0  0  0  0  0  0  0  0  0  0
   -6.0560   -9.8730    1.0490 H   0  0  0  0  0  0  0  0  0  0  0  0
   -1.8250   -8.8680    1.6360 H   0  0  0  0  0  0  0  0  0  0  0  0
   -2.2470   -7.3800    2.5170 H   0  0  0  0  0  0  0  0  0  0  0  0
   -1.7180   -7.4220   -0.1930 H   0  0  0  0  0  0  0  0  0  0  0  0
   -2.7140   -6.1880    0.6270 H   0  0  0  0  0  0  0  0  0  0  0  0
   -3.5190   -7.1320   -2.2520 H   0  0  0  0  0  0  0  0  0  0  0  0
  1  2  1  0
  2  3  1  0
  2  4  1  0
  4  5  1  0
  5  6  1  0
  6  7  1  0
  7  8  1  0
  8  9  2  0
  8 10  2  0
  8 11  1  0
 11 12  1  0
 12 13  1  0
 13 14  1  0
 14 15  2  0
 15 16  1  0
 16 17  2  0
 17 18  1  0
 18 19  1  0
 19 20  1  0
 20 21  1  0
 21 22  2  0
 22 14  1  0
 21 17  1  0
  1 23  1  0
  1 24  1  0
  1 25  1  0
  2 26  1  0
  3 27  1  0
  3 28  1  0
  3 29  1  0
  4 30  1  0
  4 31  1  0
  6 32  1  0
  6 33  1  0
  7 34  1  0
  7 35  1  0
 11 36  1  0
 12 37  1  0
 12 38  1  0
 13 39  1  0
 13 40  1  0
 15 41  1  0
 16 42  1  0
 19 43  1  0
 19 44  1  0
 20 45  1  0
 20 46  1  0
 22 47  1  0
A    1
 C1 
A    2
 C2 
A    3
 C3 
A    4
 C4 
A    5
 O1 
A    6
 C5 
A    7
 C6 
A    8
 S1 
A    9
 O2 
A   10
 O3 
A   11
 N1 
A   12
 C7 
A   13
 C8 
A   14
 C9 
A   15
 C10
A   16
 C11
A   17
 C12
A   18
 O4 
A   19
 C13
A   20
 C14
A   21
 C15
A   22
 C16
A   23
 H1 
A   24
 H2 
A   25
 H3 
A   26
 H4 
A   27
 H5 
A   28
 H6 
A   29
 H7 
A   30
 H8 
A   31
 H9 
A   32
 H10
A   33
 H11
A   34
 H12
A   35
 H13
A   36
 H14
A   37
 H15
A   38
 H16
A   39
 H17
A   40
 H18
A   41
 H19
A   42
 H20
A   43
 H21
A   44
 H22
A   45
 H23
A   46
 H24
A   47
 H25
M  END
>  <ref_pdb>  (118) 
x0147_0A

>  <ref_mols>  (118) 
x1919_0AS6,x1140_0AS2

>  <original SMILES>  (118) 
[H]c1c([H])c(C([H])([H])C([H])([H])N([H])S(=O)(=O)C([H])([H])C([H])([H])OC([H])([H])C([H])(C([H])([H])[H])C([H])([H])[H])c([H])c2c1OC([H])([H])C2([H])[H]

>  <index>  (118) 
1774

>  <∆∆G>  (118) 
-11.197881

>  <comRMSD>  (118) 
0.481332

>  <N_constrained_atoms>  (118) 
19.0

>  <N_unconstrained_atoms>  (118) 
3.0

>  <LE>  (118) 
0.508995

>  <percent_hybrid>  (118) 
48.0

>  <max_hit_Tanimoto>  (118) 
0.242634

>  <largest_ring>  (118) 
6

>  <N_interactions_kept>  (118) 
1.0

>  <N_interactions_lost>  (118) 
4.5

>  <interaction_uniqueness_metric>  (118) 
0.145538

>  <N_HA>  (118) 
22

>  <N_rotatable_bonds>  (118) 
11

>  <N_interactions>  (118) 
8

>  <N_PAINS>  (118) 
0

>  <UFF_Gibbs>  (118) 
83.31933

>  <strain_per_HA>  (118) 
3.787225

>  <ad_hoc_penalty>  (118) 
-26.105579

>  <cluster>  (118) 
444

>  <ranked>  (118) 
137.0

>  <merger_rank>  (118) 
2

>  <hydroph_interaction:LEU:127>  (118) 
1

>  <hbond:GLY:128>  (118) 
1

>  <hydroph_interaction:ALA:144>  (118) 
0

>  <hbond:GLY:164>  (118) 
1

>  <hbond:HIS:40>  (118) 
0

>  <pistack:HIS:40>  (118) 
1

>  <hydroph_interaction:LEU:125>  (118) 
1

>  <hydroph_interaction:PHE:170>  (118) 
1

>  <hydroph_interaction:HIS:40>  (118) 
1

>  <pication:HIS:40>  (118) 
0

>  <hbond:THR:142>  (118) 
0

>  <hbond:HIS:161>  (118) 
0

>  <hbond:GLY:166>  (118) 
0

>  <hbond:VAL:162>  (118) 
1

>  <hydroph_interaction:ASN:165>  (118) 
0

>  <hbond:ASN:126>  (118) 
0

>  <hbond:ARG:143>  (118) 
0

>  <hbond:GLU:71>  (118) 
0

>  <saltbridge:HIS:161>  (118) 
0

>  <hbond:ALA:144>  (118) 
0

>  <hbond:GLY:145>  (118) 
0

>  <hbond:GLN:146>  (118) 
0

>  <hbond:CYS:147>  (118) 
0

>  <halogenbond:ASN:126>  (118) 
0

>  <saltbridge:HIS:40>  (118) 
0

>  <hbond:LEU:127>  (118) 
0

>  <hbond:THR:130>  (118) 
0

>  <hydroph_interaction:GLU:71>  (118) 
0

>  <hydroph_interaction:THR:130>  (118) 
0

>  <saltbridge:ARG:143>  (118) 
0

>  <saltbridge:GLU:71>  (118) 
0

>  <hbond:GLY:129>  (118) 
0

>  <halogenbond:CYS:147>  (118) 
0

>  <hydroph_interaction:THR:39>  (118) 
0

>  <hbond:ASN:69>  (118) 
0

>  <hydroph_interaction:THR:132>  (118) 
0

>  <hbond:TYR:122>  (118) 
0

>  <hydroph_interaction:PHE:109>  (118) 
0

>  <hydroph_interaction:PHE:140>  (118) 
0

>  <hbond:PRO:141>  (118) 
0

$$$$
PV-003026098585-x1084-0AS1
     RDKit          3D

 39 41  0  0  0  0  0  0  0  0999 V2000
  -13.0050   -1.5610   -6.9210 C   0  0  0  0  0  0  0  0  0  0  0  0
  -12.0070   -2.5870   -6.6180 C   0  0  0  0  0  0  0  0  0  0  0  0
  -11.0760   -2.1490   -5.4740 C   0  0  0  0  0  0  0  0  0  0  0  0
  -12.7670   -3.8680   -6.2590 C   0  0  0  0  0  0  0  0  0  0  0  0
  -11.8410   -5.0840   -6.2680 C   0  0  0  0  0  0  0  0  0  0  0  0
  -12.1290   -6.2320   -5.9650 O   0  0  0  0  0  0  0  0  0  0  0  0
  -10.4400   -4.7130   -6.7280 C   0  0  0  0  0  0  0  0  0  0  0  0
   -9.3930   -5.5780   -6.3010 C   0  0  0  0  0  0  0  0  0  0  0  0
   -8.1030   -5.2940   -6.6670 C   0  0  0  0  0  0  0  0  0  0  0  0
   -7.0550   -6.0370   -6.2290 O   0  0  0  0  0  0  0  0  0  0  0  0
   -6.8330   -5.7840   -4.7970 C   0  0  0  0  0  0  0  0  0  0  0  0
   -7.5510   -6.7250   -4.1080 C   0  0  0  0  0  0  0  0  0  0  0  0
   -6.9550   -8.1570   -4.3250 C   0  0  0  0  0  0  0  0  0  0  0  0
   -6.6780   -8.1560   -2.8320 C   0  0  0  0  0  0  0  0  0  0  0  0
   -7.3370   -9.1270   -2.1550 F   0  0  0  0  0  0  0  0  0  0  0  0
   -7.2080   -6.7610   -2.5690 C   0  0  0  0  0  0  0  0  0  0  0  0
   -7.8550   -4.1770   -7.4960 C   0  0  0  0  0  0  0  0  0  0  0  0
   -8.8970   -3.3290   -7.9050 C   0  0  0  0  0  0  0  0  0  0  0  0
  -10.1990   -3.6030   -7.4920 C   0  0  0  0  0  0  0  0  0  0  0  0
  -11.2200   -2.7830   -7.8210 O   0  0  0  0  0  0  0  0  0  0  0  0
  -13.0910   -1.4190   -8.0020 H   0  0  0  0  0  0  0  0  0  0  0  0
  -12.7410   -0.6140   -6.4390 H   0  0  0  0  0  0  0  0  0  0  0  0
  -13.9830   -1.8740   -6.5420 H   0  0  0  0  0  0  0  0  0  0  0  0
  -11.0430   -2.9320   -4.7070 H   0  0  0  0  0  0  0  0  0  0  0  0
  -11.4630   -1.2180   -5.0370 H   0  0  0  0  0  0  0  0  0  0  0  0
  -10.0640   -1.9430   -5.8520 H   0  0  0  0  0  0  0  0  0  0  0  0
  -13.2500   -3.7780   -5.2790 H   0  0  0  0  0  0  0  0  0  0  0  0
  -13.5440   -4.0670   -7.0020 H   0  0  0  0  0  0  0  0  0  0  0  0
   -9.6390   -6.4350   -5.6800 H   0  0  0  0  0  0  0  0  0  0  0  0
   -7.2390   -4.7940   -4.5470 H   0  0  0  0  0  0  0  0  0  0  0  0
   -5.7750   -5.7800   -4.5850 H   0  0  0  0  0  0  0  0  0  0  0  0
   -8.6300   -6.6470   -4.2070 H   0  0  0  0  0  0  0  0  0  0  0  0
   -7.6030   -8.9310   -4.7330 H   0  0  0  0  0  0  0  0  0  0  0  0
   -6.0470   -8.1560   -4.9310 H   0  0  0  0  0  0  0  0  0  0  0  0
   -5.6050   -8.2350   -2.6160 H   0  0  0  0  0  0  0  0  0  0  0  0
   -6.4690   -6.0260   -2.2350 H   0  0  0  0  0  0  0  0  0  0  0  0
   -8.0770   -6.7350   -1.9030 H   0  0  0  0  0  0  0  0  0  0  0  0
   -6.8460   -3.9580   -7.8110 H   0  0  0  0  0  0  0  0  0  0  0  0
   -8.6820   -2.4620   -8.5270 H   0  0  0  0  0  0  0  0  0  0  0  0
  1  2  1  0
  2  3  1  0
  2  4  1  0
  4  5  1  0
  5  6  2  0
  5  7  1  0
  7  8  2  0
  8  9  1  0
  9 10  1  0
 10 11  1  0
 11 12  1  0
 12 13  1  0
 13 14  1  0
 14 15  1  0
 14 16  1  0
  9 17  2  0
 17 18  1  0
 18 19  2  0
 19 20  1  0
 20  2  1  0
 19  7  1  0
 16 12  1  0
  1 21  1  0
  1 22  1  0
  1 23  1  0
  3 24  1  0
  3 25  1  0
  3 26  1  0
  4 27  1  0
  4 28  1  0
  8 29  1  0
 11 30  1  0
 11 31  1  0
 12 32  1  0
 13 33  1  0
 13 34  1  0
 14 35  1  0
 16 36  1  0
 16 37  1  0
 17 38  1  0
 18 39  1  0
A    1
 C1 
A    2
 C2 
A    3
 C3 
A    4
 C4 
A    5
 C5 
A    6
 O1 
A    7
 C6 
A    8
 C7 
A    9
 C8 
A   10
 O2 
A   11
 C9 
A   12
 C10
A   13
 C11
A   14
 C12
A   15
 F1 
A   16
 C13
A   17
 C14
A   18
 C15
A   19
 C16
A   20
 O3 
A   21
 H1 
A   22
 H2 
A   23
 H3 
A   24
 H4 
A   25
 H5 
A   26
 H6 
A   27
 H7 
A   28
 H8 
A   29
 H9 
A   30
 H10
A   31
 H11
A   32
 H12
A   33
 H13
A   34
 H14
A   35
 H15
A   36
 H16
A   37
 H17
A   38
 H18
A   39
 H19
M  END
>  <ref_pdb>  (119) 
x0147_0A

>  <ref_mols>  (119) 
x1084_0AS1,x1604_0A

>  <original SMILES>  (119) 
[H]c1c([H])c2c(c([H])c1OC([H])([H])C1([H])C([H])([H])C([H])(F)C1([H])[H])C(=O)C([H])([H])C(C([H])([H])[H])(C([H])([H])[H])O2

>  <index>  (119) 
1074

>  <∆∆G>  (119) 
-5.297533

>  <comRMSD>  (119) 
0.846421

>  <N_constrained_atoms>  (119) 
18.0

>  <N_unconstrained_atoms>  (119) 
3.0

>  <LE>  (119) 
0.252263

>  <percent_hybrid>  (119) 
23.0

>  <max_hit_Tanimoto>  (119) 
0.357422

>  <largest_ring>  (119) 
6

>  <N_interactions_kept>  (119) 
2.5

>  <N_interactions_lost>  (119) 
0.0

>  <interaction_uniqueness_metric>  (119) 
0.075053

>  <N_HA>  (119) 
20

>  <N_rotatable_bonds>  (119) 
5

>  <N_interactions>  (119) 
2

>  <N_PAINS>  (119) 
0

>  <UFF_Gibbs>  (119) 
110.776279

>  <strain_per_HA>  (119) 
5.538786

>  <ad_hoc_penalty>  (119) 
-26.057362

>  <cluster>  (119) 
634

>  <ranked>  (119) 
138.0

>  <merger_rank>  (119) 
3

>  <hydroph_interaction:LEU:127>  (119) 
0

>  <hbond:GLY:128>  (119) 
0

>  <hydroph_interaction:ALA:144>  (119) 
0

>  <hbond:GLY:164>  (119) 
1

>  <hbond:HIS:40>  (119) 
0

>  <pistack:HIS:40>  (119) 
0

>  <hydroph_interaction:LEU:125>  (119) 
0

>  <hydroph_interaction:PHE:170>  (119) 
0

>  <hydroph_interaction:HIS:40>  (119) 
0

>  <pication:HIS:40>  (119) 
0

>  <hbond:THR:142>  (119) 
0

>  <hbond:HIS:161>  (119) 
0

>  <hbond:GLY:166>  (119) 
1

>  <hbond:VAL:162>  (119) 
0

>  <hydroph_interaction:ASN:165>  (119) 
0

>  <hbond:ASN:126>  (119) 
0

>  <hbond:ARG:143>  (119) 
0

>  <hbond:GLU:71>  (119) 
0

>  <saltbridge:HIS:161>  (119) 
0

>  <hbond:ALA:144>  (119) 
0

>  <hbond:GLY:145>  (119) 
0

>  <hbond:GLN:146>  (119) 
0

>  <hbond:CYS:147>  (119) 
0

>  <halogenbond:ASN:126>  (119) 
0

>  <saltbridge:HIS:40>  (119) 
0

>  <hbond:LEU:127>  (119) 
0

>  <hbond:THR:130>  (119) 
0

>  <hydroph_interaction:GLU:71>  (119) 
0

>  <hydroph_interaction:THR:130>  (119) 
0

>  <saltbridge:ARG:143>  (119) 
0

>  <saltbridge:GLU:71>  (119) 
0

>  <hbond:GLY:129>  (119) 
0

>  <halogenbond:CYS:147>  (119) 
0

>  <hydroph_interaction:THR:39>  (119) 
0

>  <hbond:ASN:69>  (119) 
0

>  <hydroph_interaction:THR:132>  (119) 
0

>  <hbond:TYR:122>  (119) 
0

>  <hydroph_interaction:PHE:109>  (119) 
0

>  <hydroph_interaction:PHE:140>  (119) 
0

>  <hbond:PRO:141>  (119) 
0

$$$$
Z4263695576-x1071-0AS5
     RDKit          3D

 44 45  0  0  0  0  0  0  0  0999 V2000
   -5.4210   -0.3530   -2.1600 C   0  0  0  0  0  0  0  0  0  0  0  0
   -6.1340   -0.2730   -0.8390 C   0  0  0  0  0  0  0  0  0  0  0  0
   -6.5880   -1.2940   -0.3390 O   0  0  0  0  0  0  0  0  0  0  0  0
   -7.6470   -1.8940   -1.0860 C   0  0  0  0  0  0  0  0  0  0  0  0
   -7.1520   -3.1280   -1.9000 C   0  0  0  0  0  0  0  0  0  0  0  0
   -7.3910   -4.4540   -1.1710 C   0  0  0  0  0  0  0  0  0  0  0  0
   -7.5030   -5.7210   -1.9830 C   0  0  0  0  0  0  0  0  0  0  0  0
   -6.9370   -5.5570   -3.6740 S   0  0  0  0  0  6  0  0  0  0  0  0
   -7.9590   -6.1290   -4.5220 O   0  0  0  0  0  0  0  0  0  0  0  0
   -6.4480   -4.1980   -3.8550 O   0  0  0  0  0  0  0  0  0  0  0  0
   -5.6160   -6.5970   -3.6820 N   0  0  0  0  0  0  0  0  0  0  0  0
   -5.7610   -7.9870   -3.2840 C   0  0  0  0  0  0  0  0  0  0  0  0
   -5.3570   -8.2170   -1.9390 C   0  0  0  0  0  0  0  0  0  0  0  0
   -6.1540   -8.7110   -0.8620 C   0  0  0  0  0  0  0  0  0  0  0  0
   -5.6310   -8.8910    0.4430 C   0  0  0  0  0  0  0  0  0  0  0  0
   -4.2920   -8.5540    0.6060 C   0  0  0  0  0  0  0  0  0  0  0  0
   -3.6300   -8.6570    1.7990 O   0  0  0  0  0  0  0  0  0  0  0  0
   -2.3160   -8.0160    1.5480 C   0  0  0  0  0  0  0  0  0  0  0  0
   -2.2060   -7.8690    0.1680 C   0  0  0  0  0  0  0  0  0  0  0  0
   -3.5400   -8.0940   -0.4120 C   0  0  0  0  0  0  0  0  0  0  0  0
   -4.0080   -7.9020   -1.7060 C   0  0  0  0  0  0  0  0  0  0  0  0
   -4.5180    0.2500   -2.1120 H   0  0  0  0  0  0  0  0  0  0  0  0
   -6.0800    0.0380   -2.9410 H   0  0  0  0  0  0  0  0  0  0  0  0
   -5.1360   -1.3770   -2.4190 H   0  0  0  0  0  0  0  0  0  0  0  0
   -6.9230    0.4830   -0.9050 H   0  0  0  0  0  0  0  0  0  0  0  0
   -5.4140    0.1070   -0.1060 H   0  0  0  0  0  0  0  0  0  0  0  0
   -8.0300   -1.1180   -1.7560 H   0  0  0  0  0  0  0  0  0  0  0  0
   -8.4770   -2.1760   -0.4300 H   0  0  0  0  0  0  0  0  0  0  0  0
   -7.6650   -3.1270   -2.8670 H   0  0  0  0  0  0  0  0  0  0  0  0
   -6.0840   -3.0240   -2.1130 H   0  0  0  0  0  0  0  0  0  0  0  0
   -8.3030   -4.3620   -0.5760 H   0  0  0  0  0  0  0  0  0  0  0  0
   -6.5990   -4.6340   -0.4600 H   0  0  0  0  0  0  0  0  0  0  0  0
   -8.5460   -6.0590   -1.9960 H   0  0  0  0  0  0  0  0  0  0  0  0
   -6.8830   -6.4950   -1.5190 H   0  0  0  0  0  0  0  0  0  0  0  0
   -4.7720   -6.3360   -4.2130 H   0  0  0  0  0  0  0  0  0  0  0  0
   -5.1770   -8.6370   -3.9450 H   0  0  0  0  0  0  0  0  0  0  0  0
   -6.8060   -8.2940   -3.4190 H   0  0  0  0  0  0  0  0  0  0  0  0
   -7.1990   -8.9580   -1.0380 H   0  0  0  0  0  0  0  0  0  0  0  0
   -6.2380   -9.2660    1.2650 H   0  0  0  0  0  0  0  0  0  0  0  0
   -1.5450   -8.5580    2.0870 H   0  0  0  0  0  0  0  0  0  0  0  0
   -2.3470   -7.0100    1.9930 H   0  0  0  0  0  0  0  0  0  0  0  0
   -1.8400   -6.8800   -0.0770 H   0  0  0  0  0  0  0  0  0  0  0  0
   -1.4930   -8.5730   -0.2480 H   0  0  0  0  0  0  0  0  0  0  0  0
   -3.2830   -7.5190   -2.4400 H   0  0  0  0  0  0  0  0  0  0  0  0
  1  2  1  0
  2  3  1  0
  3  4  1  0
  4  5  1  0
  5  6  1  0
  6  7  1  0
  7  8  1  0
  8  9  2  0
  8 10  2  0
  8 11  1  0
 11 12  1  0
 12 13  1  0
 13 14  2  0
 14 15  1  0
 15 16  2  0
 16 17  1  0
 17 18  1  0
 18 19  1  0
 19 20  1  0
 20 21  2  0
 21 13  1  0
 20 16  1  0
  1 22  1  0
  1 23  1  0
  1 24  1  0
  2 25  1  0
  2 26  1  0
  4 27  1  0
  4 28  1  0
  5 29  1  0
  5 30  1  0
  6 31  1  0
  6 32  1  0
  7 33  1  0
  7 34  1  0
 11 35  1  0
 12 36  1  0
 12 37  1  0
 14 38  1  0
 15 39  1  0
 18 40  1  0
 18 41  1  0
 19 42  1  0
 19 43  1  0
 21 44  1  0
A    1
 C1 
A    2
 C2 
A    3
 O1 
A    4
 C3 
A    5
 C4 
A    6
 C5 
A    7
 C6 
A    8
 S1 
A    9
 O2 
A   10
 O3 
A   11
 N1 
A   12
 C7 
A   13
 C8 
A   14
 C9 
A   15
 C10
A   16
 C11
A   17
 O4 
A   18
 C12
A   19
 C13
A   20
 C14
A   21
 C15
A   22
 H1 
A   23
 H2 
A   24
 H3 
A   25
 H4 
A   26
 H5 
A   27
 H6 
A   28
 H7 
A   29
 H8 
A   30
 H9 
A   31
 H10
A   32
 H11
A   33
 H12
A   34
 H13
A   35
 H14
A   36
 H15
A   37
 H16
A   38
 H17
A   39
 H18
A   40
 H19
A   41
 H20
A   42
 H21
A   43
 H22
A   44
 H23
M  END
>  <ref_pdb>  (120) 
x0147_0A

>  <ref_mols>  (120) 
x1071_0AS5,x1140_0A

>  <original SMILES>  (120) 
[H]c1c([H])c(C([H])([H])N([H])S(=O)(=O)C([H])([H])C([H])([H])C([H])([H])C([H])([H])OC([H])([H])C([H])([H])[H])c([H])c2c1OC([H])([H])C2([H])[H]

>  <index>  (120) 
4607

>  <∆∆G>  (120) 
-8.324515

>  <comRMSD>  (120) 
0.737907

>  <N_constrained_atoms>  (120) 
20.0

>  <N_unconstrained_atoms>  (120) 
2.0

>  <LE>  (120) 
0.378387

>  <percent_hybrid>  (120) 
20.0

>  <max_hit_Tanimoto>  (120) 
0.453397

>  <largest_ring>  (120) 
6

>  <N_interactions_kept>  (120) 
2.0

>  <N_interactions_lost>  (120) 
2.5

>  <interaction_uniqueness_metric>  (120) 
0.094708

>  <N_HA>  (120) 
21

>  <N_rotatable_bonds>  (120) 
10

>  <N_interactions>  (120) 
7

>  <N_PAINS>  (120) 
0

>  <UFF_Gibbs>  (120) 
155.703758

>  <strain_per_HA>  (120) 
7.414429

>  <ad_hoc_penalty>  (120) 
-26.055694

>  <cluster>  (120) 
11

>  <ranked>  (120) 
139.0

>  <merger_rank>  (120) 
2

>  <hydroph_interaction:LEU:127>  (120) 
2

>  <hbond:GLY:128>  (120) 
1

>  <hydroph_interaction:ALA:144>  (120) 
0

>  <hbond:GLY:164>  (120) 
1

>  <hbond:HIS:40>  (120) 
0

>  <pistack:HIS:40>  (120) 
1

>  <hydroph_interaction:LEU:125>  (120) 
0

>  <hydroph_interaction:PHE:170>  (120) 
1

>  <hydroph_interaction:HIS:40>  (120) 
1

>  <pication:HIS:40>  (120) 
0

>  <hbond:THR:142>  (120) 
0

>  <hbond:HIS:161>  (120) 
0

>  <hbond:GLY:166>  (120) 
0

>  <hbond:VAL:162>  (120) 
0

>  <hydroph_interaction:ASN:165>  (120) 
0

>  <hbond:ASN:126>  (120) 
0

>  <hbond:ARG:143>  (120) 
0

>  <hbond:GLU:71>  (120) 
0

>  <saltbridge:HIS:161>  (120) 
0

>  <hbond:ALA:144>  (120) 
0

>  <hbond:GLY:145>  (120) 
0

>  <hbond:GLN:146>  (120) 
0

>  <hbond:CYS:147>  (120) 
0

>  <halogenbond:ASN:126>  (120) 
0

>  <saltbridge:HIS:40>  (120) 
0

>  <hbond:LEU:127>  (120) 
0

>  <hbond:THR:130>  (120) 
0

>  <hydroph_interaction:GLU:71>  (120) 
0

>  <hydroph_interaction:THR:130>  (120) 
0

>  <saltbridge:ARG:143>  (120) 
0

>  <saltbridge:GLU:71>  (120) 
0

>  <hbond:GLY:129>  (120) 
0

>  <halogenbond:CYS:147>  (120) 
0

>  <hydroph_interaction:THR:39>  (120) 
0

>  <hbond:ASN:69>  (120) 
0

>  <hydroph_interaction:THR:132>  (120) 
0

>  <hbond:TYR:122>  (120) 
0

>  <hydroph_interaction:PHE:109>  (120) 
0

>  <hydroph_interaction:PHE:140>  (120) 
0

>  <hbond:PRO:141>  (120) 
0

$$$$
Z2621358516-x1919-0AS7
     RDKit          3D

 28 29  0  0  0  0  0  0  0  0999 V2000
   -6.4160   -5.1240   -1.1210 C   0  0  0  0  0  0  0  0  0  0  0  0
   -7.3960   -6.0200   -1.8520 C   0  0  0  0  0  0  0  0  0  0  0  0
   -6.9720   -6.4330   -3.1000 N   0  0  0  0  0  0  0  0  0  0  0  0
   -6.2390   -5.5270   -3.8980 C   0  0  0  0  0  0  0  0  0  0  0  0
   -6.2020   -7.6790   -3.1750 C   0  0  0  0  0  0  0  0  0  0  0  0
   -6.1580   -8.4250   -4.1460 O   0  0  0  0  0  0  0  0  0  0  0  0
   -5.4430   -7.9790   -1.8670 C   0  0  0  0  0  0  0  0  0  0  0  0
   -6.1650   -8.9210   -0.9480 C   0  0  0  0  0  0  0  0  0  0  0  0
   -5.5920   -9.3230    0.3800 C   0  0  0  0  0  0  0  0  0  0  0  0
   -4.2530   -8.6990    0.6830 C   0  0  0  0  0  0  0  0  0  0  0  0
   -3.5190   -8.9190    1.8560 O   0  0  0  0  0  0  0  0  0  0  0  0
   -2.3490   -8.1070    1.6480 C   0  0  0  0  0  0  0  0  0  0  0  0
   -2.5000   -7.4610    0.3250 C   0  0  0  0  0  0  0  0  0  0  0  0
   -3.6660   -7.8220   -0.2680 C   0  0  0  0  0  0  0  0  0  0  0  0
   -4.1890   -7.4360   -1.5190 C   0  0  0  0  0  0  0  0  0  0  0  0
   -5.6220   -4.7910   -1.7850 H   0  0  0  0  0  0  0  0  0  0  0  0
   -5.9630   -5.6430   -0.2710 H   0  0  0  0  0  0  0  0  0  0  0  0
   -6.9280   -4.2330   -0.7560 H   0  0  0  0  0  0  0  0  0  0  0  0
   -7.5990   -6.8850   -1.2100 H   0  0  0  0  0  0  0  0  0  0  0  0
   -8.3520   -5.4910   -1.9590 H   0  0  0  0  0  0  0  0  0  0  0  0
   -5.1780   -5.7880   -3.9090 H   0  0  0  0  0  0  0  0  0  0  0  0
   -6.6260   -5.5370   -4.9240 H   0  0  0  0  0  0  0  0  0  0  0  0
   -6.3650   -4.5080   -3.5110 H   0  0  0  0  0  0  0  0  0  0  0  0
   -7.1390   -9.3410   -1.2230 H   0  0  0  0  0  0  0  0  0  0  0  0
   -6.1160  -10.0090    1.0550 H   0  0  0  0  0  0  0  0  0  0  0  0
   -1.5320   -8.0200    2.3620 H   0  0  0  0  0  0  0  0  0  0  0  0
   -1.7890   -6.7900   -0.1270 H   0  0  0  0  0  0  0  0  0  0  0  0
   -3.6570   -6.7510   -2.1880 H   0  0  0  0  0  0  0  0  0  0  0  0
  1  2  1  0
  2  3  1  0
  3  4  1  0
  3  5  1  0
  5  6  2  0
  5  7  1  0
  7  8  2  0
  8  9  1  0
  9 10  2  0
 10 11  1  0
 11 12  1  0
 12 13  2  0
 13 14  1  0
 14 15  2  0
 15  7  1  0
 14 10  1  0
  1 16  1  0
  1 17  1  0
  1 18  1  0
  2 19  1  0
  2 20  1  0
  4 21  1  0
  4 22  1  0
  4 23  1  0
  8 24  1  0
  9 25  1  0
 12 26  1  0
 13 27  1  0
 15 28  1  0
A    1
 C1 
A    2
 C2 
A    3
 N1 
A    4
 C3 
A    5
 C4 
A    6
 O1 
A    7
 C5 
A    8
 C6 
A    9
 C7 
A   10
 C8 
A   11
 O2 
A   12
 C9 
A   13
 C10
A   14
 C11
A   15
 C12
A   16
 H1 
A   17
 H2 
A   18
 H3 
A   19
 H4 
A   20
 H5 
A   21
 H6 
A   22
 H7 
A   23
 H8 
A   24
 H9 
A   25
 H10
A   26
 H11
A   27
 H12
A   28
 H13
M  END
>  <ref_pdb>  (121) 
x0147_0A

>  <ref_mols>  (121) 
x1919_0AS7,x1140_0AS3

>  <original SMILES>  (121) 
[H]c1oc2c([H])c([H])c(C(=O)N(C([H])([H])[H])C([H])([H])C([H])([H])[H])c([H])c2c1[H]

>  <index>  (121) 
16732

>  <∆∆G>  (121) 
-6.292848

>  <comRMSD>  (121) 
0.789044

>  <N_constrained_atoms>  (121) 
15.0

>  <N_unconstrained_atoms>  (121) 
1.0

>  <LE>  (121) 
0.393303

>  <percent_hybrid>  (121) 
29.0

>  <max_hit_Tanimoto>  (121) 
0.161983

>  <largest_ring>  (121) 
6

>  <N_interactions_kept>  (121) 
3.0

>  <N_interactions_lost>  (121) 
2.0

>  <interaction_uniqueness_metric>  (121) 
0.049169

>  <N_HA>  (121) 
15

>  <N_rotatable_bonds>  (121) 
4

>  <N_interactions>  (121) 
5

>  <N_PAINS>  (121) 
0

>  <UFF_Gibbs>  (121) 
102.479312

>  <strain_per_HA>  (121) 
6.831909

>  <ad_hoc_penalty>  (121) 
-26.027702

>  <cluster>  (121) 
3102

>  <ranked>  (121) 
140.0

>  <merger_rank>  (121) 
1

>  <hydroph_interaction:LEU:127>  (121) 
3

>  <hbond:GLY:128>  (121) 
0

>  <hydroph_interaction:ALA:144>  (121) 
0

>  <hbond:GLY:164>  (121) 
0

>  <hbond:HIS:40>  (121) 
0

>  <pistack:HIS:40>  (121) 
1

>  <hydroph_interaction:LEU:125>  (121) 
0

>  <hydroph_interaction:PHE:170>  (121) 
0

>  <hydroph_interaction:HIS:40>  (121) 
1

>  <pication:HIS:40>  (121) 
0

>  <hbond:THR:142>  (121) 
0

>  <hbond:HIS:161>  (121) 
0

>  <hbond:GLY:166>  (121) 
0

>  <hbond:VAL:162>  (121) 
0

>  <hydroph_interaction:ASN:165>  (121) 
0

>  <hbond:ASN:126>  (121) 
0

>  <hbond:ARG:143>  (121) 
0

>  <hbond:GLU:71>  (121) 
0

>  <saltbridge:HIS:161>  (121) 
0

>  <hbond:ALA:144>  (121) 
0

>  <hbond:GLY:145>  (121) 
0

>  <hbond:GLN:146>  (121) 
0

>  <hbond:CYS:147>  (121) 
0

>  <halogenbond:ASN:126>  (121) 
0

>  <saltbridge:HIS:40>  (121) 
0

>  <hbond:LEU:127>  (121) 
0

>  <hbond:THR:130>  (121) 
0

>  <hydroph_interaction:GLU:71>  (121) 
0

>  <hydroph_interaction:THR:130>  (121) 
0

>  <saltbridge:ARG:143>  (121) 
0

>  <saltbridge:GLU:71>  (121) 
0

>  <hbond:GLY:129>  (121) 
0

>  <halogenbond:CYS:147>  (121) 
0

>  <hydroph_interaction:THR:39>  (121) 
0

>  <hbond:ASN:69>  (121) 
0

>  <hydroph_interaction:THR:132>  (121) 
0

>  <hbond:TYR:122>  (121) 
0

>  <hydroph_interaction:PHE:109>  (121) 
0

>  <hydroph_interaction:PHE:140>  (121) 
0

>  <hbond:PRO:141>  (121) 
0

$$$$
Z1464647562-x1071-0AS2
     RDKit          3D

 38 39  0  0  0  0  0  0  0  0999 V2000
   -6.7870   -4.7590   -1.0530 C   0  0  0  0  0  0  0  0  0  0  0  0
   -6.5440   -4.0970   -2.3750 C   0  0  0  0  0  0  0  0  0  0  0  0
   -7.1460   -2.7120   -2.4490 N   0  0  0  0  0  0  0  0  0  0  0  0
   -6.5720   -1.2400   -1.6840 S   0  0  0  0  0  6  0  0  0  0  0  0
   -8.0400   -0.2420   -1.6420 C   0  0  0  0  0  0  0  0  0  0  0  0
   -5.6420   -0.5420   -2.5420 O   0  0  0  0  0  0  0  0  0  0  0  0
   -6.2090   -1.3550   -0.3090 O   0  0  0  0  0  0  0  0  0  0  0  0
   -7.0140   -5.1080   -3.4860 C   0  0  0  0  0  0  0  0  0  0  0  0
   -8.1120   -5.0590   -4.0500 O   0  0  0  0  0  0  0  0  0  0  0  0
   -6.0440   -6.2100   -3.8180 N   0  0  0  0  0  0  0  0  0  0  0  0
   -6.2660   -7.5250   -3.1580 C   0  0  0  0  0  0  0  0  0  0  0  0
   -5.3790   -7.8000   -1.9010 C   0  0  0  0  0  0  0  0  0  0  0  0
   -4.0190   -7.5660   -1.9980 C   0  0  0  0  0  0  0  0  0  0  0  0
   -3.0410   -7.7600   -0.8750 C   0  0  0  0  0  0  0  0  0  0  0  0
   -3.5210   -8.1790    0.3000 C   0  0  0  0  0  0  0  0  0  0  0  0
   -2.7510   -8.4210    1.5820 C   0  0  0  0  0  0  0  0  0  0  0  0
   -3.7820   -8.9680    2.4570 O   0  0  0  0  0  0  0  0  0  0  0  0
   -5.0340   -8.8950    1.8650 C   0  0  0  0  0  0  0  0  0  0  0  0
   -4.8430   -8.4370    0.4510 C   0  0  0  0  0  0  0  0  0  0  0  0
   -5.8820   -8.2630   -0.6670 C   0  0  0  0  0  0  0  0  0  0  0  0
   -7.2590   -5.7380   -1.1760 H   0  0  0  0  0  0  0  0  0  0  0  0
   -5.8510   -4.9130   -0.5110 H   0  0  0  0  0  0  0  0  0  0  0  0
   -7.4600   -4.1410   -0.4570 H   0  0  0  0  0  0  0  0  0  0  0  0
   -5.5040   -4.0010   -2.5530 H   0  0  0  0  0  0  0  0  0  0  0  0
   -7.4160   -2.4500   -3.3950 H   0  0  0  0  0  0  0  0  0  0  0  0
   -7.9520    0.5870   -2.3520 H   0  0  0  0  0  0  0  0  0  0  0  0
   -8.1520    0.1670   -0.6330 H   0  0  0  0  0  0  0  0  0  0  0  0
   -8.9240   -0.8640   -1.8440 H   0  0  0  0  0  0  0  0  0  0  0  0
   -5.0910   -5.9820   -4.1460 H   0  0  0  0  0  0  0  0  0  0  0  0
   -7.3310   -7.6930   -2.9440 H   0  0  0  0  0  0  0  0  0  0  0  0
   -5.9790   -8.2930   -3.8920 H   0  0  0  0  0  0  0  0  0  0  0  0
   -3.6200   -7.2160   -2.9450 H   0  0  0  0  0  0  0  0  0  0  0  0
   -1.9960   -7.5390   -1.1050 H   0  0  0  0  0  0  0  0  0  0  0  0
   -1.8780   -9.0900    1.5900 H   0  0  0  0  0  0  0  0  0  0  0  0
   -2.4320   -7.4430    1.9680 H   0  0  0  0  0  0  0  0  0  0  0  0
   -5.6630   -8.1700    2.3980 H   0  0  0  0  0  0  0  0  0  0  0  0
   -5.5240   -9.8770    1.8810 H   0  0  0  0  0  0  0  0  0  0  0  0
   -6.9370   -8.4790   -0.5010 H   0  0  0  0  0  0  0  0  0  0  0  0
  1  2  1  0
  2  3  1  0
  3  4  1  0
  4  5  1  0
  4  6  2  0
  4  7  2  0
  2  8  1  0
  8  9  2  0
  8 10  1  0
 10 11  1  0
 11 12  1  0
 12 13  2  0
 13 14  1  0
 14 15  2  0
 15 16  1  0
 16 17  1  0
 17 18  1  0
 18 19  1  0
 19 20  2  0
 20 12  1  0
 19 15  1  0
  1 21  1  0
  1 22  1  0
  1 23  1  0
  2 24  1  0
  3 25  1  0
  5 26  1  0
  5 27  1  0
  5 28  1  0
 10 29  1  0
 11 30  1  0
 11 31  1  0
 13 32  1  0
 14 33  1  0
 16 34  1  0
 16 35  1  0
 18 36  1  0
 18 37  1  0
 20 38  1  0
A    1
 C1 
A    2
 C2 
A    3
 N1 
A    4
 S1 
A    5
 C3 
A    6
 O1 
A    7
 O2 
A    8
 C4 
A    9
 O3 
A   10
 N2 
A   11
 C5 
A   12
 C6 
A   13
 C7 
A   14
 C8 
A   15
 C9 
A   16
 C10
A   17
 O4 
A   18
 C11
A   19
 C12
A   20
 C13
A   21
 H1 
A   22
 H2 
A   23
 H3 
A   24
 H4 
A   25
 H5 
A   26
 H6 
A   27
 H7 
A   28
 H8 
A   29
 H9 
A   30
 H10
A   31
 H11
A   32
 H12
A   33
 H13
A   34
 H14
A   35
 H15
A   36
 H16
A   37
 H17
A   38
 H18
M  END
>  <ref_pdb>  (122) 
x0147_0A

>  <ref_mols>  (122) 
x1071_0AS2,x1140_0A

>  <original SMILES>  (122) 
[H]c1c([H])c(C([H])([H])N([H])C(=O)C([H])(N([H])S(=O)(=O)C([H])([H])[H])C([H])([H])[H])c([H])c2c1C([H])([H])OC2([H])[H]

>  <index>  (122) 
6554

>  <∆∆G>  (122) 
-7.831393

>  <comRMSD>  (122) 
0.865541

>  <N_constrained_atoms>  (122) 
21.0

>  <N_unconstrained_atoms>  (122) 
1.0

>  <LE>  (122) 
0.355972

>  <percent_hybrid>  (122) 
32.0

>  <max_hit_Tanimoto>  (122) 
0.22067

>  <largest_ring>  (122) 
6

>  <N_interactions_kept>  (122) 
3.0

>  <N_interactions_lost>  (122) 
2.5

>  <interaction_uniqueness_metric>  (122) 
0.082097

>  <N_HA>  (122) 
20

>  <N_rotatable_bonds>  (122) 
7

>  <N_interactions>  (122) 
5

>  <N_PAINS>  (122) 
0

>  <UFF_Gibbs>  (122) 
84.903397

>  <strain_per_HA>  (122) 
4.245149

>  <ad_hoc_penalty>  (122) 
-26.024432

>  <cluster>  (122) 
5772

>  <ranked>  (122) 
141.0

>  <merger_rank>  (122) 
3

>  <hydroph_interaction:LEU:127>  (122) 
1

>  <hbond:GLY:128>  (122) 
1

>  <hydroph_interaction:ALA:144>  (122) 
0

>  <hbond:GLY:164>  (122) 
0

>  <hbond:HIS:40>  (122) 
0

>  <pistack:HIS:40>  (122) 
1

>  <hydroph_interaction:LEU:125>  (122) 
0

>  <hydroph_interaction:PHE:170>  (122) 
0

>  <hydroph_interaction:HIS:40>  (122) 
1

>  <pication:HIS:40>  (122) 
0

>  <hbond:THR:142>  (122) 
0

>  <hbond:HIS:161>  (122) 
0

>  <hbond:GLY:166>  (122) 
0

>  <hbond:VAL:162>  (122) 
1

>  <hydroph_interaction:ASN:165>  (122) 
0

>  <hbond:ASN:126>  (122) 
0

>  <hbond:ARG:143>  (122) 
0

>  <hbond:GLU:71>  (122) 
0

>  <saltbridge:HIS:161>  (122) 
0

>  <hbond:ALA:144>  (122) 
0

>  <hbond:GLY:145>  (122) 
0

>  <hbond:GLN:146>  (122) 
0

>  <hbond:CYS:147>  (122) 
0

>  <halogenbond:ASN:126>  (122) 
0

>  <saltbridge:HIS:40>  (122) 
0

>  <hbond:LEU:127>  (122) 
0

>  <hbond:THR:130>  (122) 
0

>  <hydroph_interaction:GLU:71>  (122) 
0

>  <hydroph_interaction:THR:130>  (122) 
0

>  <saltbridge:ARG:143>  (122) 
0

>  <saltbridge:GLU:71>  (122) 
0

>  <hbond:GLY:129>  (122) 
0

>  <halogenbond:CYS:147>  (122) 
0

>  <hydroph_interaction:THR:39>  (122) 
0

>  <hbond:ASN:69>  (122) 
0

>  <hydroph_interaction:THR:132>  (122) 
0

>  <hbond:TYR:122>  (122) 
0

>  <hydroph_interaction:PHE:109>  (122) 
0

>  <hydroph_interaction:PHE:140>  (122) 
0

>  <hbond:PRO:141>  (122) 
0

$$$$
Z1289234907-x1919-0AS2
     RDKit          3D

 51 54  0  0  0  0  0  0  0  0999 V2000
  -11.4810   -4.1100   -6.4420 O   0  0  0  0  0  0  0  0  0  0  0  0
  -10.1850   -4.2360   -5.8400 C   0  0  0  0  0  0  0  0  0  0  0  0
   -9.0890   -4.2880   -6.8970 C   0  0  0  0  0  0  0  0  0  0  0  0
   -8.2290   -5.4580   -7.0040 C   0  0  0  0  0  0  0  0  0  0  0  0
   -7.1140   -5.5390   -8.0490 C   0  0  0  0  0  0  0  0  0  0  0  0
   -6.9820   -4.3460   -8.9270 N   0  0  0  0  0  0  0  0  0  0  0  0
   -7.8700   -3.3520   -8.6950 C   0  0  0  0  0  0  0  0  0  0  0  0
   -8.8930   -3.2510   -7.7550 C   0  0  0  0  0  0  0  0  0  0  0  0
   -9.9040   -4.2950   -4.5430 N   0  0  0  0  0  0  0  0  0  0  0  0
   -8.8350   -3.4500   -3.8490 C   0  0  0  0  0  0  0  0  0  0  0  0
   -8.4200   -3.8780   -2.5280 C   0  0  0  0  0  0  0  0  0  0  0  0
   -7.4280   -4.8770   -2.4390 C   0  0  0  0  0  0  0  0  0  0  0  0
   -7.9200   -5.8580   -3.2810 N   0  0  0  0  0  0  0  0  0  0  0  0
   -7.1170   -7.1080   -3.4920 C   0  0  0  0  0  0  0  0  0  0  0  0
   -5.6630   -7.0010   -3.1220 C   0  0  0  0  0  0  0  0  0  0  0  0
   -5.2580   -7.5630   -1.9030 C   0  0  0  0  0  0  0  0  0  0  0  0
   -6.0760   -8.4400   -1.1720 C   0  0  0  0  0  0  0  0  0  0  0  0
   -5.6690   -8.9870    0.0500 C   0  0  0  0  0  0  0  0  0  0  0  0
   -4.4190   -8.6300    0.5230 C   0  0  0  0  0  0  0  0  0  0  0  0
   -3.7920   -9.0330    1.7080 O   0  0  0  0  0  0  0  0  0  0  0  0
   -2.5840   -8.2350    1.6140 C   0  0  0  0  0  0  0  0  0  0  0  0
   -2.4880   -7.5610    0.4210 C   0  0  0  0  0  0  0  0  0  0  0  0
   -3.6570   -7.7700   -0.2340 C   0  0  0  0  0  0  0  0  0  0  0  0
   -4.0530   -7.2340   -1.4470 C   0  0  0  0  0  0  0  0  0  0  0  0
   -9.3170   -6.2090   -2.9490 C   0  0  0  0  0  0  0  0  0  0  0  0
  -10.3590   -5.4960   -3.8380 C   0  0  0  0  0  0  0  0  0  0  0  0
   -8.3740   -6.2950   -6.3300 H   0  0  0  0  0  0  0  0  0  0  0  0
   -6.4370   -6.3760   -8.1880 H   0  0  0  0  0  0  0  0  0  0  0  0
   -7.7800   -2.5030   -9.3260 H   0  0  0  0  0  0  0  0  0  0  0  0
   -9.5150   -2.3650   -7.7100 H   0  0  0  0  0  0  0  0  0  0  0  0
   -7.9530   -3.4950   -4.4980 H   0  0  0  0  0  0  0  0  0  0  0  0
   -9.1780   -2.4120   -3.8100 H   0  0  0  0  0  0  0  0  0  0  0  0
   -8.0280   -2.9910   -2.0150 H   0  0  0  0  0  0  0  0  0  0  0  0
   -9.3020   -4.1770   -1.9530 H   0  0  0  0  0  0  0  0  0  0  0  0
   -7.2670   -5.2570   -1.4250 H   0  0  0  0  0  0  0  0  0  0  0  0
   -6.4740   -4.5120   -2.8410 H   0  0  0  0  0  0  0  0  0  0  0  0
   -7.1470   -7.4140   -4.5460 H   0  0  0  0  0  0  0  0  0  0  0  0
   -7.5010   -7.9500   -2.9210 H   0  0  0  0  0  0  0  0  0  0  0  0
   -5.3580   -5.9500   -3.1610 H   0  0  0  0  0  0  0  0  0  0  0  0
   -5.0840   -7.4990   -3.9080 H   0  0  0  0  0  0  0  0  0  0  0  0
   -7.0460   -8.6510   -1.6350 H   0  0  0  0  0  0  0  0  0  0  0  0
   -6.2930   -9.6660    0.6220 H   0  0  0  0  0  0  0  0  0  0  0  0
   -2.5710   -7.4840    2.4140 H   0  0  0  0  0  0  0  0  0  0  0  0
   -1.7130   -8.8750    1.7880 H   0  0  0  0  0  0  0  0  0  0  0  0
   -1.6850   -7.9920   -0.1660 H   0  0  0  0  0  0  0  0  0  0  0  0
   -2.3020   -6.4910    0.4640 H   0  0  0  0  0  0  0  0  0  0  0  0
   -3.4180   -6.5700   -2.0050 H   0  0  0  0  0  0  0  0  0  0  0  0
   -9.4650   -7.2850   -2.9750 H   0  0  0  0  0  0  0  0  0  0  0  0
   -9.5490   -5.9130   -1.9210 H   0  0  0  0  0  0  0  0  0  0  0  0
  -11.2360   -5.2120   -3.2440 H   0  0  0  0  0  0  0  0  0  0  0  0
  -10.7090   -6.2270   -4.5780 H   0  0  0  0  0  0  0  0  0  0  0  0
  1  2  2  0
  2  3  1  0
  3  4  2  0
  4  5  1  0
  5  6  2  0
  6  7  1  0
  7  8  2  0
  2  9  1  0
  9 10  1  0
 10 11  1  0
 11 12  1  0
 12 13  1  0
 13 14  1  0
 14 15  1  0
 15 16  1  0
 16 17  2  0
 17 18  1  0
 18 19  2  0
 19 20  1  0
 20 21  1  0
 21 22  1  0
 22 23  1  0
 23 24  2  0
 13 25  1  0
 25 26  1  0
  8  3  1  0
 26  9  1  0
 24 16  1  0
 23 19  1  0
  4 27  1  0
  5 28  1  0
  7 29  1  0
  8 30  1  0
 10 31  1  0
 10 32  1  0
 11 33  1  0
 11 34  1  0
 12 35  1  0
 12 36  1  0
 14 37  1  0
 14 38  1  0
 15 39  1  0
 15 40  1  0
 17 41  1  0
 18 42  1  0
 21 43  1  0
 21 44  1  0
 22 45  1  0
 22 46  1  0
 24 47  1  0
 25 48  1  0
 25 49  1  0
 26 50  1  0
 26 51  1  0
A    1
 O1 
A    2
 C1 
A    3
 C2 
A    4
 C3 
A    5
 C4 
A    6
 N1 
A    7
 C5 
A    8
 C6 
A    9
 N2 
A   10
 C7 
A   11
 C8 
A   12
 C9 
A   13
 N3 
A   14
 C10
A   15
 C11
A   16
 C12
A   17
 C13
A   18
 C14
A   19
 C15
A   20
 O2 
A   21
 C16
A   22
 C17
A   23
 C18
A   24
 C19
A   25
 C20
A   26
 C21
A   27
 H1 
A   28
 H2 
A   29
 H3 
A   30
 H4 
A   31
 H5 
A   32
 H6 
A   33
 H7 
A   34
 H8 
A   35
 H9 
A   36
 H10
A   37
 H11
A   38
 H12
A   39
 H13
A   40
 H14
A   41
 H15
A   42
 H16
A   43
 H17
A   44
 H18
A   45
 H19
A   46
 H20
A   47
 H21
A   48
 H22
A   49
 H23
A   50
 H24
A   51
 H25
M  END
>  <ref_pdb>  (123) 
x0147_0A

>  <ref_mols>  (123) 
x1919_0AS2,x0980_0BS4

>  <original SMILES>  (123) 
[H]c1nc([H])c([H])c(C(=O)N2C([H])([H])C([H])([H])N(C([H])([H])C([H])([H])c3c([H])c([H])c4c(c3[H])C([H])([H])C([H])([H])O4)C([H])([H])C([H])([H])C2([H])[H])c1[H]

>  <index>  (123) 
12657

>  <∆∆G>  (123) 
-6.298708

>  <comRMSD>  (123) 
0.882825

>  <N_constrained_atoms>  (123) 
24.0

>  <N_unconstrained_atoms>  (123) 
2.0

>  <LE>  (123) 
0.242258

>  <percent_hybrid>  (123) 
38.0

>  <max_hit_Tanimoto>  (123) 
0.234875

>  <largest_ring>  (123) 
7

>  <N_interactions_kept>  (123) 
3.0

>  <N_interactions_lost>  (123) 
1.5

>  <interaction_uniqueness_metric>  (123) 
0.046047

>  <N_HA>  (123) 
26

>  <N_rotatable_bonds>  (123) 
4

>  <N_interactions>  (123) 
4

>  <N_PAINS>  (123) 
0

>  <UFF_Gibbs>  (123) 
290.351384

>  <strain_per_HA>  (123) 
11.167318

>  <ad_hoc_penalty>  (123) 
-25.982025

>  <cluster>  (123) 
2009

>  <ranked>  (123) 
143.0

>  <merger_rank>  (123) 
2

>  <hydroph_interaction:LEU:127>  (123) 
2

>  <hbond:GLY:128>  (123) 
0

>  <hydroph_interaction:ALA:144>  (123) 
0

>  <hbond:GLY:164>  (123) 
0

>  <hbond:HIS:40>  (123) 
0

>  <pistack:HIS:40>  (123) 
1

>  <hydroph_interaction:LEU:125>  (123) 
0

>  <hydroph_interaction:PHE:170>  (123) 
0

>  <hydroph_interaction:HIS:40>  (123) 
1

>  <pication:HIS:40>  (123) 
0

>  <hbond:THR:142>  (123) 
0

>  <hbond:HIS:161>  (123) 
0

>  <hbond:GLY:166>  (123) 
0

>  <hbond:VAL:162>  (123) 
0

>  <hydroph_interaction:ASN:165>  (123) 
0

>  <hbond:ASN:126>  (123) 
0

>  <hbond:ARG:143>  (123) 
0

>  <hbond:GLU:71>  (123) 
0

>  <saltbridge:HIS:161>  (123) 
0

>  <hbond:ALA:144>  (123) 
0

>  <hbond:GLY:145>  (123) 
0

>  <hbond:GLN:146>  (123) 
0

>  <hbond:CYS:147>  (123) 
0

>  <halogenbond:ASN:126>  (123) 
0

>  <saltbridge:HIS:40>  (123) 
0

>  <hbond:LEU:127>  (123) 
0

>  <hbond:THR:130>  (123) 
0

>  <hydroph_interaction:GLU:71>  (123) 
0

>  <hydroph_interaction:THR:130>  (123) 
0

>  <saltbridge:ARG:143>  (123) 
0

>  <saltbridge:GLU:71>  (123) 
0

>  <hbond:GLY:129>  (123) 
0

>  <halogenbond:CYS:147>  (123) 
0

>  <hydroph_interaction:THR:39>  (123) 
0

>  <hbond:ASN:69>  (123) 
0

>  <hydroph_interaction:THR:132>  (123) 
0

>  <hbond:TYR:122>  (123) 
0

>  <hydroph_interaction:PHE:109>  (123) 
0

>  <hydroph_interaction:PHE:140>  (123) 
0

>  <hbond:PRO:141>  (123) 
0

$$$$
Z2964162746-x1071-0A
     RDKit          3D

 42 43  0  0  0  0  0  0  0  0999 V2000
   -5.8300    0.1030   -1.9800 C   0  0  0  0  0  0  0  0  0  0  0  0
   -6.2100   -0.8250   -1.3240 C   0  0  0  0  0  0  0  0  0  0  0  0
   -6.1360   -0.8260   -0.1040 O   0  0  0  0  0  0  0  0  0  0  0  0
   -6.7660   -1.9250   -2.1150 N   0  0  0  0  0  0  0  0  0  0  0  0
   -6.5790   -3.2520   -1.7810 C   0  0  0  0  0  0  0  0  0  0  0  0
   -6.6030   -4.2870   -2.8900 C   0  0  0  0  0  0  0  0  0  0  0  0
   -6.6830   -4.0480   -4.0940 O   0  0  0  0  0  0  0  0  0  0  0  0
   -6.4910   -5.6640   -2.3150 N   0  0  0  0  0  0  0  0  0  0  0  0
   -7.2450   -5.9050   -1.0800 C   0  0  0  0  0  0  0  0  0  0  0  0
   -6.8030   -7.2140   -0.4220 C   0  0  0  0  0  0  0  0  0  0  0  0
   -5.4070   -7.5360   -0.6590 C   0  0  0  0  0  0  0  0  0  0  0  0
   -4.9390   -8.7120   -0.0610 C   0  0  0  0  0  0  0  0  0  0  0  0
   -3.8670   -8.4650    0.8670 N   0  0  0  0  0  0  0  0  0  0  0  0
   -2.7720   -7.5920    0.5200 C   0  0  0  0  0  0  0  0  0  0  0  0
   -2.3020   -7.1850    1.7680 C   0  0  0  0  0  0  0  0  0  0  0  0
   -3.2690   -7.3540    2.6640 N   0  0  0  0  0  0  0  0  0  0  0  0
   -4.0420   -8.4040    2.2440 C   0  0  0  0  0  0  0  0  0  0  0  0
   -4.7220   -9.1120    2.9620 O   0  0  0  0  0  0  0  0  0  0  0  0
   -4.9240   -7.5320   -2.1260 C   0  0  0  0  0  0  0  0  0  0  0  0
   -5.9320   -6.8160   -3.0080 C   0  0  0  0  0  0  0  0  0  0  0  0
   -5.3950    1.0340   -2.2550 H   0  0  0  0  0  0  0  0  0  0  0  0
   -5.2690   -0.4650   -2.7270 H   0  0  0  0  0  0  0  0  0  0  0  0
   -6.7800    0.3330   -2.4760 H   0  0  0  0  0  0  0  0  0  0  0  0
   -6.9620   -1.7330   -3.1000 H   0  0  0  0  0  0  0  0  0  0  0  0
   -5.6380   -3.3560   -1.2550 H   0  0  0  0  0  0  0  0  0  0  0  0
   -7.3690   -3.5110   -1.0680 H   0  0  0  0  0  0  0  0  0  0  0  0
   -8.3130   -5.9390   -1.3260 H   0  0  0  0  0  0  0  0  0  0  0  0
   -7.0860   -5.0640   -0.4030 H   0  0  0  0  0  0  0  0  0  0  0  0
   -7.4540   -8.0150   -0.7920 H   0  0  0  0  0  0  0  0  0  0  0  0
   -6.9780   -7.1500    0.6580 H   0  0  0  0  0  0  0  0  0  0  0  0
   -4.8530   -6.7150   -0.1790 H   0  0  0  0  0  0  0  0  0  0  0  0
   -4.5630   -9.4030   -0.8210 H   0  0  0  0  0  0  0  0  0  0  0  0
   -5.7550   -9.2110    0.4700 H   0  0  0  0  0  0  0  0  0  0  0  0
   -3.1880   -6.7330   -0.0140 H   0  0  0  0  0  0  0  0  0  0  0  0
   -2.0840   -8.1100   -0.1430 H   0  0  0  0  0  0  0  0  0  0  0  0
   -1.4450   -7.7220    2.1560 H   0  0  0  0  0  0  0  0  0  0  0  0
   -2.0390   -6.1330    1.8380 H   0  0  0  0  0  0  0  0  0  0  0  0
   -3.2040   -7.1410    3.6580 H   0  0  0  0  0  0  0  0  0  0  0  0
   -4.6710   -8.5600   -2.3620 H   0  0  0  0  0  0  0  0  0  0  0  0
   -3.9910   -6.9640   -2.2050 H   0  0  0  0  0  0  0  0  0  0  0  0
   -5.4590   -6.5450   -3.9540 H   0  0  0  0  0  0  0  0  0  0  0  0
   -6.7550   -7.4770   -3.2580 H   0  0  0  0  0  0  0  0  0  0  0  0
  1  2  1  0
  2  3  2  0
  2  4  1  0
  4  5  1  0
  5  6  1  0
  6  7  2  0
  6  8  1  0
  8  9  1  0
  9 10  1  0
 10 11  1  0
 11 12  1  0
 12 13  1  0
 13 14  1  0
 14 15  1  0
 15 16  1  0
 16 17  1  0
 17 18  2  0
 11 19  1  0
 19 20  1  0
 20  8  1  0
 17 13  1  0
  1 21  1  0
  1 22  1  0
  1 23  1  0
  4 24  1  0
  5 25  1  0
  5 26  1  0
  9 27  1  0
  9 28  1  0
 10 29  1  0
 10 30  1  0
 11 31  1  0
 12 32  1  0
 12 33  1  0
 14 34  1  0
 14 35  1  0
 15 36  1  0
 15 37  1  0
 16 38  1  0
 19 39  1  0
 19 40  1  0
 20 41  1  0
 20 42  1  0
A    1
 C1 
A    2
 C2 
A    3
 O1 
A    4
 N1 
A    5
 C3 
A    6
 C4 
A    7
 O2 
A    8
 N2 
A    9
 C5 
A   10
 C6 
A   11
 C7 
A   12
 C8 
A   13
 N3 
A   14
 C9 
A   15
 C10
A   16
 N4 
A   17
 C11
A   18
 O3 
A   19
 C12
A   20
 C13
A   21
 H1 
A   22
 H2 
A   23
 H3 
A   24
 H4 
A   25
 H5 
A   26
 H6 
A   27
 H7 
A   28
 H8 
A   29
 H9 
A   30
 H10
A   31
 H11
A   32
 H12
A   33
 H13
A   34
 H14
A   35
 H15
A   36
 H16
A   37
 H17
A   38
 H18
A   39
 H19
A   40
 H20
A   41
 H21
A   42
 H22
M  END
>  <ref_pdb>  (124) 
x0147_0A

>  <ref_mols>  (124) 
x1071_0A,x1247_0AS1

>  <original SMILES>  (124) 
[H]N(C(=O)C([H])([H])[H])C([H])([H])C(=O)N1C([H])([H])C([H])([H])C([H])(C([H])([H])N2C(=O)N([H])C([H])([H])C2([H])[H])C([H])([H])C1([H])[H]

>  <index>  (124) 
1922

>  <∆∆G>  (124) 
-8.404674

>  <comRMSD>  (124) 
0.413912

>  <N_constrained_atoms>  (124) 
19.0

>  <N_unconstrained_atoms>  (124) 
1.0

>  <LE>  (124) 
0.420234

>  <percent_hybrid>  (124) 
32.0

>  <max_hit_Tanimoto>  (124) 
0.365672

>  <largest_ring>  (124) 
6

>  <N_interactions_kept>  (124) 
0.0

>  <N_interactions_lost>  (124) 
3.0

>  <interaction_uniqueness_metric>  (124) 
0.09115

>  <N_HA>  (124) 
20

>  <N_rotatable_bonds>  (124) 
5

>  <N_interactions>  (124) 
6

>  <N_PAINS>  (124) 
0

>  <UFF_Gibbs>  (124) 
250.499915

>  <strain_per_HA>  (124) 
12.524933

>  <ad_hoc_penalty>  (124) 
-25.93711

>  <cluster>  (124) 
6918

>  <ranked>  (124) 
144.0

>  <merger_rank>  (124) 
3

>  <hydroph_interaction:LEU:127>  (124) 
0

>  <hbond:GLY:128>  (124) 
1

>  <hydroph_interaction:ALA:144>  (124) 
0

>  <hbond:GLY:164>  (124) 
2

>  <hbond:HIS:40>  (124) 
0

>  <pistack:HIS:40>  (124) 
0

>  <hydroph_interaction:LEU:125>  (124) 
0

>  <hydroph_interaction:PHE:170>  (124) 
1

>  <hydroph_interaction:HIS:40>  (124) 
0

>  <pication:HIS:40>  (124) 
0

>  <hbond:THR:142>  (124) 
0

>  <hbond:HIS:161>  (124) 
0

>  <hbond:GLY:166>  (124) 
0

>  <hbond:VAL:162>  (124) 
0

>  <hydroph_interaction:ASN:165>  (124) 
0

>  <hbond:ASN:126>  (124) 
0

>  <hbond:ARG:143>  (124) 
0

>  <hbond:GLU:71>  (124) 
0

>  <saltbridge:HIS:161>  (124) 
0

>  <hbond:ALA:144>  (124) 
0

>  <hbond:GLY:145>  (124) 
0

>  <hbond:GLN:146>  (124) 
0

>  <hbond:CYS:147>  (124) 
0

>  <halogenbond:ASN:126>  (124) 
0

>  <saltbridge:HIS:40>  (124) 
0

>  <hbond:LEU:127>  (124) 
0

>  <hbond:THR:130>  (124) 
2

>  <hydroph_interaction:GLU:71>  (124) 
0

>  <hydroph_interaction:THR:130>  (124) 
0

>  <saltbridge:ARG:143>  (124) 
0

>  <saltbridge:GLU:71>  (124) 
0

>  <hbond:GLY:129>  (124) 
0

>  <halogenbond:CYS:147>  (124) 
0

>  <hydroph_interaction:THR:39>  (124) 
0

>  <hbond:ASN:69>  (124) 
0

>  <hydroph_interaction:THR:132>  (124) 
0

>  <hbond:TYR:122>  (124) 
0

>  <hydroph_interaction:PHE:109>  (124) 
0

>  <hydroph_interaction:PHE:140>  (124) 
0

>  <hbond:PRO:141>  (124) 
0

$$$$
Z3575577435-x2149-0AS6
     RDKit          3D

 48 49  0  0  0  0  0  0  0  0999 V2000
   -6.4180   -4.9990   -0.9770 C   0  0  0  0  0  0  0  0  0  0  0  0
   -7.0550   -5.9600   -1.7170 C   0  0  0  0  0  0  0  0  0  0  0  0
   -6.7780   -5.9370   -3.0660 C   0  0  0  0  0  0  0  0  0  0  0  0
   -5.7990   -6.7590   -3.6010 C   0  0  0  0  0  0  0  0  0  0  0  0
   -5.6950   -8.1050   -3.0560 C   0  0  0  0  0  0  0  0  0  0  0  0
   -5.2060   -8.2460   -1.8280 C   0  0  0  0  0  0  0  0  0  0  0  0
   -5.9050   -9.1130   -0.8500 C   0  0  0  0  0  0  0  0  0  0  0  0
   -5.3120   -9.2400    0.5520 C   0  0  0  0  0  0  0  0  0  0  0  0
   -4.0220   -8.4610    0.8670 C   0  0  0  0  0  0  0  0  0  0  0  0
   -3.4420   -7.6750   -0.1210 C   0  0  0  0  0  0  0  0  0  0  0  0
   -4.0450   -7.5650   -1.4960 C   0  0  0  0  0  0  0  0  0  0  0  0
   -7.9730   -6.0290   -3.8930 N   0  0  0  0  0  0  0  0  0  0  0  0
   -7.8230   -5.3330   -5.0380 C   0  0  0  0  0  0  0  0  0  0  0  0
   -7.4070   -4.1870   -5.0460 O   0  0  0  0  0  0  0  0  0  0  0  0
   -8.1930   -6.0870   -6.2830 C   0  0  0  0  0  0  0  0  0  0  0  0
   -9.1700   -5.2050   -6.9270 C   0  0  0  0  0  0  0  0  0  0  0  0
   -8.5000   -4.3620   -7.7790 C   0  0  0  0  0  0  0  0  0  0  0  0
   -7.3250   -4.9870   -8.1820 C   0  0  0  0  0  0  0  0  0  0  0  0
   -6.6070   -4.5840   -9.0890 O   0  0  0  0  0  0  0  0  0  0  0  0
   -7.1870   -6.1140   -7.3310 N   0  0  0  0  0  0  0  0  0  0  0  0
   -6.4520   -7.3210   -7.6150 C   0  0  0  0  0  0  0  0  0  0  0  0
   -6.1330   -7.4370   -9.0710 C   0  0  0  0  0  0  0  0  0  0  0  0
   -5.8230   -4.3440   -1.6170 H   0  0  0  0  0  0  0  0  0  0  0  0
   -7.1660   -4.3850   -0.4750 H   0  0  0  0  0  0  0  0  0  0  0  0
   -5.7640   -5.4450   -0.2270 H   0  0  0  0  0  0  0  0  0  0  0  0
   -8.1360   -5.8660   -1.5620 H   0  0  0  0  0  0  0  0  0  0  0  0
   -6.7710   -6.9410   -1.3190 H   0  0  0  0  0  0  0  0  0  0  0  0
   -6.4420   -4.9080   -3.2550 H   0  0  0  0  0  0  0  0  0  0  0  0
   -5.7460   -6.7510   -4.6860 H   0  0  0  0  0  0  0  0  0  0  0  0
   -4.8580   -6.2980   -3.2820 H   0  0  0  0  0  0  0  0  0  0  0  0
   -6.6830   -8.5740   -3.0820 H   0  0  0  0  0  0  0  0  0  0  0  0
   -5.0710   -8.7180   -3.7140 H   0  0  0  0  0  0  0  0  0  0  0  0
   -6.8160   -9.6470   -1.1130 H   0  0  0  0  0  0  0  0  0  0  0  0
   -5.7880   -9.8640    1.3040 H   0  0  0  0  0  0  0  0  0  0  0  0
   -3.5670   -8.5250    1.8520 H   0  0  0  0  0  0  0  0  0  0  0  0
   -2.5300   -7.1270    0.1050 H   0  0  0  0  0  0  0  0  0  0  0  0
   -3.5550   -6.9380   -2.2340 H   0  0  0  0  0  0  0  0  0  0  0  0
   -8.4790   -6.9030   -3.9090 H   0  0  0  0  0  0  0  0  0  0  0  0
   -8.5860   -7.0860   -6.0630 H   0  0  0  0  0  0  0  0  0  0  0  0
   -9.8670   -5.8100   -7.5080 H   0  0  0  0  0  0  0  0  0  0  0  0
   -9.7740   -4.6380   -6.2120 H   0  0  0  0  0  0  0  0  0  0  0  0
   -9.0860   -3.9470   -8.5930 H   0  0  0  0  0  0  0  0  0  0  0  0
   -8.1670   -3.5020   -7.1920 H   0  0  0  0  0  0  0  0  0  0  0  0
   -6.9880   -8.1390   -7.1400 H   0  0  0  0  0  0  0  0  0  0  0  0
   -5.4950   -7.2460   -7.0890 H   0  0  0  0  0  0  0  0  0  0  0  0
   -5.0770   -7.5730   -9.1760 H   0  0  0  0  0  0  0  0  0  0  0  0
   -6.4260   -6.5480   -9.6300 H   0  0  0  0  0  0  0  0  0  0  0  0
   -6.6220   -8.3080   -9.5060 H   0  0  0  0  0  0  0  0  0  0  0  0
  1  2  1  0
  2  3  1  0
  3  4  1  0
  4  5  1  0
  5  6  1  0
  6  7  2  0
  7  8  1  0
  8  9  2  0
  9 10  1  0
 10 11  2  0
  3 12  1  0
 12 13  1  0
 13 14  2  0
 13 15  1  0
 15 16  1  0
 16 17  1  0
 17 18  1  0
 18 19  2  0
 18 20  1  0
 20 21  1  0
 21 22  1  0
 11  6  1  0
 20 15  1  0
  1 23  1  0
  1 24  1  0
  1 25  1  0
  2 26  1  0
  2 27  1  0
  3 28  1  0
  4 29  1  0
  4 30  1  0
  5 31  1  0
  5 32  1  0
  7 33  1  0
  8 34  1  0
  9 35  1  0
 10 36  1  0
 11 37  1  0
 12 38  1  0
 15 39  1  0
 16 40  1  0
 16 41  1  0
 17 42  1  0
 17 43  1  0
 21 44  1  0
 21 45  1  0
 22 46  1  0
 22 47  1  0
 22 48  1  0
A    1
 C1 
A    2
 C2 
A    3
 C3 
A    4
 C4 
A    5
 C5 
A    6
 C6 
A    7
 C7 
A    8
 C8 
A    9
 C9 
A   10
 C10
A   11
 C11
A   12
 N1 
A   13
 C12
A   14
 O1 
A   15
 C13
A   16
 C14
A   17
 C15
A   18
 C16
A   19
 O2 
A   20
 N2 
A   21
 C17
A   22
 C18
A   23
 H1 
A   24
 H2 
A   25
 H3 
A   26
 H4 
A   27
 H5 
A   28
 H6 
A   29
 H7 
A   30
 H8 
A   31
 H9 
A   32
 H10
A   33
 H11
A   34
 H12
A   35
 H13
A   36
 H14
A   37
 H15
A   38
 H16
A   39
 H17
A   40
 H18
A   41
 H19
A   42
 H20
A   43
 H21
A   44
 H22
A   45
 H23
A   46
 H24
A   47
 H25
A   48
 H26
M  END
>  <ref_pdb>  (125) 
x0147_0A

>  <ref_mols>  (125) 
x2149_0AS6,x1140_0AS5

>  <original SMILES>  (125) 
[H]c1c([H])c([H])c(C([H])([H])C([H])([H])C([H])(N([H])C(=O)C2([H])N(C([H])([H])C([H])([H])[H])C(=O)C([H])([H])C2([H])[H])C([H])([H])C([H])([H])[H])c([H])c1[H]

>  <index>  (125) 
860

>  <∆∆G>  (125) 
-11.610017

>  <comRMSD>  (125) 
0.655064

>  <N_constrained_atoms>  (125) 
20.0

>  <N_unconstrained_atoms>  (125) 
4.0

>  <LE>  (125) 
0.483751

>  <percent_hybrid>  (125) 
35.0

>  <max_hit_Tanimoto>  (125) 
0.225379

>  <largest_ring>  (125) 
6

>  <N_interactions_kept>  (125) 
2.0

>  <N_interactions_lost>  (125) 
3.0

>  <interaction_uniqueness_metric>  (125) 
0.056415

>  <N_HA>  (125) 
22

>  <N_rotatable_bonds>  (125) 
9

>  <N_interactions>  (125) 
5

>  <N_PAINS>  (125) 
0

>  <UFF_Gibbs>  (125) 
231.596

>  <strain_per_HA>  (125) 
10.527043

>  <ad_hoc_penalty>  (125) 
-25.876716

>  <cluster>  (125) 
7138

>  <ranked>  (125) 
146.0

>  <merger_rank>  (125) 
1

>  <hydroph_interaction:LEU:127>  (125) 
2

>  <hbond:GLY:128>  (125) 
0

>  <hydroph_interaction:ALA:144>  (125) 
0

>  <hbond:GLY:164>  (125) 
1

>  <hbond:HIS:40>  (125) 
0

>  <pistack:HIS:40>  (125) 
1

>  <hydroph_interaction:LEU:125>  (125) 
0

>  <hydroph_interaction:PHE:170>  (125) 
0

>  <hydroph_interaction:HIS:40>  (125) 
1

>  <pication:HIS:40>  (125) 
0

>  <hbond:THR:142>  (125) 
0

>  <hbond:HIS:161>  (125) 
0

>  <hbond:GLY:166>  (125) 
0

>  <hbond:VAL:162>  (125) 
0

>  <hydroph_interaction:ASN:165>  (125) 
0

>  <hbond:ASN:126>  (125) 
0

>  <hbond:ARG:143>  (125) 
0

>  <hbond:GLU:71>  (125) 
0

>  <saltbridge:HIS:161>  (125) 
0

>  <hbond:ALA:144>  (125) 
0

>  <hbond:GLY:145>  (125) 
0

>  <hbond:GLN:146>  (125) 
0

>  <hbond:CYS:147>  (125) 
0

>  <halogenbond:ASN:126>  (125) 
0

>  <saltbridge:HIS:40>  (125) 
0

>  <hbond:LEU:127>  (125) 
0

>  <hbond:THR:130>  (125) 
0

>  <hydroph_interaction:GLU:71>  (125) 
0

>  <hydroph_interaction:THR:130>  (125) 
0

>  <saltbridge:ARG:143>  (125) 
0

>  <saltbridge:GLU:71>  (125) 
0

>  <hbond:GLY:129>  (125) 
0

>  <halogenbond:CYS:147>  (125) 
0

>  <hydroph_interaction:THR:39>  (125) 
0

>  <hbond:ASN:69>  (125) 
0

>  <hydroph_interaction:THR:132>  (125) 
0

>  <hbond:TYR:122>  (125) 
0

>  <hydroph_interaction:PHE:109>  (125) 
0

>  <hydroph_interaction:PHE:140>  (125) 
0

>  <hbond:PRO:141>  (125) 
0

$$$$
Z798181022-x1919-0AS12
     RDKit          3D

 45 46  0  0  0  0  0  0  0  0999 V2000
   -5.5800    0.7070   -1.8670 C   0  0  0  0  0  0  0  0  0  0  0  0
   -6.1130    0.5080   -0.5340 N   0  0  0  0  0  0  0  0  0  0  0  0
   -5.8950    1.5850    0.4800 C   0  0  0  0  0  0  0  0  0  0  0  0
   -5.7700    2.7340    0.0640 C   0  0  0  0  0  0  0  0  0  0  0  0
   -5.4320    3.8550   -0.8580 C   0  0  0  0  0  0  0  0  0  0  0  0
   -5.6340    5.1360   -0.4830 O   0  0  0  0  0  0  0  0  0  0  0  0
   -6.1390    4.9840    0.7410 C   0  0  0  0  0  0  0  0  0  0  0  0
   -6.2370    3.6570    1.0960 C   0  0  0  0  0  0  0  0  0  0  0  0
   -6.9740   -0.6800   -0.3450 C   0  0  0  0  0  0  0  0  0  0  0  0
   -7.8680   -0.7240    0.4910 O   0  0  0  0  0  0  0  0  0  0  0  0
   -6.7100   -1.7780   -1.1690 N   0  0  0  0  0  0  0  0  0  0  0  0
   -7.5360   -2.8820   -1.2350 C   0  0  0  0  0  0  0  0  0  0  0  0
   -6.8610   -4.1090   -1.4160 C   0  0  0  0  0  0  0  0  0  0  0  0
   -7.2080   -4.7170   -3.0530 S   0  0  0  0  0  6  0  0  0  0  0  0
   -6.2540   -4.1310   -3.9570 O   0  0  0  0  0  0  0  0  0  0  0  0
   -8.6270   -4.5340   -3.2880 O   0  0  0  0  0  0  0  0  0  0  0  0
   -7.0040   -6.3920   -2.9600 N   0  0  0  0  0  0  0  0  0  0  0  0
   -5.6890   -7.0150   -3.1880 C   0  0  0  0  0  0  0  0  0  0  0  0
   -5.2470   -7.5680   -1.9810 C   0  0  0  0  0  0  0  0  0  0  0  0
   -3.8720   -7.3170   -1.5080 C   0  0  0  0  0  0  0  0  0  0  0  0
   -3.3890   -7.8350   -0.3080 C   0  0  0  0  0  0  0  0  0  0  0  0
   -4.2660   -8.6510    0.4970 C   0  0  0  0  0  0  0  0  0  0  0  0
   -5.5820   -8.8800    0.0110 C   0  0  0  0  0  0  0  0  0  0  0  0
   -6.0620   -8.3550   -1.1920 C   0  0  0  0  0  0  0  0  0  0  0  0
   -5.4440    1.7750   -2.0540 H   0  0  0  0  0  0  0  0  0  0  0  0
   -4.6240    0.1920   -1.9780 H   0  0  0  0  0  0  0  0  0  0  0  0
   -6.2900    0.3010   -2.5970 H   0  0  0  0  0  0  0  0  0  0  0  0
   -4.9550    1.3680    0.9930 H   0  0  0  0  0  0  0  0  0  0  0  0
   -6.6730    1.5180    1.2480 H   0  0  0  0  0  0  0  0  0  0  0  0
   -5.0140    3.5860   -1.8350 H   0  0  0  0  0  0  0  0  0  0  0  0
   -6.4250    5.8470    1.3520 H   0  0  0  0  0  0  0  0  0  0  0  0
   -6.6460    3.4690    2.0970 H   0  0  0  0  0  0  0  0  0  0  0  0
   -6.3690   -1.4680   -2.0730 H   0  0  0  0  0  0  0  0  0  0  0  0
   -8.1950   -2.7260   -2.1000 H   0  0  0  0  0  0  0  0  0  0  0  0
   -8.1890   -2.8920   -0.3610 H   0  0  0  0  0  0  0  0  0  0  0  0
   -7.1870   -4.8640   -0.6930 H   0  0  0  0  0  0  0  0  0  0  0  0
   -5.7830   -3.9850   -1.3190 H   0  0  0  0  0  0  0  0  0  0  0  0
   -7.7950   -6.8920   -3.3650 H   0  0  0  0  0  0  0  0  0  0  0  0
   -4.9770   -6.2470   -3.4550 H   0  0  0  0  0  0  0  0  0  0  0  0
   -5.7700   -7.6660   -4.0550 H   0  0  0  0  0  0  0  0  0  0  0  0
   -3.2100   -6.7080   -2.1120 H   0  0  0  0  0  0  0  0  0  0  0  0
   -2.3720   -7.6360    0.0220 H   0  0  0  0  0  0  0  0  0  0  0  0
   -3.9400   -9.0780    1.4360 H   0  0  0  0  0  0  0  0  0  0  0  0
   -6.3190   -9.4750    0.5300 H   0  0  0  0  0  0  0  0  0  0  0  0
   -7.0680   -8.5380   -1.5470 H   0  0  0  0  0  0  0  0  0  0  0  0
  1  2  1  0
  2  3  1  0
  3  4  1  0
  4  5  2  0
  5  6  1  0
  6  7  1  0
  7  8  2  0
  2  9  1  0
  9 10  2  0
  9 11  1  0
 11 12  1  0
 12 13  1  0
 13 14  1  0
 14 15  2  0
 14 16  2  0
 14 17  1  0
 17 18  1  0
 18 19  1  0
 19 20  2  0
 20 21  1  0
 21 22  2  0
 22 23  1  0
 23 24  2  0
  8  4  1  0
 24 19  1  0
  1 25  1  0
  1 26  1  0
  1 27  1  0
  3 28  1  0
  3 29  1  0
  5 30  1  0
  7 31  1  0
  8 32  1  0
 11 33  1  0
 12 34  1  0
 12 35  1  0
 13 36  1  0
 13 37  1  0
 17 38  1  0
 18 39  1  0
 18 40  1  0
 20 41  1  0
 21 42  1  0
 22 43  1  0
 23 44  1  0
 24 45  1  0
A    1
 C1 
A    2
 N1 
A    3
 C2 
A    4
 C3 
A    5
 C4 
A    6
 O1 
A    7
 C5 
A    8
 C6 
A    9
 C7 
A   10
 O2 
A   11
 N2 
A   12
 C8 
A   13
 C9 
A   14
 S1 
A   15
 O3 
A   16
 O4 
A   17
 N3 
A   18
 C10
A   19
 C11
A   20
 C12
A   21
 C13
A   22
 C14
A   23
 C15
A   24
 C16
A   25
 H1 
A   26
 H2 
A   27
 H3 
A   28
 H4 
A   29
 H5 
A   30
 H6 
A   31
 H7 
A   32
 H8 
A   33
 H9 
A   34
 H10
A   35
 H11
A   36
 H12
A   37
 H13
A   38
 H14
A   39
 H15
A   40
 H16
A   41
 H17
A   42
 H18
A   43
 H19
A   44
 H20
A   45
 H21
M  END
>  <ref_pdb>  (126) 
x0147_0A

>  <ref_mols>  (126) 
x1919_0AS12,x1285_0BS1

>  <original SMILES>  (126) 
[H]c1oc([H])c(C([H])([H])N(C(=O)N([H])C([H])([H])C([H])([H])S(=O)(=O)N([H])C([H])([H])c2c([H])c([H])c([H])c([H])c2[H])C([H])([H])[H])c1[H]

>  <index>  (126) 
3168

>  <∆∆G>  (126) 
-8.482907

>  <comRMSD>  (126) 
0.559385

>  <N_constrained_atoms>  (126) 
22.0

>  <N_unconstrained_atoms>  (126) 
2.0

>  <LE>  (126) 
0.353454

>  <percent_hybrid>  (126) 
28.0

>  <max_hit_Tanimoto>  (126) 
0.377395

>  <largest_ring>  (126) 
6

>  <N_interactions_kept>  (126) 
0.5

>  <N_interactions_lost>  (126) 
3.0

>  <interaction_uniqueness_metric>  (126) 
0.138072

>  <N_HA>  (126) 
24

>  <N_rotatable_bonds>  (126) 
9

>  <N_interactions>  (126) 
7

>  <N_PAINS>  (126) 
0

>  <UFF_Gibbs>  (126) 
198.135323

>  <strain_per_HA>  (126) 
8.255604

>  <ad_hoc_penalty>  (126) 
-25.797763

>  <cluster>  (126) 
2614

>  <ranked>  (126) 
147.0

>  <merger_rank>  (126) 
1

>  <hydroph_interaction:LEU:127>  (126) 
1

>  <hbond:GLY:128>  (126) 
1

>  <hydroph_interaction:ALA:144>  (126) 
0

>  <hbond:GLY:164>  (126) 
2

>  <hbond:HIS:40>  (126) 
0

>  <pistack:HIS:40>  (126) 
0

>  <hydroph_interaction:LEU:125>  (126) 
1

>  <hydroph_interaction:PHE:170>  (126) 
0

>  <hydroph_interaction:HIS:40>  (126) 
1

>  <pication:HIS:40>  (126) 
1

>  <hbond:THR:142>  (126) 
0

>  <hbond:HIS:161>  (126) 
0

>  <hbond:GLY:166>  (126) 
0

>  <hbond:VAL:162>  (126) 
0

>  <hydroph_interaction:ASN:165>  (126) 
0

>  <hbond:ASN:126>  (126) 
0

>  <hbond:ARG:143>  (126) 
0

>  <hbond:GLU:71>  (126) 
0

>  <saltbridge:HIS:161>  (126) 
0

>  <hbond:ALA:144>  (126) 
0

>  <hbond:GLY:145>  (126) 
0

>  <hbond:GLN:146>  (126) 
0

>  <hbond:CYS:147>  (126) 
0

>  <halogenbond:ASN:126>  (126) 
0

>  <saltbridge:HIS:40>  (126) 
0

>  <hbond:LEU:127>  (126) 
0

>  <hbond:THR:130>  (126) 
0

>  <hydroph_interaction:GLU:71>  (126) 
0

>  <hydroph_interaction:THR:130>  (126) 
0

>  <saltbridge:ARG:143>  (126) 
0

>  <saltbridge:GLU:71>  (126) 
0

>  <hbond:GLY:129>  (126) 
0

>  <halogenbond:CYS:147>  (126) 
0

>  <hydroph_interaction:THR:39>  (126) 
0

>  <hbond:ASN:69>  (126) 
0

>  <hydroph_interaction:THR:132>  (126) 
0

>  <hbond:TYR:122>  (126) 
0

>  <hydroph_interaction:PHE:109>  (126) 
0

>  <hydroph_interaction:PHE:140>  (126) 
0

>  <hbond:PRO:141>  (126) 
0

$$$$
Z1255923525-x1919-0A
     RDKit          3D

 49 51  0  0  0  0  0  0  0  0999 V2000
   -6.4070   -4.1580   -3.8470 O   0  0  0  0  0  0  0  0  0  0  0  0
   -6.6370   -4.9130   -2.8850 C   0  0  0  0  0  0  0  0  0  0  0  0
   -6.6730   -4.3720   -1.4430 C   0  0  0  0  0  0  0  0  0  0  0  0
   -7.5030   -3.1070   -1.2840 C   0  0  0  0  0  0  0  0  0  0  0  0
   -7.0180   -1.8730   -1.5680 C   0  0  0  0  0  0  0  0  0  0  0  0
   -6.7510   -0.9180   -0.5970 N   0  0  0  0  0  0  0  0  0  0  0  0
   -5.8920    0.1480   -0.8380 C   0  0  0  0  0  0  0  0  0  0  0  0
   -5.3510    0.3120   -1.9210 O   0  0  0  0  0  0  0  0  0  0  0  0
   -5.7200    0.9530    0.2510 O   0  0  0  0  0  0  0  0  0  0  0  0
   -6.7780    1.8730    0.5660 C   0  0  0  0  0  0  0  0  0  0  0  0
   -6.2980    3.1930    0.4220 C   0  0  0  0  0  0  0  0  0  0  0  0
   -5.4980    3.5820   -0.6460 C   0  0  0  0  0  0  0  0  0  0  0  0
   -4.9690    4.9950   -0.8320 C   0  0  0  0  0  0  0  0  0  0  0  0
   -5.2940    6.0860    0.1680 C   0  0  0  0  0  0  0  0  0  0  0  0
   -6.1050    5.6840    1.2450 C   0  0  0  0  0  0  0  0  0  0  0  0
   -6.5920    4.2220    1.3470 C   0  0  0  0  0  0  0  0  0  0  0  0
   -6.8770   -6.2870   -3.0930 N   0  0  0  0  0  0  0  0  0  0  0  0
   -5.8780   -7.1930   -3.2800 C   0  0  0  0  0  0  0  0  0  0  0  0
   -5.3230   -7.6720   -1.9610 C   0  0  0  0  0  0  0  0  0  0  0  0
   -6.0820   -8.5370   -1.1400 C   0  0  0  0  0  0  0  0  0  0  0  0
   -5.5670   -8.9690    0.0860 C   0  0  0  0  0  0  0  0  0  0  0  0
   -4.3080   -8.5070    0.4240 C   0  0  0  0  0  0  0  0  0  0  0  0
   -3.5290   -8.7310    1.5420 C   0  0  0  0  0  0  0  0  0  0  0  0
   -2.3560   -8.0330    1.3880 C   0  0  0  0  0  0  0  0  0  0  0  0
   -2.3990   -7.3770    0.1840 O   0  0  0  0  0  0  0  0  0  0  0  0
   -3.6000   -7.6740   -0.3970 C   0  0  0  0  0  0  0  0  0  0  0  0
   -4.0990   -7.2390   -1.6150 C   0  0  0  0  0  0  0  0  0  0  0  0
   -5.6800   -4.1690   -1.0630 H   0  0  0  0  0  0  0  0  0  0  0  0
   -7.0790   -5.1770   -0.8190 H   0  0  0  0  0  0  0  0  0  0  0  0
   -8.3590   -3.2390   -1.9530 H   0  0  0  0  0  0  0  0  0  0  0  0
   -7.9300   -3.0920   -0.2900 H   0  0  0  0  0  0  0  0  0  0  0  0
   -7.7200   -1.3860   -2.2520 H   0  0  0  0  0  0  0  0  0  0  0  0
   -6.1000   -1.9990   -2.1400 H   0  0  0  0  0  0  0  0  0  0  0  0
   -7.6330   -0.5320   -0.2570 H   0  0  0  0  0  0  0  0  0  0  0  0
   -7.2160    1.5650    1.5100 H   0  0  0  0  0  0  0  0  0  0  0  0
   -7.5780    1.7420   -0.1680 H   0  0  0  0  0  0  0  0  0  0  0  0
   -5.2370    2.8290   -1.4010 H   0  0  0  0  0  0  0  0  0  0  0  0
   -4.3520    5.1410   -1.7250 H   0  0  0  0  0  0  0  0  0  0  0  0
   -4.9760    7.1350    0.1470 H   0  0  0  0  0  0  0  0  0  0  0  0
   -6.3870    6.4110    2.0120 H   0  0  0  0  0  0  0  0  0  0  0  0
   -7.2120    4.0470    2.2300 H   0  0  0  0  0  0  0  0  0  0  0  0
   -7.8040   -6.6520   -2.8930 H   0  0  0  0  0  0  0  0  0  0  0  0
   -5.1040   -6.7040   -3.8640 H   0  0  0  0  0  0  0  0  0  0  0  0
   -6.2130   -8.0570   -3.8660 H   0  0  0  0  0  0  0  0  0  0  0  0
   -7.0770   -8.8730   -1.4520 H   0  0  0  0  0  0  0  0  0  0  0  0
   -6.1290   -9.6340    0.7360 H   0  0  0  0  0  0  0  0  0  0  0  0
   -3.7840   -9.3550    2.4040 H   0  0  0  0  0  0  0  0  0  0  0  0
   -1.4570   -7.8970    1.9750 H   0  0  0  0  0  0  0  0  0  0  0  0
   -3.5360   -6.5850   -2.2570 H   0  0  0  0  0  0  0  0  0  0  0  0
  1  2  2  0
  2  3  1  0
  3  4  1  0
  4  5  1  0
  5  6  1  0
  6  7  1  0
  7  8  2  0
  7  9  1  0
  9 10  1  0
 10 11  1  0
 11 12  2  0
 12 13  1  0
 13 14  2  0
 14 15  1  0
 15 16  2  0
  2 17  1  0
 17 18  1  0
 18 19  1  0
 19 20  2  0
 20 21  1  0
 21 22  2  0
 22 23  1  0
 23 24  2  0
 24 25  1  0
 25 26  1  0
 26 27  2  0
 16 11  1  0
 27 19  1  0
 26 22  1  0
  3 28  1  0
  3 29  1  0
  4 30  1  0
  4 31  1  0
  5 32  1  0
  5 33  1  0
  6 34  1  0
 10 35  1  0
 10 36  1  0
 12 37  1  0
 13 38  1  0
 14 39  1  0
 15 40  1  0
 16 41  1  0
 17 42  1  0
 18 43  1  0
 18 44  1  0
 20 45  1  0
 21 46  1  0
 23 47  1  0
 24 48  1  0
 27 49  1  0
A    1
 O1 
A    2
 C1 
A    3
 C2 
A    4
 C3 
A    5
 C4 
A    6
 N1 
A    7
 C5 
A    8
 O2 
A    9
 O3 
A   10
 C6 
A   11
 C7 
A   12
 C8 
A   13
 C9 
A   14
 C10
A   15
 C11
A   16
 C12
A   17
 N2 
A   18
 C13
A   19
 C14
A   20
 C15
A   21
 C16
A   22
 C17
A   23
 C18
A   24
 C19
A   25
 O4 
A   26
 C20
A   27
 C21
A   28
 H1 
A   29
 H2 
A   30
 H3 
A   31
 H4 
A   32
 H5 
A   33
 H6 
A   34
 H7 
A   35
 H8 
A   36
 H9 
A   37
 H10
A   38
 H11
A   39
 H12
A   40
 H13
A   41
 H14
A   42
 H15
A   43
 H16
A   44
 H17
A   45
 H18
A   46
 H19
A   47
 H20
A   48
 H21
A   49
 H22
M  END
>  <ref_pdb>  (127) 
x0147_0A

>  <ref_mols>  (127) 
x1919_0A,x1285_0BS1

>  <original SMILES>  (127) 
[H]c1oc2c([H])c(C([H])([H])N([H])C(=O)C([H])([H])C([H])([H])C([H])([H])N([H])C(=O)OC([H])([H])c3c([H])c([H])c([H])c([H])c3[H])c([H])c([H])c2c1[H]

>  <index>  (127) 
12222

>  <∆∆G>  (127) 
-5.659996

>  <comRMSD>  (127) 
0.421338

>  <N_constrained_atoms>  (127) 
25.0

>  <N_unconstrained_atoms>  (127) 
2.0

>  <LE>  (127) 
0.209629

>  <percent_hybrid>  (127) 
24.0

>  <max_hit_Tanimoto>  (127) 
0.188264

>  <largest_ring>  (127) 
6

>  <N_interactions_kept>  (127) 
2.5

>  <N_interactions_lost>  (127) 
3.0

>  <interaction_uniqueness_metric>  (127) 
0.204136

>  <N_HA>  (127) 
27

>  <N_rotatable_bonds>  (127) 
8

>  <N_interactions>  (127) 
8

>  <N_PAINS>  (127) 
0

>  <UFF_Gibbs>  (127) 
129.843717

>  <strain_per_HA>  (127) 
4.809009

>  <ad_hoc_penalty>  (127) 
-25.761946

>  <cluster>  (127) 
1199

>  <ranked>  (127) 
149.0

>  <merger_rank>  (127) 
2

>  <hydroph_interaction:LEU:127>  (127) 
2

>  <hbond:GLY:128>  (127) 
1

>  <hydroph_interaction:ALA:144>  (127) 
0

>  <hbond:GLY:164>  (127) 
1

>  <hbond:HIS:40>  (127) 
0

>  <pistack:HIS:40>  (127) 
1

>  <hydroph_interaction:LEU:125>  (127) 
1

>  <hydroph_interaction:PHE:170>  (127) 
0

>  <hydroph_interaction:HIS:40>  (127) 
1

>  <pication:HIS:40>  (127) 
0

>  <hbond:THR:142>  (127) 
0

>  <hbond:HIS:161>  (127) 
0

>  <hbond:GLY:166>  (127) 
0

>  <hbond:VAL:162>  (127) 
0

>  <hydroph_interaction:ASN:165>  (127) 
0

>  <hbond:ASN:126>  (127) 
1

>  <hbond:ARG:143>  (127) 
0

>  <hbond:GLU:71>  (127) 
0

>  <saltbridge:HIS:161>  (127) 
0

>  <hbond:ALA:144>  (127) 
0

>  <hbond:GLY:145>  (127) 
0

>  <hbond:GLN:146>  (127) 
0

>  <hbond:CYS:147>  (127) 
0

>  <halogenbond:ASN:126>  (127) 
0

>  <saltbridge:HIS:40>  (127) 
0

>  <hbond:LEU:127>  (127) 
0

>  <hbond:THR:130>  (127) 
0

>  <hydroph_interaction:GLU:71>  (127) 
0

>  <hydroph_interaction:THR:130>  (127) 
0

>  <saltbridge:ARG:143>  (127) 
0

>  <saltbridge:GLU:71>  (127) 
0

>  <hbond:GLY:129>  (127) 
0

>  <halogenbond:CYS:147>  (127) 
0

>  <hydroph_interaction:THR:39>  (127) 
0

>  <hbond:ASN:69>  (127) 
0

>  <hydroph_interaction:THR:132>  (127) 
0

>  <hbond:TYR:122>  (127) 
0

>  <hydroph_interaction:PHE:109>  (127) 
0

>  <hydroph_interaction:PHE:140>  (127) 
0

>  <hbond:PRO:141>  (127) 
0

$$$$
Z871917000-x1919-0AS2
     RDKit          3D

 41 43  0  0  0  0  0  0  0  0999 V2000
   -6.9570   -4.5700   -9.4440 O   0  0  0  0  0  0  0  0  0  0  0  0
   -7.4870   -4.7130   -8.3460 C   0  0  0  0  0  0  0  0  0  0  0  0
   -8.4280   -3.6840   -7.7690 C   0  0  0  0  0  0  0  0  0  0  0  0
   -9.0420   -3.9120   -6.3920 C   0  0  0  0  0  0  0  0  0  0  0  0
   -8.6850   -5.2050   -5.6050 C   0  0  0  0  0  0  0  0  0  0  0  0
   -9.3370   -5.3750   -4.1850 C   0  0  0  0  0  0  0  0  0  0  0  0
   -8.6470   -4.6130   -3.0190 C   0  0  0  0  0  0  0  0  0  0  0  0
   -7.6690   -5.3600   -2.3800 N   0  0  0  0  0  0  0  0  0  0  0  0
   -6.3620   -5.1510   -3.0020 C   0  0  0  0  0  0  0  0  0  0  0  0
   -5.9060   -3.4500   -2.9930 S   0  0  0  0  0  0  0  0  0  0  0  0
   -5.6760   -6.2310   -3.5310 N   0  0  0  0  0  0  0  0  0  0  0  0
   -5.9460   -7.6050   -3.2220 C   0  0  0  0  0  0  0  0  0  0  0  0
   -5.4140   -7.9560   -1.9620 C   0  0  0  0  0  0  0  0  0  0  0  0
   -6.0980   -8.8140   -1.0850 C   0  0  0  0  0  0  0  0  0  0  0  0
   -5.5880   -9.2120    0.2420 C   0  0  0  0  0  0  0  0  0  0  0  0
   -4.2840   -8.6070    0.5380 C   0  0  0  0  0  0  0  0  0  0  0  0
   -3.5990   -8.8140    1.6920 O   0  0  0  0  0  0  0  0  0  0  0  0
   -2.4610   -7.9550    1.5430 C   0  0  0  0  0  0  0  0  0  0  0  0
   -2.4390   -7.3650    0.2150 O   0  0  0  0  0  0  0  0  0  0  0  0
   -3.6260   -7.7760   -0.3170 C   0  0  0  0  0  0  0  0  0  0  0  0
   -4.1640   -7.4410   -1.5560 C   0  0  0  0  0  0  0  0  0  0  0  0
   -7.8090   -6.1300   -6.2190 C   0  0  0  0  0  0  0  0  0  0  0  0
   -7.2050   -5.8710   -7.6120 C   0  0  0  0  0  0  0  0  0  0  0  0
   -7.0280   -3.6360   -9.6920 H   0  0  0  0  0  0  0  0  0  0  0  0
   -8.6500   -2.7840   -8.3560 H   0  0  0  0  0  0  0  0  0  0  0  0
   -9.7240   -3.1670   -5.9620 H   0  0  0  0  0  0  0  0  0  0  0  0
   -9.2340   -6.4430   -3.9540 H   0  0  0  0  0  0  0  0  0  0  0  0
  -10.4200   -5.2730   -4.2060 H   0  0  0  0  0  0  0  0  0  0  0  0
   -8.3980   -3.6190   -3.3750 H   0  0  0  0  0  0  0  0  0  0  0  0
   -9.3880   -4.4420   -2.2500 H   0  0  0  0  0  0  0  0  0  0  0  0
   -7.8800   -6.3440   -2.2010 H   0  0  0  0  0  0  0  0  0  0  0  0
   -4.7600   -6.0970   -3.9770 H   0  0  0  0  0  0  0  0  0  0  0  0
   -5.5860   -8.1870   -4.0680 H   0  0  0  0  0  0  0  0  0  0  0  0
   -7.0320   -7.7030   -3.2910 H   0  0  0  0  0  0  0  0  0  0  0  0
   -7.0700   -9.2130   -1.4060 H   0  0  0  0  0  0  0  0  0  0  0  0
   -6.1210   -9.8780    0.9170 H   0  0  0  0  0  0  0  0  0  0  0  0
   -1.5270   -8.5200    1.6690 H   0  0  0  0  0  0  0  0  0  0  0  0
   -2.4890   -7.1320    2.2630 H   0  0  0  0  0  0  0  0  0  0  0  0
   -3.5460   -6.7700   -2.1610 H   0  0  0  0  0  0  0  0  0  0  0  0
   -7.5440   -7.0500   -5.6980 H   0  0  0  0  0  0  0  0  0  0  0  0
   -6.5340   -6.6190   -8.0280 H   0  0  0  0  0  0  0  0  0  0  0  0
  1  2  1  0
  2  3  2  0
  3  4  1  0
  4  5  2  0
  5  6  1  0
  6  7  1  0
  7  8  1  0
  8  9  1  0
  9 10  2  0
  9 11  1  0
 11 12  1  0
 12 13  1  0
 13 14  2  0
 14 15  1  0
 15 16  2  0
 16 17  1  0
 17 18  1  0
 18 19  1  0
 19 20  1  0
 20 21  2  0
  5 22  1  0
 22 23  2  0
 23  2  1  0
 21 13  1  0
 20 16  1  0
  1 24  1  0
  3 25  1  0
  4 26  1  0
  6 27  1  0
  6 28  1  0
  7 29  1  0
  7 30  1  0
  8 31  1  0
 11 32  1  0
 12 33  1  0
 12 34  1  0
 14 35  1  0
 15 36  1  0
 18 37  1  0
 18 38  1  0
 21 39  1  0
 22 40  1  0
 23 41  1  0
A    1
 O1 
A    2
 C1 
A    3
 C2 
A    4
 C3 
A    5
 C4 
A    6
 C5 
A    7
 C6 
A    8
 N1 
A    9
 C7 
A   10
 S1 
A   11
 N2 
A   12
 C8 
A   13
 C9 
A   14
 C10
A   15
 C11
A   16
 C12
A   17
 O2 
A   18
 C13
A   19
 O3 
A   20
 C14
A   21
 C15
A   22
 C16
A   23
 C17
A   24
 H1 
A   25
 H2 
A   26
 H3 
A   27
 H4 
A   28
 H5 
A   29
 H6 
A   30
 H7 
A   31
 H8 
A   32
 H9 
A   33
 H10
A   34
 H11
A   35
 H12
A   36
 H13
A   37
 H14
A   38
 H15
A   39
 H16
A   40
 H17
A   41
 H18
M  END
>  <ref_pdb>  (128) 
x0147_0A

>  <ref_mols>  (128) 
x1919_0AS2,x1498_0A

>  <original SMILES>  (128) 
[H]Oc1c([H])c([H])c(C([H])([H])C([H])([H])N([H])C(=S)N([H])C([H])([H])c2c([H])c([H])c3c(c2[H])OC([H])([H])O3)c([H])c1[H]

>  <index>  (128) 
3659

>  <∆∆G>  (128) 
-8.150409

>  <comRMSD>  (128) 
0.97531

>  <N_constrained_atoms>  (128) 
23.0

>  <N_unconstrained_atoms>  (128) 
0.0

>  <LE>  (128) 
0.354366

>  <percent_hybrid>  (128) 
31.0

>  <max_hit_Tanimoto>  (128) 
0.538043

>  <largest_ring>  (128) 
6

>  <N_interactions_kept>  (128) 
1.5

>  <N_interactions_lost>  (128) 
2.5

>  <interaction_uniqueness_metric>  (128) 
0.076325

>  <N_HA>  (128) 
23

>  <N_rotatable_bonds>  (128) 
6

>  <N_interactions>  (128) 
4

>  <N_PAINS>  (128) 
0

>  <UFF_Gibbs>  (128) 
130.666783

>  <strain_per_HA>  (128) 
5.68114

>  <ad_hoc_penalty>  (128) 
-25.635452

>  <cluster>  (128) 
56

>  <ranked>  (128) 
150.0

>  <merger_rank>  (128) 
2

>  <hydroph_interaction:LEU:127>  (128) 
1

>  <hbond:GLY:128>  (128) 
0

>  <hydroph_interaction:ALA:144>  (128) 
0

>  <hbond:GLY:164>  (128) 
0

>  <hbond:HIS:40>  (128) 
1

>  <pistack:HIS:40>  (128) 
1

>  <hydroph_interaction:LEU:125>  (128) 
0

>  <hydroph_interaction:PHE:170>  (128) 
0

>  <hydroph_interaction:HIS:40>  (128) 
0

>  <pication:HIS:40>  (128) 
0

>  <hbond:THR:142>  (128) 
0

>  <hbond:HIS:161>  (128) 
0

>  <hbond:GLY:166>  (128) 
0

>  <hbond:VAL:162>  (128) 
1

>  <hydroph_interaction:ASN:165>  (128) 
0

>  <hbond:ASN:126>  (128) 
0

>  <hbond:ARG:143>  (128) 
0

>  <hbond:GLU:71>  (128) 
0

>  <saltbridge:HIS:161>  (128) 
0

>  <hbond:ALA:144>  (128) 
0

>  <hbond:GLY:145>  (128) 
0

>  <hbond:GLN:146>  (128) 
0

>  <hbond:CYS:147>  (128) 
0

>  <halogenbond:ASN:126>  (128) 
0

>  <saltbridge:HIS:40>  (128) 
0

>  <hbond:LEU:127>  (128) 
0

>  <hbond:THR:130>  (128) 
0

>  <hydroph_interaction:GLU:71>  (128) 
0

>  <hydroph_interaction:THR:130>  (128) 
0

>  <saltbridge:ARG:143>  (128) 
0

>  <saltbridge:GLU:71>  (128) 
0

>  <hbond:GLY:129>  (128) 
0

>  <halogenbond:CYS:147>  (128) 
0

>  <hydroph_interaction:THR:39>  (128) 
0

>  <hbond:ASN:69>  (128) 
0

>  <hydroph_interaction:THR:132>  (128) 
0

>  <hbond:TYR:122>  (128) 
0

>  <hydroph_interaction:PHE:109>  (128) 
0

>  <hydroph_interaction:PHE:140>  (128) 
0

>  <hbond:PRO:141>  (128) 
0

$$$$
Z2199144815-x1071-0AS1
     RDKit          3D

 34 35  0  0  0  0  0  0  0  0999 V2000
   -9.3820   -2.5280   -7.9910 C   0  0  0  0  0  0  0  0  0  0  0  0
   -8.4820   -3.7470   -7.8340 C   0  0  0  0  0  0  0  0  0  0  0  0
   -7.5380   -4.1250   -8.7090 N   0  0  0  0  0  0  0  0  0  0  0  0
   -7.0370   -5.2210   -8.1080 N   0  0  0  0  0  0  0  0  0  0  0  0
   -7.6830   -5.4520   -6.9170 C   0  0  0  0  0  0  0  0  0  0  0  0
   -7.4120   -6.5670   -5.9110 C   0  0  0  0  0  0  0  0  0  0  0  0
   -7.1970   -5.7130   -4.3110 S   0  0  0  0  0  0  0  0  0  0  0  0
   -7.7790   -6.8580   -2.9930 C   0  0  0  0  0  0  0  0  0  0  0  0
   -7.2380   -6.3780   -1.6330 C   0  0  0  0  0  0  0  0  0  0  0  0
   -6.8800   -7.5030   -0.6770 C   0  0  0  0  0  0  0  0  0  0  0  0
   -5.3590   -7.4910   -0.5940 C   0  0  0  0  0  0  0  0  0  0  0  0
   -4.7500   -7.5680   -1.8250 C   0  0  0  0  0  0  0  0  0  0  0  0
   -5.0700   -6.3550   -2.6730 C   0  0  0  0  0  0  0  0  0  0  0  0
   -6.0620   -5.4750   -1.9340 C   0  0  0  0  0  0  0  0  0  0  0  0
   -8.5890   -4.5360   -6.7400 N   0  0  0  0  0  0  0  0  0  0  0  0
   -9.6220   -2.1120   -7.0110 H   0  0  0  0  0  0  0  0  0  0  0  0
   -8.8630   -1.7570   -8.5650 H   0  0  0  0  0  0  0  0  0  0  0  0
  -10.3190   -2.7860   -8.4910 H   0  0  0  0  0  0  0  0  0  0  0  0
   -6.2830   -5.7410   -8.5440 H   0  0  0  0  0  0  0  0  0  0  0  0
   -8.2370   -7.2860   -5.8730 H   0  0  0  0  0  0  0  0  0  0  0  0
   -6.4950   -7.1050   -6.1560 H   0  0  0  0  0  0  0  0  0  0  0  0
   -7.4710   -7.8770   -3.2500 H   0  0  0  0  0  0  0  0  0  0  0  0
   -8.8750   -6.8260   -2.9720 H   0  0  0  0  0  0  0  0  0  0  0  0
   -8.0270   -5.7730   -1.1610 H   0  0  0  0  0  0  0  0  0  0  0  0
   -7.2490   -8.4650   -1.0520 H   0  0  0  0  0  0  0  0  0  0  0  0
   -7.3260   -7.3630    0.3160 H   0  0  0  0  0  0  0  0  0  0  0  0
   -4.9760   -8.3130    0.0170 H   0  0  0  0  0  0  0  0  0  0  0  0
   -5.0290   -6.5740   -0.0910 H   0  0  0  0  0  0  0  0  0  0  0  0
   -5.0500   -8.4720   -2.3560 H   0  0  0  0  0  0  0  0  0  0  0  0
   -3.6610   -7.6360   -1.6990 H   0  0  0  0  0  0  0  0  0  0  0  0
   -4.1710   -5.7880   -2.8880 H   0  0  0  0  0  0  0  0  0  0  0  0
   -5.4550   -6.6720   -3.6430 H   0  0  0  0  0  0  0  0  0  0  0  0
   -5.6150   -5.0680   -1.0230 H   0  0  0  0  0  0  0  0  0  0  0  0
   -6.3660   -4.6240   -2.5530 H   0  0  0  0  0  0  0  0  0  0  0  0
  1  2  1  0
  2  3  2  0
  3  4  1  0
  4  5  1  0
  5  6  1  0
  6  7  1  0
  7  8  1  0
  8  9  1  0
  9 10  1  0
 10 11  1  0
 11 12  1  0
 12 13  1  0
 13 14  1  0
  5 15  2  0
 15  2  1  0
 14  9  1  0
  1 16  1  0
  1 17  1  0
  1 18  1  0
  4 19  1  0
  6 20  1  0
  6 21  1  0
  8 22  1  0
  8 23  1  0
  9 24  1  0
 10 25  1  0
 10 26  1  0
 11 27  1  0
 11 28  1  0
 12 29  1  0
 12 30  1  0
 13 31  1  0
 13 32  1  0
 14 33  1  0
 14 34  1  0
A    1
 C1 
A    2
 C2 
A    3
 N1 
A    4
 N2 
A    5
 C3 
A    6
 C4 
A    7
 S1 
A    8
 C5 
A    9
 C6 
A   10
 C7 
A   11
 C8 
A   12
 C9 
A   13
 C10
A   14
 C11
A   15
 N3 
A   16
 H1 
A   17
 H2 
A   18
 H3 
A   19
 H4 
A   20
 H5 
A   21
 H6 
A   22
 H7 
A   23
 H8 
A   24
 H9 
A   25
 H10
A   26
 H11
A   27
 H12
A   28
 H13
A   29
 H14
A   30
 H15
A   31
 H16
A   32
 H17
A   33
 H18
A   34
 H19
M  END
>  <ref_pdb>  (129) 
x0147_0A

>  <ref_mols>  (129) 
x1071_0AS1,x1537_0A

>  <original SMILES>  (129) 
[H]n1nc(C([H])([H])[H])nc1C([H])([H])SC([H])([H])C1([H])C([H])([H])C([H])([H])C([H])([H])C([H])([H])C1([H])[H]

>  <index>  (129) 
15737

>  <∆∆G>  (129) 
-5.418406

>  <comRMSD>  (129) 
0.697132

>  <N_constrained_atoms>  (129) 
12.0

>  <N_unconstrained_atoms>  (129) 
3.0

>  <LE>  (129) 
0.361227

>  <percent_hybrid>  (129) 
50.0

>  <max_hit_Tanimoto>  (129) 
0.084871

>  <largest_ring>  (129) 
6

>  <N_interactions_kept>  (129) 
1.0

>  <N_interactions_lost>  (129) 
0.0

>  <interaction_uniqueness_metric>  (129) 
0.100282

>  <N_HA>  (129) 
15

>  <N_rotatable_bonds>  (129) 
5

>  <N_interactions>  (129) 
3

>  <N_PAINS>  (129) 
0

>  <UFF_Gibbs>  (129) 
132.34229

>  <strain_per_HA>  (129) 
8.82276

>  <ad_hoc_penalty>  (129) 
-25.609791

>  <cluster>  (129) 
3392

>  <ranked>  (129) 
151.0

>  <merger_rank>  (129) 
2

>  <hydroph_interaction:LEU:127>  (129) 
2

>  <hbond:GLY:128>  (129) 
0

>  <hydroph_interaction:ALA:144>  (129) 
0

>  <hbond:GLY:164>  (129) 
0

>  <hbond:HIS:40>  (129) 
0

>  <pistack:HIS:40>  (129) 
0

>  <hydroph_interaction:LEU:125>  (129) 
0

>  <hydroph_interaction:PHE:170>  (129) 
0

>  <hydroph_interaction:HIS:40>  (129) 
0

>  <pication:HIS:40>  (129) 
0

>  <hbond:THR:142>  (129) 
0

>  <hbond:HIS:161>  (129) 
1

>  <hbond:GLY:166>  (129) 
0

>  <hbond:VAL:162>  (129) 
0

>  <hydroph_interaction:ASN:165>  (129) 
0

>  <hbond:ASN:126>  (129) 
0

>  <hbond:ARG:143>  (129) 
0

>  <hbond:GLU:71>  (129) 
0

>  <saltbridge:HIS:161>  (129) 
0

>  <hbond:ALA:144>  (129) 
0

>  <hbond:GLY:145>  (129) 
0

>  <hbond:GLN:146>  (129) 
0

>  <hbond:CYS:147>  (129) 
0

>  <halogenbond:ASN:126>  (129) 
0

>  <saltbridge:HIS:40>  (129) 
0

>  <hbond:LEU:127>  (129) 
0

>  <hbond:THR:130>  (129) 
0

>  <hydroph_interaction:GLU:71>  (129) 
0

>  <hydroph_interaction:THR:130>  (129) 
0

>  <saltbridge:ARG:143>  (129) 
0

>  <saltbridge:GLU:71>  (129) 
0

>  <hbond:GLY:129>  (129) 
0

>  <halogenbond:CYS:147>  (129) 
0

>  <hydroph_interaction:THR:39>  (129) 
0

>  <hbond:ASN:69>  (129) 
0

>  <hydroph_interaction:THR:132>  (129) 
0

>  <hbond:TYR:122>  (129) 
0

>  <hydroph_interaction:PHE:109>  (129) 
0

>  <hydroph_interaction:PHE:140>  (129) 
0

>  <hbond:PRO:141>  (129) 
0

$$$$
Z1436736628-x1919-0A
     RDKit          3D

 49 52  0  0  0  0  0  0  0  0999 V2000
   -6.3710   -4.4170   -4.1360 O   0  0  0  0  0  0  0  0  0  0  0  0
   -6.7470   -4.8500   -3.0600 C   0  0  0  0  0  0  0  0  0  0  0  0
   -7.0560   -3.9450   -1.9540 C   0  0  0  0  0  0  0  0  0  0  0  0
   -7.6500   -2.7290   -1.2330 C   0  0  0  0  0  0  0  0  0  0  0  0
   -6.7850   -1.4800   -1.4490 C   0  0  0  0  0  0  0  0  0  0  0  0
   -6.4300   -0.9420   -0.3880 O   0  0  0  0  0  0  0  0  0  0  0  0
   -6.2350    0.4380   -0.4890 C   0  0  0  0  0  0  0  0  0  0  0  0
   -5.9420    1.0470   -1.7330 C   0  0  0  0  0  0  0  0  0  0  0  0
   -5.7370    2.5160   -1.8230 C   0  0  0  0  0  0  0  0  0  0  0  0
   -5.8210    3.3220   -0.6860 C   0  0  0  0  0  0  0  0  0  0  0  0
   -5.6630    4.6790   -0.4900 C   0  0  0  0  0  0  0  0  0  0  0  0
   -5.7870    4.9020    0.8860 C   0  0  0  0  0  0  0  0  0  0  0  0
   -6.1470    3.6930    1.5330 C   0  0  0  0  0  0  0  0  0  0  0  0
   -6.1010    2.7730    0.5130 C   0  0  0  0  0  0  0  0  0  0  0  0
   -6.3340    1.2540    0.6900 C   0  0  0  0  0  0  0  0  0  0  0  0
   -6.9440   -6.1950   -2.7990 N   0  0  0  0  0  0  0  0  0  0  0  0
   -5.9310   -7.2090   -3.1610 C   0  0  0  0  0  0  0  0  0  0  0  0
   -5.3950   -7.6960   -1.9380 C   0  0  0  0  0  0  0  0  0  0  0  0
   -6.1140   -8.5760   -1.1210 C   0  0  0  0  0  0  0  0  0  0  0  0
   -5.5530   -9.0090    0.0550 C   0  0  0  0  0  0  0  0  0  0  0  0
   -4.2990   -8.6050    0.4660 C   0  0  0  0  0  0  0  0  0  0  0  0
   -3.6290   -8.9520    1.6010 O   0  0  0  0  0  0  0  0  0  0  0  0
   -2.5360   -8.0040    1.5170 C   0  0  0  0  0  0  0  0  0  0  0  0
   -2.3900   -7.4450    0.1970 O   0  0  0  0  0  0  0  0  0  0  0  0
   -3.5920   -7.7480   -0.3310 C   0  0  0  0  0  0  0  0  0  0  0  0
   -4.1170   -7.2790   -1.5410 C   0  0  0  0  0  0  0  0  0  0  0  0
   -7.4770   -4.7070   -1.2880 H   0  0  0  0  0  0  0  0  0  0  0  0
   -6.0160   -3.8380   -1.6180 H   0  0  0  0  0  0  0  0  0  0  0  0
   -8.6420   -2.5290   -1.6450 H   0  0  0  0  0  0  0  0  0  0  0  0
   -7.8140   -2.9480   -0.1960 H   0  0  0  0  0  0  0  0  0  0  0  0
   -5.9220   -1.7640   -2.0530 H   0  0  0  0  0  0  0  0  0  0  0  0
   -7.3460   -0.7600   -2.0600 H   0  0  0  0  0  0  0  0  0  0  0  0
   -5.8690    0.4330   -2.6250 H   0  0  0  0  0  0  0  0  0  0  0  0
   -5.5120    3.0760   -2.7320 H   0  0  0  0  0  0  0  0  0  0  0  0
   -6.4250    5.2370   -1.0420 H   0  0  0  0  0  0  0  0  0  0  0  0
   -4.6660    5.0000   -0.8200 H   0  0  0  0  0  0  0  0  0  0  0  0
   -4.7880    5.1680    1.2550 H   0  0  0  0  0  0  0  0  0  0  0  0
   -6.3970    5.7590    1.1550 H   0  0  0  0  0  0  0  0  0  0  0  0
   -5.4950    3.4430    2.3710 H   0  0  0  0  0  0  0  0  0  0  0  0
   -7.1200    3.7190    2.0160 H   0  0  0  0  0  0  0  0  0  0  0  0
   -6.5590    0.8130    1.6640 H   0  0  0  0  0  0  0  0  0  0  0  0
   -7.8670   -6.5210   -2.5310 H   0  0  0  0  0  0  0  0  0  0  0  0
   -6.4340   -7.9360   -3.7910 H   0  0  0  0  0  0  0  0  0  0  0  0
   -5.2360   -6.6930   -3.8190 H   0  0  0  0  0  0  0  0  0  0  0  0
   -7.1180   -8.9620   -1.3430 H   0  0  0  0  0  0  0  0  0  0  0  0
   -6.1170   -9.6980    0.6930 H   0  0  0  0  0  0  0  0  0  0  0  0
   -1.5990   -8.4980    1.7980 H   0  0  0  0  0  0  0  0  0  0  0  0
   -2.7020   -7.1870    2.2320 H   0  0  0  0  0  0  0  0  0  0  0  0
   -3.5510   -6.6090   -2.1590 H   0  0  0  0  0  0  0  0  0  0  0  0
  1  2  2  0
  2  3  1  0
  3  4  1  0
  4  5  1  0
  5  6  1  0
  6  7  1  0
  7  8  2  0
  8  9  1  0
  9 10  2  0
 10 11  1  0
 11 12  1  0
 12 13  1  0
 13 14  1  0
 14 15  2  0
  2 16  1  0
 16 17  1  0
 17 18  1  0
 18 19  2  0
 19 20  1  0
 20 21  2  0
 21 22  1  0
 22 23  1  0
 23 24  1  0
 24 25  1  0
 25 26  2  0
 15  7  1  0
 14 10  1  0
 26 18  1  0
 25 21  1  0
  3 27  1  0
  3 28  1  0
  4 29  1  0
  4 30  1  0
  5 31  1  0
  5 32  1  0
  8 33  1  0
  9 34  1  0
 11 35  1  0
 11 36  1  0
 12 37  1  0
 12 38  1  0
 13 39  1  0
 13 40  1  0
 15 41  1  0
 16 42  1  0
 17 43  1  0
 17 44  1  0
 19 45  1  0
 20 46  1  0
 23 47  1  0
 23 48  1  0
 26 49  1  0
A    1
 O1 
A    2
 C1 
A    3
 C2 
A    4
 C3 
A    5
 C4 
A    6
 O2 
A    7
 C5 
A    8
 C6 
A    9
 C7 
A   10
 C8 
A   11
 C9 
A   12
 C10
A   13
 C11
A   14
 C12
A   15
 C13
A   16
 N1 
A   17
 C14
A   18
 C15
A   19
 C16
A   20
 C17
A   21
 C18
A   22
 O3 
A   23
 C19
A   24
 O4 
A   25
 C20
A   26
 C21
A   27
 H1 
A   28
 H2 
A   29
 H3 
A   30
 H4 
A   31
 H5 
A   32
 H6 
A   33
 H7 
A   34
 H8 
A   35
 H9 
A   36
 H10
A   37
 H11
A   38
 H12
A   39
 H13
A   40
 H14
A   41
 H15
A   42
 H16
A   43
 H17
A   44
 H18
A   45
 H19
A   46
 H20
A   47
 H21
A   48
 H22
A   49
 H23
M  END
>  <ref_pdb>  (130) 
x0147_0A

>  <ref_mols>  (130) 
x1919_0A,x1285_0BS1

>  <original SMILES>  (130) 
[H]c1c([H])c2c(c([H])c1OC([H])([H])C([H])([H])C([H])([H])C(=O)N([H])C([H])([H])c1c([H])c([H])c3c(c1[H])OC([H])([H])O3)C([H])([H])C([H])([H])C2([H])[H]

>  <index>  (130) 
12242

>  <∆∆G>  (130) 
-8.521344

>  <comRMSD>  (130) 
0.992826

>  <N_constrained_atoms>  (130) 
25.0

>  <N_unconstrained_atoms>  (130) 
1.0

>  <LE>  (130) 
0.327744

>  <percent_hybrid>  (130) 
24.0

>  <max_hit_Tanimoto>  (130) 
0.443343

>  <largest_ring>  (130) 
6

>  <N_interactions_kept>  (130) 
1.0

>  <N_interactions_lost>  (130) 
4.5

>  <interaction_uniqueness_metric>  (130) 
0.173779

>  <N_HA>  (130) 
26

>  <N_rotatable_bonds>  (130) 
7

>  <N_interactions>  (130) 
8

>  <N_PAINS>  (130) 
0

>  <UFF_Gibbs>  (130) 
186.545274

>  <strain_per_HA>  (130) 
7.174791

>  <ad_hoc_penalty>  (130) 
-25.600862

>  <cluster>  (130) 
4324

>  <ranked>  (130) 
152.0

>  <merger_rank>  (130) 
3

>  <hydroph_interaction:LEU:127>  (130) 
1

>  <hbond:GLY:128>  (130) 
1

>  <hydroph_interaction:ALA:144>  (130) 
0

>  <hbond:GLY:164>  (130) 
1

>  <hbond:HIS:40>  (130) 
1

>  <pistack:HIS:40>  (130) 
1

>  <hydroph_interaction:LEU:125>  (130) 
1

>  <hydroph_interaction:PHE:170>  (130) 
1

>  <hydroph_interaction:HIS:40>  (130) 
0

>  <pication:HIS:40>  (130) 
0

>  <hbond:THR:142>  (130) 
0

>  <hbond:HIS:161>  (130) 
0

>  <hbond:GLY:166>  (130) 
0

>  <hbond:VAL:162>  (130) 
0

>  <hydroph_interaction:ASN:165>  (130) 
1

>  <hbond:ASN:126>  (130) 
0

>  <hbond:ARG:143>  (130) 
0

>  <hbond:GLU:71>  (130) 
0

>  <saltbridge:HIS:161>  (130) 
0

>  <hbond:ALA:144>  (130) 
0

>  <hbond:GLY:145>  (130) 
0

>  <hbond:GLN:146>  (130) 
0

>  <hbond:CYS:147>  (130) 
0

>  <halogenbond:ASN:126>  (130) 
0

>  <saltbridge:HIS:40>  (130) 
0

>  <hbond:LEU:127>  (130) 
0

>  <hbond:THR:130>  (130) 
0

>  <hydroph_interaction:GLU:71>  (130) 
0

>  <hydroph_interaction:THR:130>  (130) 
0

>  <saltbridge:ARG:143>  (130) 
0

>  <saltbridge:GLU:71>  (130) 
0

>  <hbond:GLY:129>  (130) 
0

>  <halogenbond:CYS:147>  (130) 
0

>  <hydroph_interaction:THR:39>  (130) 
0

>  <hbond:ASN:69>  (130) 
0

>  <hydroph_interaction:THR:132>  (130) 
0

>  <hbond:TYR:122>  (130) 
0

>  <hydroph_interaction:PHE:109>  (130) 
0

>  <hydroph_interaction:PHE:140>  (130) 
0

>  <hbond:PRO:141>  (130) 
0

$$$$
Z3874242529-x1919-0AS4
     RDKit          3D

 30 30  0  0  0  0  0  0  0  0999 V2000
   -4.7650    5.0940   -1.8320 N   0  0  0  0  0  0  0  0  0  0  0  0
   -5.4020    4.7480   -0.5510 C   0  0  0  0  0  0  0  0  0  0  0  0
   -5.7320    5.7270    0.4380 O   0  0  0  0  0  0  0  0  0  0  0  0
   -5.6880    3.2420   -0.4120 C   0  0  0  0  0  0  0  0  0  0  0  0
   -5.9550    2.5130   -1.5870 C   0  0  0  0  0  0  0  0  0  0  0  0
   -5.8830    1.0960   -1.6560 C   0  0  0  0  0  0  0  0  0  0  0  0
   -6.2450    0.2640   -0.4300 C   0  0  0  0  0  0  0  0  0  0  0  0
   -7.0180   -1.0030   -0.8310 C   0  0  0  0  0  0  0  0  0  0  0  0
   -8.3430   -0.6600   -1.2370 O   0  0  0  0  0  0  0  0  0  0  0  0
   -6.5200   -2.1230   -0.7780 O   0  0  0  0  0  0  0  0  0  0  0  0
   -7.4200   -3.1110   -1.3210 C   0  0  0  0  0  0  0  0  0  0  0  0
   -6.8680   -4.4450   -1.8730 C   0  0  0  0  0  0  0  0  0  0  0  0
   -7.1840   -4.8130   -3.1680 N   0  0  0  0  0  0  0  0  0  0  0  0
   -6.4680   -6.2890   -3.5400 S   0  0  0  0  0  0  0  0  0  0  0  0
   -5.6890   -6.5630   -2.0350 C   0  0  0  0  0  0  0  0  0  0  0  0
   -5.9780   -5.4280   -1.1000 C   0  0  0  0  0  0  0  0  0  0  0  0
   -3.8210    5.4750   -1.6810 H   0  0  0  0  0  0  0  0  0  0  0  0
   -5.2920    5.8820   -2.2200 H   0  0  0  0  0  0  0  0  0  0  0  0
   -4.9930    2.6640    0.2030 H   0  0  0  0  0  0  0  0  0  0  0  0
   -6.6300    3.2140    0.1590 H   0  0  0  0  0  0  0  0  0  0  0  0
   -6.9260    2.8710   -1.9480 H   0  0  0  0  0  0  0  0  0  0  0  0
   -5.1990    2.8690   -2.2930 H   0  0  0  0  0  0  0  0  0  0  0  0
   -6.5110    0.7680   -2.4910 H   0  0  0  0  0  0  0  0  0  0  0  0
   -4.8720    0.8080   -1.9630 H   0  0  0  0  0  0  0  0  0  0  0  0
   -6.8750    0.8510    0.2410 H   0  0  0  0  0  0  0  0  0  0  0  0
   -5.3450   -0.0230    0.1140 H   0  0  0  0  0  0  0  0  0  0  0  0
   -8.2280   -3.1840   -0.6000 H   0  0  0  0  0  0  0  0  0  0  0  0
   -7.8590   -2.6320   -2.2060 H   0  0  0  0  0  0  0  0  0  0  0  0
   -5.0580   -7.3890   -1.6830 H   0  0  0  0  0  0  0  0  0  0  0  0
   -5.5550   -5.4490   -0.0960 H   0  0  0  0  0  0  0  0  0  0  0  0
  1  2  1  0
  2  3  2  0
  2  4  1  0
  4  5  1  0
  5  6  1  0
  6  7  1  0
  7  8  1  0
  8  9  2  0
  8 10  1  0
 10 11  1  0
 11 12  1  0
 12 13  2  0
 13 14  1  0
 14 15  1  0
 15 16  2  0
 16 12  1  0
  1 17  1  0
  1 18  1  0
  4 19  1  0
  4 20  1  0
  5 21  1  0
  5 22  1  0
  6 23  1  0
  6 24  1  0
  7 25  1  0
  7 26  1  0
 11 27  1  0
 11 28  1  0
 15 29  1  0
 16 30  1  0
A    1
 N1 
A    2
 C1 
A    3
 O1 
A    4
 C2 
A    5
 C3 
A    6
 C4 
A    7
 C5 
A    8
 C6 
A    9
 O2 
A   10
 O3 
A   11
 C7 
A   12
 C8 
A   13
 N2 
A   14
 S1 
A   15
 C9 
A   16
 C10
A   17
 H1 
A   18
 H2 
A   19
 H3 
A   20
 H4 
A   21
 H5 
A   22
 H6 
A   23
 H7 
A   24
 H8 
A   25
 H9 
A   26
 H10
A   27
 H11
A   28
 H12
A   29
 H13
A   30
 H14
M  END
>  <ref_pdb>  (131) 
x0147_0A

>  <ref_mols>  (131) 
x1919_0AS4,x1285_0BS1

>  <original SMILES>  (131) 
[H]c1snc(C([H])([H])OC(=O)C([H])([H])C([H])([H])C([H])([H])C([H])([H])C(=O)N([H])[H])c1[H]

>  <index>  (131) 
15794

>  <∆∆G>  (131) 
-5.576026

>  <comRMSD>  (131) 
0.740185

>  <N_constrained_atoms>  (131) 
13.0

>  <N_unconstrained_atoms>  (131) 
5.0

>  <LE>  (131) 
0.309779

>  <percent_hybrid>  (131) 
39.0

>  <max_hit_Tanimoto>  (131) 
0.077562

>  <largest_ring>  (131) 
5

>  <N_interactions_kept>  (131) 
2.0

>  <N_interactions_lost>  (131) 
1.5

>  <interaction_uniqueness_metric>  (131) 
0.687441

>  <N_HA>  (131) 
16

>  <N_rotatable_bonds>  (131) 
7

>  <N_interactions>  (131) 
5

>  <N_PAINS>  (131) 
0

>  <UFF_Gibbs>  (131) 
166.187901

>  <strain_per_HA>  (131) 
10.386679

>  <ad_hoc_penalty>  (131) 
-25.569843

>  <cluster>  (131) 
3346

>  <ranked>  (131) 
153.0

>  <merger_rank>  (131) 
3

>  <hydroph_interaction:LEU:127>  (131) 
1

>  <hbond:GLY:128>  (131) 
0

>  <hydroph_interaction:ALA:144>  (131) 
0

>  <hbond:GLY:164>  (131) 
0

>  <hbond:HIS:40>  (131) 
0

>  <pistack:HIS:40>  (131) 
0

>  <hydroph_interaction:LEU:125>  (131) 
1

>  <hydroph_interaction:PHE:170>  (131) 
1

>  <hydroph_interaction:HIS:40>  (131) 
0

>  <pication:HIS:40>  (131) 
0

>  <hbond:THR:142>  (131) 
0

>  <hbond:HIS:161>  (131) 
0

>  <hbond:GLY:166>  (131) 
0

>  <hbond:VAL:162>  (131) 
0

>  <hydroph_interaction:ASN:165>  (131) 
1

>  <hbond:ASN:126>  (131) 
0

>  <hbond:ARG:143>  (131) 
0

>  <hbond:GLU:71>  (131) 
0

>  <saltbridge:HIS:161>  (131) 
0

>  <hbond:ALA:144>  (131) 
0

>  <hbond:GLY:145>  (131) 
0

>  <hbond:GLN:146>  (131) 
0

>  <hbond:CYS:147>  (131) 
0

>  <halogenbond:ASN:126>  (131) 
0

>  <saltbridge:HIS:40>  (131) 
0

>  <hbond:LEU:127>  (131) 
0

>  <hbond:THR:130>  (131) 
0

>  <hydroph_interaction:GLU:71>  (131) 
0

>  <hydroph_interaction:THR:130>  (131) 
0

>  <saltbridge:ARG:143>  (131) 
0

>  <saltbridge:GLU:71>  (131) 
0

>  <hbond:GLY:129>  (131) 
0

>  <halogenbond:CYS:147>  (131) 
0

>  <hydroph_interaction:THR:39>  (131) 
0

>  <hbond:ASN:69>  (131) 
0

>  <hydroph_interaction:THR:132>  (131) 
0

>  <hbond:TYR:122>  (131) 
1

>  <hydroph_interaction:PHE:109>  (131) 
0

>  <hydroph_interaction:PHE:140>  (131) 
0

>  <hbond:PRO:141>  (131) 
0

$$$$
Z788129284-x1071-0AS4
     RDKit          3D

 44 45  0  0  0  0  0  0  0  0999 V2000
   -6.0540   -6.0310   -9.1640 C   0  0  0  0  0  0  0  0  0  0  0  0
   -7.1610   -5.3700   -8.4560 C   0  0  0  0  0  0  0  0  0  0  0  0
   -7.6190   -4.1860   -8.8100 C   0  0  0  0  0  0  0  0  0  0  0  0
   -8.7190   -3.5340   -8.1570 C   0  0  0  0  0  0  0  0  0  0  0  0
   -9.3460   -4.1630   -7.1060 C   0  0  0  0  0  0  0  0  0  0  0  0
  -10.4330   -3.6100   -6.4450 C   0  0  0  0  0  0  0  0  0  0  0  0
  -11.4710   -3.3710   -7.0600 O   0  0  0  0  0  0  0  0  0  0  0  0
  -10.2560   -3.3880   -5.0800 N   0  0  0  0  0  0  0  0  0  0  0  0
   -9.2200   -3.9250   -4.3670 C   0  0  0  0  0  0  0  0  0  0  0  0
   -9.0550   -3.2360   -2.9880 C   0  0  0  0  0  0  0  0  0  0  0  0
   -7.8000   -3.6180   -2.3410 N   0  0  0  0  0  0  0  0  0  0  0  0
   -6.7640   -4.4830   -2.9100 C   0  0  0  0  0  0  0  0  0  0  0  0
   -6.2880   -4.2220   -3.9910 O   0  0  0  0  0  0  0  0  0  0  0  0
   -6.3910   -5.5630   -2.1730 N   0  0  0  0  0  0  0  0  0  0  0  0
   -7.1000   -5.9470   -0.9450 C   0  0  0  0  0  0  0  0  0  0  0  0
   -6.5440   -7.0880   -0.3420 C   0  0  0  0  0  0  0  0  0  0  0  0
   -5.0840   -7.3100   -0.7340 C   0  0  0  0  0  0  0  0  0  0  0  0
   -4.9040   -7.3050   -2.1170 C   0  0  0  0  0  0  0  0  0  0  0  0
   -5.8370   -6.6150   -2.8890 C   0  0  0  0  0  0  0  0  0  0  0  0
   -8.8430   -5.4140   -6.7230 C   0  0  0  0  0  0  0  0  0  0  0  0
   -7.7550   -6.0200   -7.3860 C   0  0  0  0  0  0  0  0  0  0  0  0
   -6.0440   -5.7040  -10.2030 H   0  0  0  0  0  0  0  0  0  0  0  0
   -6.1770   -7.1160   -9.1600 H   0  0  0  0  0  0  0  0  0  0  0  0
   -5.0950   -5.8130   -8.6890 H   0  0  0  0  0  0  0  0  0  0  0  0
   -7.1560   -3.6850   -9.6300 H   0  0  0  0  0  0  0  0  0  0  0  0
   -9.0750   -2.5480   -8.4850 H   0  0  0  0  0  0  0  0  0  0  0  0
  -10.6530   -2.5420   -4.6990 H   0  0  0  0  0  0  0  0  0  0  0  0
   -8.3170   -3.7270   -4.9580 H   0  0  0  0  0  0  0  0  0  0  0  0
   -9.3570   -5.0030   -4.3780 H   0  0  0  0  0  0  0  0  0  0  0  0
   -9.0540   -2.1480   -2.9530 H   0  0  0  0  0  0  0  0  0  0  0  0
   -9.8620   -3.5670   -2.3230 H   0  0  0  0  0  0  0  0  0  0  0  0
   -7.4970   -2.9510   -1.6370 H   0  0  0  0  0  0  0  0  0  0  0  0
   -8.1360   -6.1890   -1.1930 H   0  0  0  0  0  0  0  0  0  0  0  0
   -7.1220   -5.0350   -0.3610 H   0  0  0  0  0  0  0  0  0  0  0  0
   -7.1360   -7.9700   -0.5770 H   0  0  0  0  0  0  0  0  0  0  0  0
   -6.7060   -7.0460    0.7330 H   0  0  0  0  0  0  0  0  0  0  0  0
   -4.2720   -6.7390   -0.3100 H   0  0  0  0  0  0  0  0  0  0  0  0
   -4.9200   -8.3560   -0.4450 H   0  0  0  0  0  0  0  0  0  0  0  0
   -4.7820   -8.2860   -2.5690 H   0  0  0  0  0  0  0  0  0  0  0  0
   -3.9350   -6.8200   -2.2730 H   0  0  0  0  0  0  0  0  0  0  0  0
   -5.3920   -6.1830   -3.7890 H   0  0  0  0  0  0  0  0  0  0  0  0
   -6.6370   -7.2880   -3.2150 H   0  0  0  0  0  0  0  0  0  0  0  0
   -9.3390   -5.8950   -5.8900 H   0  0  0  0  0  0  0  0  0  0  0  0
   -7.3230   -6.9820   -7.1450 H   0  0  0  0  0  0  0  0  0  0  0  0
  1  2  1  0
  2  3  2  0
  3  4  1  0
  4  5  2  0
  5  6  1  0
  6  7  2  0
  6  8  1  0
  8  9  1  0
  9 10  1  0
 10 11  1  0
 11 12  1  0
 12 13  2  0
 12 14  1  0
 14 15  1  0
 15 16  1  0
 16 17  1  0
 17 18  1  0
 18 19  1  0
  5 20  1  0
 20 21  2  0
 21  2  1  0
 19 14  1  0
  1 22  1  0
  1 23  1  0
  1 24  1  0
  3 25  1  0
  4 26  1  0
  8 27  1  0
  9 28  1  0
  9 29  1  0
 10 30  1  0
 10 31  1  0
 11 32  1  0
 15 33  1  0
 15 34  1  0
 16 35  1  0
 16 36  1  0
 17 37  1  0
 17 38  1  0
 18 39  1  0
 18 40  1  0
 19 41  1  0
 19 42  1  0
 20 43  1  0
 21 44  1  0
A    1
 C1 
A    2
 C2 
A    3
 C3 
A    4
 C4 
A    5
 C5 
A    6
 C6 
A    7
 O1 
A    8
 N1 
A    9
 C7 
A   10
 C8 
A   11
 N2 
A   12
 C9 
A   13
 O2 
A   14
 N3 
A   15
 C10
A   16
 C11
A   17
 C12
A   18
 C13
A   19
 C14
A   20
 C15
A   21
 C16
A   22
 H1 
A   23
 H2 
A   24
 H3 
A   25
 H4 
A   26
 H5 
A   27
 H6 
A   28
 H7 
A   29
 H8 
A   30
 H9 
A   31
 H10
A   32
 H11
A   33
 H12
A   34
 H13
A   35
 H14
A   36
 H15
A   37
 H16
A   38
 H17
A   39
 H18
A   40
 H19
A   41
 H20
A   42
 H21
A   43
 H22
A   44
 H23
M  END
>  <ref_pdb>  (132) 
x0147_0A

>  <ref_mols>  (132) 
x1071_0AS4,x0980_0BS4

>  <original SMILES>  (132) 
[H]c1c([H])c(C([H])([H])[H])c([H])c([H])c1C(=O)N([H])C([H])([H])C([H])([H])N([H])C(=O)N1C([H])([H])C([H])([H])C([H])([H])C([H])([H])C1([H])[H]

>  <index>  (132) 
11170

>  <∆∆G>  (132) 
-8.621751

>  <comRMSD>  (132) 
0.773115

>  <N_constrained_atoms>  (132) 
18.0

>  <N_unconstrained_atoms>  (132) 
3.0

>  <LE>  (132) 
0.41056

>  <percent_hybrid>  (132) 
50.0

>  <max_hit_Tanimoto>  (132) 
0.210667

>  <largest_ring>  (132) 
6

>  <N_interactions_kept>  (132) 
1.5

>  <N_interactions_lost>  (132) 
1.0

>  <interaction_uniqueness_metric>  (132) 
0.010368

>  <N_HA>  (132) 
21

>  <N_rotatable_bonds>  (132) 
5

>  <N_interactions>  (132) 
1

>  <N_PAINS>  (132) 
0

>  <UFF_Gibbs>  (132) 
132.297792

>  <strain_per_HA>  (132) 
6.299865

>  <ad_hoc_penalty>  (132) 
-25.476922

>  <cluster>  (132) 
42

>  <ranked>  (132) 
154.0

>  <merger_rank>  (132) 
1

>  <hydroph_interaction:LEU:127>  (132) 
0

>  <hbond:GLY:128>  (132) 
0

>  <hydroph_interaction:ALA:144>  (132) 
0

>  <hbond:GLY:164>  (132) 
1

>  <hbond:HIS:40>  (132) 
0

>  <pistack:HIS:40>  (132) 
0

>  <hydroph_interaction:LEU:125>  (132) 
0

>  <hydroph_interaction:PHE:170>  (132) 
0

>  <hydroph_interaction:HIS:40>  (132) 
0

>  <pication:HIS:40>  (132) 
0

>  <hbond:THR:142>  (132) 
0

>  <hbond:HIS:161>  (132) 
0

>  <hbond:GLY:166>  (132) 
0

>  <hbond:VAL:162>  (132) 
0

>  <hydroph_interaction:ASN:165>  (132) 
0

>  <hbond:ASN:126>  (132) 
0

>  <hbond:ARG:143>  (132) 
0

>  <hbond:GLU:71>  (132) 
0

>  <saltbridge:HIS:161>  (132) 
0

>  <hbond:ALA:144>  (132) 
0

>  <hbond:GLY:145>  (132) 
0

>  <hbond:GLN:146>  (132) 
0

>  <hbond:CYS:147>  (132) 
0

>  <halogenbond:ASN:126>  (132) 
0

>  <saltbridge:HIS:40>  (132) 
0

>  <hbond:LEU:127>  (132) 
0

>  <hbond:THR:130>  (132) 
0

>  <hydroph_interaction:GLU:71>  (132) 
0

>  <hydroph_interaction:THR:130>  (132) 
0

>  <saltbridge:ARG:143>  (132) 
0

>  <saltbridge:GLU:71>  (132) 
0

>  <hbond:GLY:129>  (132) 
0

>  <halogenbond:CYS:147>  (132) 
0

>  <hydroph_interaction:THR:39>  (132) 
0

>  <hbond:ASN:69>  (132) 
0

>  <hydroph_interaction:THR:132>  (132) 
0

>  <hbond:TYR:122>  (132) 
0

>  <hydroph_interaction:PHE:109>  (132) 
0

>  <hydroph_interaction:PHE:140>  (132) 
0

>  <hbond:PRO:141>  (132) 
0

$$$$
Z816183516-x1084-0AS1
     RDKit          3D

 34 35  0  0  0  0  0  0  0  0999 V2000
  -11.9340   -6.0540   -4.5340 C   0  0  0  0  0  0  0  0  0  0  0  0
  -12.4300   -4.6390   -4.2950 C   0  0  0  0  0  0  0  0  0  0  0  0
  -13.7870   -4.5350   -3.6660 C   0  0  0  0  0  0  0  0  0  0  0  0
  -14.3840   -3.1700   -3.3870 C   0  0  0  0  0  0  0  0  0  0  0  0
  -13.4870   -1.9950   -3.8020 C   0  0  0  0  0  0  0  0  0  0  0  0
  -13.9330   -0.7480   -3.5950 F   0  0  0  0  0  0  0  0  0  0  0  0
  -12.2250   -2.1660   -4.3870 C   0  0  0  0  0  0  0  0  0  0  0  0
  -11.7260   -3.4630   -4.6180 C   0  0  0  0  0  0  0  0  0  0  0  0
  -10.4940   -3.5320   -5.1930 N   0  0  0  0  0  0  0  0  0  0  0  0
  -10.4220   -3.9600   -6.5480 C   0  0  0  0  0  0  0  0  0  0  0  0
  -11.3590   -3.8890   -7.3530 O   0  0  0  0  0  0  0  0  0  0  0  0
   -9.1000   -4.5580   -7.0440 C   0  0  0  0  0  0  0  0  0  0  0  0
   -8.6980   -3.9000   -8.3190 C   0  0  0  0  0  0  0  0  0  0  0  0
   -7.5590   -4.2880   -8.9910 C   0  0  0  0  0  0  0  0  0  0  0  0
   -6.7370   -5.3260   -8.4920 C   0  0  0  0  0  0  0  0  0  0  0  0
   -7.0960   -5.9250   -7.3040 C   0  0  0  0  0  0  0  0  0  0  0  0
   -8.2850   -5.5660   -6.5090 C   0  0  0  0  0  0  0  0  0  0  0  0
   -8.4610   -6.3050   -5.2840 O   0  0  0  0  0  0  0  0  0  0  0  0
   -7.2340   -6.3570   -4.4850 C   0  0  0  0  0  0  0  0  0  0  0  0
   -6.9710   -5.1650   -3.8990 C   0  0  0  0  0  0  0  0  0  0  0  0
   -6.6640   -3.8890   -3.2430 N   0  0  0  0  0  0  0  0  0  0  0  0
  -11.8300   -6.2620   -5.6050 H   0  0  0  0  0  0  0  0  0  0  0  0
  -10.9580   -6.2110   -4.0690 H   0  0  0  0  0  0  0  0  0  0  0  0
  -12.6350   -6.7810   -4.1140 H   0  0  0  0  0  0  0  0  0  0  0  0
  -14.3390   -5.4470   -3.4130 H   0  0  0  0  0  0  0  0  0  0  0  0
  -15.3590   -3.0300   -2.9360 H   0  0  0  0  0  0  0  0  0  0  0  0
  -11.6320   -1.2840   -4.6600 H   0  0  0  0  0  0  0  0  0  0  0  0
   -9.7190   -3.8080   -4.5900 H   0  0  0  0  0  0  0  0  0  0  0  0
   -9.3180   -3.1090   -8.7290 H   0  0  0  0  0  0  0  0  0  0  0  0
   -7.2970   -3.8170   -9.8970 H   0  0  0  0  0  0  0  0  0  0  0  0
   -5.8510   -5.6480   -9.0160 H   0  0  0  0  0  0  0  0  0  0  0  0
   -6.4550   -6.7140   -6.9270 H   0  0  0  0  0  0  0  0  0  0  0  0
   -6.3830   -6.6310   -5.1200 H   0  0  0  0  0  0  0  0  0  0  0  0
   -7.3360   -7.1240   -3.7090 H   0  0  0  0  0  0  0  0  0  0  0  0
  1  2  1  0
  2  3  2  0
  3  4  1  0
  4  5  2  0
  5  6  1  0
  5  7  1  0
  7  8  2  0
  8  9  1  0
  9 10  1  0
 10 11  2  0
 10 12  1  0
 12 13  2  0
 13 14  1  0
 14 15  2  0
 15 16  1  0
 16 17  2  0
 17 18  1  0
 18 19  1  0
 19 20  1  0
 20 21  3  0
  8  2  1  0
 17 12  1  0
  1 22  1  0
  1 23  1  0
  1 24  1  0
  3 25  1  0
  4 26  1  0
  7 27  1  0
  9 28  1  0
 13 29  1  0
 14 30  1  0
 15 31  1  0
 16 32  1  0
 19 33  1  0
 19 34  1  0
A    1
 C1 
A    2
 C2 
A    3
 C3 
A    4
 C4 
A    5
 C5 
A    6
 F1 
A    7
 C6 
A    8
 C7 
A    9
 N1 
A   10
 C8 
A   11
 O1 
A   12
 C9 
A   13
 C10
A   14
 C11
A   15
 C12
A   16
 C13
A   17
 C14
A   18
 O2 
A   19
 C15
A   20
 C16
A   21
 N2 
A   22
 H1 
A   23
 H2 
A   24
 H3 
A   25
 H4 
A   26
 H5 
A   27
 H6 
A   28
 H7 
A   29
 H8 
A   30
 H9 
A   31
 H10
A   32
 H11
A   33
 H12
A   34
 H13
M  END
>  <ref_pdb>  (133) 
x0147_0A

>  <ref_mols>  (133) 
x1084_0AS1,x0980_0B

>  <original SMILES>  (133) 
[H]c1c([H])c([H])c(C(=O)N([H])c2c([H])c(F)c([H])c([H])c2C([H])([H])[H])c(OC([H])([H])C#N)c1[H]

>  <index>  (133) 
10814

>  <∆∆G>  (133) 
-4.626828

>  <comRMSD>  (133) 
0.766524

>  <N_constrained_atoms>  (133) 
21.0

>  <N_unconstrained_atoms>  (133) 
1.0

>  <LE>  (133) 
0.21031

>  <percent_hybrid>  (133) 
20.0

>  <max_hit_Tanimoto>  (133) 
0.576523

>  <largest_ring>  (133) 
6

>  <N_interactions_kept>  (133) 
1.5

>  <N_interactions_lost>  (133) 
0.0

>  <interaction_uniqueness_metric>  (133) 
0.017959

>  <N_HA>  (133) 
21

>  <N_rotatable_bonds>  (133) 
5

>  <N_interactions>  (133) 
3

>  <N_PAINS>  (133) 
0

>  <UFF_Gibbs>  (133) 
186.937265

>  <strain_per_HA>  (133) 
8.901732

>  <ad_hoc_penalty>  (133) 
-25.418102

>  <cluster>  (133) 
13

>  <ranked>  (133) 
155.0

>  <merger_rank>  (133) 
1

>  <hydroph_interaction:LEU:127>  (133) 
0

>  <hbond:GLY:128>  (133) 
0

>  <hydroph_interaction:ALA:144>  (133) 
0

>  <hbond:GLY:164>  (133) 
3

>  <hbond:HIS:40>  (133) 
0

>  <pistack:HIS:40>  (133) 
0

>  <hydroph_interaction:LEU:125>  (133) 
0

>  <hydroph_interaction:PHE:170>  (133) 
0

>  <hydroph_interaction:HIS:40>  (133) 
0

>  <pication:HIS:40>  (133) 
0

>  <hbond:THR:142>  (133) 
0

>  <hbond:HIS:161>  (133) 
0

>  <hbond:GLY:166>  (133) 
0

>  <hbond:VAL:162>  (133) 
0

>  <hydroph_interaction:ASN:165>  (133) 
0

>  <hbond:ASN:126>  (133) 
0

>  <hbond:ARG:143>  (133) 
0

>  <hbond:GLU:71>  (133) 
0

>  <saltbridge:HIS:161>  (133) 
0

>  <hbond:ALA:144>  (133) 
0

>  <hbond:GLY:145>  (133) 
0

>  <hbond:GLN:146>  (133) 
0

>  <hbond:CYS:147>  (133) 
0

>  <halogenbond:ASN:126>  (133) 
0

>  <saltbridge:HIS:40>  (133) 
0

>  <hbond:LEU:127>  (133) 
0

>  <hbond:THR:130>  (133) 
0

>  <hydroph_interaction:GLU:71>  (133) 
0

>  <hydroph_interaction:THR:130>  (133) 
0

>  <saltbridge:ARG:143>  (133) 
0

>  <saltbridge:GLU:71>  (133) 
0

>  <hbond:GLY:129>  (133) 
0

>  <halogenbond:CYS:147>  (133) 
0

>  <hydroph_interaction:THR:39>  (133) 
0

>  <hbond:ASN:69>  (133) 
0

>  <hydroph_interaction:THR:132>  (133) 
0

>  <hbond:TYR:122>  (133) 
0

>  <hydroph_interaction:PHE:109>  (133) 
0

>  <hydroph_interaction:PHE:140>  (133) 
0

>  <hbond:PRO:141>  (133) 
0

$$$$
Z1658582309-x1071-0AS6
     RDKit          3D

 39 40  0  0  0  0  0  0  0  0999 V2000
   -6.4530   -3.4710   -2.5090 C   0  0  0  0  0  0  0  0  0  0  0  0
   -7.5970   -4.4590   -2.6890 C   0  0  0  0  0  0  0  0  0  0  0  0
   -8.1550   -4.4550   -4.1030 C   0  0  0  0  0  0  0  0  0  0  0  0
   -9.4660   -3.6280   -4.1850 C   0  0  0  0  0  0  0  0  0  0  0  0
  -10.3310   -3.9990   -5.2820 N   0  0  0  0  0  0  0  0  0  0  0  0
  -10.0060   -5.1240   -5.9790 C   0  0  0  0  0  0  0  0  0  0  0  0
  -10.5040   -6.2270   -5.7950 O   0  0  0  0  0  0  0  0  0  0  0  0
   -8.9390   -4.8630   -7.0250 C   0  0  0  0  0  0  0  0  0  0  0  0
   -8.8280   -3.5760   -7.8170 C   0  0  0  0  0  0  0  0  0  0  0  0
   -7.7870   -3.5790   -8.7120 N   0  0  0  0  0  0  0  0  0  0  0  0
   -7.1480   -4.7320   -8.6460 C   0  0  0  0  0  0  0  0  0  0  0  0
   -7.7100   -5.9520   -7.4830 S   0  0  0  0  0  0  0  0  0  0  0  0
   -7.2530   -5.8250   -2.1790 N   0  0  0  0  0  0  0  0  0  0  0  0
   -6.8890   -5.8740   -0.7740 C   0  0  0  0  0  0  0  0  0  0  0  0
   -6.3810   -7.2650   -0.4550 C   0  0  0  0  0  0  0  0  0  0  0  0
   -4.9780   -7.5150   -1.0540 C   0  0  0  0  0  0  0  0  0  0  0  0
   -4.9560   -6.9500   -2.3340 C   0  0  0  0  0  0  0  0  0  0  0  0
   -6.3230   -6.6630   -2.9850 C   0  0  0  0  0  0  0  0  0  0  0  0
   -5.8350   -3.4530   -3.4060 H   0  0  0  0  0  0  0  0  0  0  0  0
   -6.8300   -2.4580   -2.3450 H   0  0  0  0  0  0  0  0  0  0  0  0
   -5.8350   -3.7840   -1.6650 H   0  0  0  0  0  0  0  0  0  0  0  0
   -8.3870   -4.0800   -2.0330 H   0  0  0  0  0  0  0  0  0  0  0  0
   -8.3420   -5.4950   -4.3850 H   0  0  0  0  0  0  0  0  0  0  0  0
   -7.4280   -4.0800   -4.8300 H   0  0  0  0  0  0  0  0  0  0  0  0
  -10.0230   -3.7910   -3.2530 H   0  0  0  0  0  0  0  0  0  0  0  0
   -9.2680   -2.5550   -4.2510 H   0  0  0  0  0  0  0  0  0  0  0  0
  -11.3120   -3.7760   -5.1840 H   0  0  0  0  0  0  0  0  0  0  0  0
   -9.4770   -2.6950   -7.7390 H   0  0  0  0  0  0  0  0  0  0  0  0
   -6.3130   -4.9450   -9.2690 H   0  0  0  0  0  0  0  0  0  0  0  0
   -6.1240   -5.1230   -0.5470 H   0  0  0  0  0  0  0  0  0  0  0  0
   -7.7400   -5.6900   -0.1100 H   0  0  0  0  0  0  0  0  0  0  0  0
   -7.0750   -8.0240   -0.8390 H   0  0  0  0  0  0  0  0  0  0  0  0
   -6.3490   -7.3900    0.6350 H   0  0  0  0  0  0  0  0  0  0  0  0
   -4.8200   -8.5950   -1.1230 H   0  0  0  0  0  0  0  0  0  0  0  0
   -4.1960   -7.0890   -0.4180 H   0  0  0  0  0  0  0  0  0  0  0  0
   -4.4030   -6.0140   -2.2980 H   0  0  0  0  0  0  0  0  0  0  0  0
   -4.4120   -7.6420   -2.9810 H   0  0  0  0  0  0  0  0  0  0  0  0
   -6.0930   -6.0700   -3.8810 H   0  0  0  0  0  0  0  0  0  0  0  0
   -6.8780   -7.5240   -3.3640 H   0  0  0  0  0  0  0  0  0  0  0  0
  1  2  1  0
  2  3  1  0
  3  4  1  0
  4  5  1  0
  5  6  1  0
  6  7  2  0
  6  8  1  0
  8  9  2  0
  9 10  1  0
 10 11  2  0
 11 12  1  0
  2 13  1  0
 13 14  1  0
 14 15  1  0
 15 16  1  0
 16 17  1  0
 17 18  1  0
 12  8  1  0
 18 13  1  0
  1 19  1  0
  1 20  1  0
  1 21  1  0
  2 22  1  0
  3 23  1  0
  3 24  1  0
  4 25  1  0
  4 26  1  0
  5 27  1  0
  9 28  1  0
 11 29  1  0
 14 30  1  0
 14 31  1  0
 15 32  1  0
 15 33  1  0
 16 34  1  0
 16 35  1  0
 17 36  1  0
 17 37  1  0
 18 38  1  0
 18 39  1  0
A    1
 C1 
A    2
 C2 
A    3
 C3 
A    4
 C4 
A    5
 N1 
A    6
 C5 
A    7
 O1 
A    8
 C6 
A    9
 C7 
A   10
 N2 
A   11
 C8 
A   12
 S1 
A   13
 N3 
A   14
 C9 
A   15
 C10
A   16
 C11
A   17
 C12
A   18
 C13
A   19
 H1 
A   20
 H2 
A   21
 H3 
A   22
 H4 
A   23
 H5 
A   24
 H6 
A   25
 H7 
A   26
 H8 
A   27
 H9 
A   28
 H10
A   29
 H11
A   30
 H12
A   31
 H13
A   32
 H14
A   33
 H15
A   34
 H16
A   35
 H17
A   36
 H18
A   37
 H19
A   38
 H20
A   39
 H21
M  END
>  <ref_pdb>  (134) 
x0147_0A

>  <ref_mols>  (134) 
x1071_0AS6,x0789_0AS4

>  <original SMILES>  (134) 
[H]c1nc([H])c(C(=O)N([H])C([H])([H])C([H])([H])C([H])(N2C([H])([H])C([H])([H])C([H])([H])C([H])([H])C2([H])[H])C([H])([H])[H])s1

>  <index>  (134) 
14440

>  <∆∆G>  (134) 
-5.824541

>  <comRMSD>  (134) 
0.82388

>  <N_constrained_atoms>  (134) 
18.0

>  <N_unconstrained_atoms>  (134) 
2.0

>  <LE>  (134) 
0.291227

>  <percent_hybrid>  (134) 
45.0

>  <max_hit_Tanimoto>  (134) 
0.202381

>  <largest_ring>  (134) 
6

>  <N_interactions_kept>  (134) 
2.0

>  <N_interactions_lost>  (134) 
0.0

>  <interaction_uniqueness_metric>  (134) 
0.013896

>  <N_HA>  (134) 
18

>  <N_rotatable_bonds>  (134) 
6

>  <N_interactions>  (134) 
2

>  <N_PAINS>  (134) 
0

>  <UFF_Gibbs>  (134) 
86.367105

>  <strain_per_HA>  (134) 
4.798146

>  <ad_hoc_penalty>  (134) 
-25.304854

>  <cluster>  (134) 
1876

>  <ranked>  (134) 
157.0

>  <merger_rank>  (134) 
1

>  <hydroph_interaction:LEU:127>  (134) 
2

>  <hbond:GLY:128>  (134) 
0

>  <hydroph_interaction:ALA:144>  (134) 
0

>  <hbond:GLY:164>  (134) 
0

>  <hbond:HIS:40>  (134) 
0

>  <pistack:HIS:40>  (134) 
0

>  <hydroph_interaction:LEU:125>  (134) 
0

>  <hydroph_interaction:PHE:170>  (134) 
0

>  <hydroph_interaction:HIS:40>  (134) 
0

>  <pication:HIS:40>  (134) 
0

>  <hbond:THR:142>  (134) 
0

>  <hbond:HIS:161>  (134) 
0

>  <hbond:GLY:166>  (134) 
0

>  <hbond:VAL:162>  (134) 
0

>  <hydroph_interaction:ASN:165>  (134) 
0

>  <hbond:ASN:126>  (134) 
0

>  <hbond:ARG:143>  (134) 
0

>  <hbond:GLU:71>  (134) 
0

>  <saltbridge:HIS:161>  (134) 
0

>  <hbond:ALA:144>  (134) 
0

>  <hbond:GLY:145>  (134) 
0

>  <hbond:GLN:146>  (134) 
0

>  <hbond:CYS:147>  (134) 
0

>  <halogenbond:ASN:126>  (134) 
0

>  <saltbridge:HIS:40>  (134) 
0

>  <hbond:LEU:127>  (134) 
0

>  <hbond:THR:130>  (134) 
0

>  <hydroph_interaction:GLU:71>  (134) 
0

>  <hydroph_interaction:THR:130>  (134) 
0

>  <saltbridge:ARG:143>  (134) 
0

>  <saltbridge:GLU:71>  (134) 
0

>  <hbond:GLY:129>  (134) 
0

>  <halogenbond:CYS:147>  (134) 
0

>  <hydroph_interaction:THR:39>  (134) 
0

>  <hbond:ASN:69>  (134) 
0

>  <hydroph_interaction:THR:132>  (134) 
0

>  <hbond:TYR:122>  (134) 
0

>  <hydroph_interaction:PHE:109>  (134) 
0

>  <hydroph_interaction:PHE:140>  (134) 
0

>  <hbond:PRO:141>  (134) 
0

$$$$
Z1343529299-x1332-1AS2
     RDKit          3D

 32 33  0  0  0  0  0  0  0  0999 V2000
   -6.7450   -6.3740   -8.3120 C   0  0  0  0  0  0  0  0  0  0  0  0
   -7.2510   -4.9680   -8.4320 C   0  0  0  0  0  0  0  0  0  0  0  0
   -6.6150   -4.1700   -9.1030 O   0  0  0  0  0  0  0  0  0  0  0  0
   -8.4170   -4.6250   -7.7750 N   0  0  0  0  0  0  0  0  0  0  0  0
   -8.9060   -3.2850   -7.5680 C   0  0  0  0  0  0  0  0  0  0  0  0
  -10.3680   -3.5030   -7.2650 C   0  0  0  0  0  0  0  0  0  0  0  0
  -10.3450   -4.7650   -6.3950 C   0  0  0  0  0  0  0  0  0  0  0  0
  -11.6380   -5.5580   -6.5180 C   0  0  0  0  0  0  0  0  0  0  0  0
  -12.0690   -6.0140   -7.5870 O   0  0  0  0  0  0  0  0  0  0  0  0
  -12.2440   -5.6340   -5.2910 N   0  0  0  0  0  0  0  0  0  0  0  0
  -12.7500   -4.5010   -4.6750 C   0  0  0  0  0  0  0  0  0  0  0  0
  -13.8090   -4.4310   -3.7870 C   0  0  0  0  0  0  0  0  0  0  0  0
  -14.1790   -3.1770   -3.2960 C   0  0  0  0  0  0  0  0  0  0  0  0
  -13.4740   -2.0500   -3.7140 C   0  0  0  0  0  0  0  0  0  0  0  0
  -13.9310   -0.3370   -3.1040 Br  0  0  0  0  0  0  0  0  0  0  0  0
  -12.4300   -2.2130   -4.5920 C   0  0  0  0  0  0  0  0  0  0  0  0
  -12.0590   -3.4110   -5.0750 N   0  0  0  0  0  0  0  0  0  0  0  0
   -9.0590   -5.4990   -6.8090 C   0  0  0  0  0  0  0  0  0  0  0  0
   -6.9940   -6.9430   -9.2040 H   0  0  0  0  0  0  0  0  0  0  0  0
   -5.6610   -6.3680   -8.1850 H   0  0  0  0  0  0  0  0  0  0  0  0
   -7.1910   -6.8600   -7.4400 H   0  0  0  0  0  0  0  0  0  0  0  0
   -8.3910   -2.8100   -6.7410 H   0  0  0  0  0  0  0  0  0  0  0  0
   -8.7530   -2.7080   -8.4860 H   0  0  0  0  0  0  0  0  0  0  0  0
  -10.9200   -3.6730   -8.1960 H   0  0  0  0  0  0  0  0  0  0  0  0
  -10.8170   -2.6420   -6.7620 H   0  0  0  0  0  0  0  0  0  0  0  0
  -10.2480   -4.4510   -5.3480 H   0  0  0  0  0  0  0  0  0  0  0  0
  -12.7730   -6.4600   -5.0380 H   0  0  0  0  0  0  0  0  0  0  0  0
  -14.3600   -5.3080   -3.4640 H   0  0  0  0  0  0  0  0  0  0  0  0
  -15.0090   -3.0930   -2.6000 H   0  0  0  0  0  0  0  0  0  0  0  0
  -11.8450   -1.3690   -4.9490 H   0  0  0  0  0  0  0  0  0  0  0  0
   -9.2480   -6.4740   -7.2410 H   0  0  0  0  0  0  0  0  0  0  0  0
   -8.3670   -5.6270   -5.9680 H   0  0  0  0  0  0  0  0  0  0  0  0
  1  2  1  0
  2  3  2  0
  2  4  1  0
  4  5  1  0
  5  6  1  0
  6  7  1  0
  7  8  1  0
  8  9  2  0
  8 10  1  0
 10 11  1  0
 11 12  2  0
 12 13  1  0
 13 14  2  0
 14 15  1  0
 14 16  1  0
 16 17  2  0
  7 18  1  0
 18  4  1  0
 17 11  1  0
  1 19  1  0
  1 20  1  0
  1 21  1  0
  5 22  1  0
  5 23  1  0
  6 24  1  0
  6 25  1  0
  7 26  1  0
 10 27  1  0
 12 28  1  0
 13 29  1  0
 16 30  1  0
 18 31  1  0
 18 32  1  0
A    1
 C1 
A    2
 C2 
A    3
 O1 
A    4
 N1 
A    5
 C3 
A    6
 C4 
A    7
 C5 
A    8
 C6 
A    9
 O2 
A   10
 N2 
A   11
 C7 
A   12
 C8 
A   13
 C9 
A   14
 C10
A   15
BR1 
A   16
 C11
A   17
 N3 
A   18
 C12
A   19
 H1 
A   20
 H2 
A   21
 H3 
A   22
 H4 
A   23
 H5 
A   24
 H6 
A   25
 H7 
A   26
 H8 
A   27
 H9 
A   28
 H10
A   29
 H11
A   30
 H12
A   31
 H13
A   32
 H14
M  END
>  <ref_pdb>  (135) 
x0147_0A

>  <ref_mols>  (135) 
x1332_1AS2,x0980_0BS3

>  <original SMILES>  (135) 
[H]c1nc(N([H])C(=O)C2([H])C([H])([H])N(C(=O)C([H])([H])[H])C([H])([H])C2([H])[H])c([H])c([H])c1Br

>  <index>  (135) 
12125

>  <∆∆G>  (135) 
-6.607889

>  <comRMSD>  (135) 
0.463362

>  <N_constrained_atoms>  (135) 
18.0

>  <N_unconstrained_atoms>  (135) 
0.0

>  <LE>  (135) 
0.367105

>  <percent_hybrid>  (135) 
42.0

>  <max_hit_Tanimoto>  (135) 
0.314785

>  <largest_ring>  (135) 
6

>  <N_interactions_kept>  (135) 
0.0

>  <N_interactions_lost>  (135) 
1.0

>  <interaction_uniqueness_metric>  (135) 
0.043937

>  <N_HA>  (135) 
18

>  <N_rotatable_bonds>  (135) 
3

>  <N_interactions>  (135) 
1

>  <N_PAINS>  (135) 
0

>  <UFF_Gibbs>  (135) 
71.228217

>  <strain_per_HA>  (135) 
3.957101

>  <ad_hoc_penalty>  (135) 
-25.275877

>  <cluster>  (135) 
515

>  <ranked>  (135) 
159.0

>  <merger_rank>  (135) 
1

>  <hydroph_interaction:LEU:127>  (135) 
0

>  <hbond:GLY:128>  (135) 
0

>  <hydroph_interaction:ALA:144>  (135) 
0

>  <hbond:GLY:164>  (135) 
0

>  <hbond:HIS:40>  (135) 
0

>  <pistack:HIS:40>  (135) 
0

>  <hydroph_interaction:LEU:125>  (135) 
0

>  <hydroph_interaction:PHE:170>  (135) 
0

>  <hydroph_interaction:HIS:40>  (135) 
0

>  <pication:HIS:40>  (135) 
0

>  <hbond:THR:142>  (135) 
0

>  <hbond:HIS:161>  (135) 
0

>  <hbond:GLY:166>  (135) 
0

>  <hbond:VAL:162>  (135) 
0

>  <hydroph_interaction:ASN:165>  (135) 
0

>  <hbond:ASN:126>  (135) 
0

>  <hbond:ARG:143>  (135) 
0

>  <hbond:GLU:71>  (135) 
0

>  <saltbridge:HIS:161>  (135) 
0

>  <hbond:ALA:144>  (135) 
1

>  <hbond:GLY:145>  (135) 
0

>  <hbond:GLN:146>  (135) 
0

>  <hbond:CYS:147>  (135) 
0

>  <halogenbond:ASN:126>  (135) 
0

>  <saltbridge:HIS:40>  (135) 
0

>  <hbond:LEU:127>  (135) 
0

>  <hbond:THR:130>  (135) 
0

>  <hydroph_interaction:GLU:71>  (135) 
0

>  <hydroph_interaction:THR:130>  (135) 
0

>  <saltbridge:ARG:143>  (135) 
0

>  <saltbridge:GLU:71>  (135) 
0

>  <hbond:GLY:129>  (135) 
0

>  <halogenbond:CYS:147>  (135) 
0

>  <hydroph_interaction:THR:39>  (135) 
0

>  <hbond:ASN:69>  (135) 
0

>  <hydroph_interaction:THR:132>  (135) 
0

>  <hbond:TYR:122>  (135) 
0

>  <hydroph_interaction:PHE:109>  (135) 
0

>  <hydroph_interaction:PHE:140>  (135) 
0

>  <hbond:PRO:141>  (135) 
0

$$$$
PV-002507852029-x0771-1AS1
     RDKit          3D

 38 40  0  0  0  0  0  0  0  0999 V2000
   -7.0470   -4.0990   -9.1870 N   0  0  0  0  0  0  0  0  0  0  0  0
   -7.9130   -4.1850   -8.1590 C   0  0  0  0  0  0  0  0  0  0  0  0
   -8.8090   -3.3710   -7.9680 O   0  0  0  0  0  0  0  0  0  0  0  0
   -7.6740   -5.3770   -7.2600 C   0  0  0  0  0  0  0  0  0  0  0  0
   -7.0250   -6.5140   -8.0370 C   0  0  0  0  0  0  0  0  0  0  0  0
   -6.7570   -7.7490   -7.1920 C   0  0  0  0  0  0  0  0  0  0  0  0
   -7.1350   -7.7230   -5.7400 C   0  0  0  0  0  0  0  0  0  0  0  0
   -7.7770   -6.4830   -5.1210 C   0  0  0  0  0  0  0  0  0  0  0  0
   -8.1390   -6.3770   -3.7810 N   0  0  0  0  0  0  0  0  0  0  0  0
   -7.2990   -5.8340   -2.8970 C   0  0  0  0  0  0  0  0  0  0  0  0
   -7.6130   -5.0930   -2.0080 O   0  0  0  0  0  0  0  0  0  0  0  0
   -6.0230   -6.2670   -3.1890 N   0  0  0  0  0  0  0  0  0  0  0  0
   -5.7370   -7.6890   -3.2130 C   0  0  0  0  0  0  0  0  0  0  0  0
   -5.2570   -8.0730   -1.8470 C   0  0  0  0  0  0  0  0  0  0  0  0
   -6.0290   -9.0430   -0.9920 C   0  0  0  0  0  0  0  0  0  0  0  0
   -5.5020   -9.3840    0.3840 C   0  0  0  0  0  0  0  0  0  0  0  0
   -4.2130   -8.6770    0.7400 C   0  0  0  0  0  0  0  0  0  0  0  0
   -3.5440   -8.8140    1.9150 O   0  0  0  0  0  0  0  0  0  0  0  0
   -2.4530   -8.0160    1.8320 C   0  0  0  0  0  0  0  0  0  0  0  0
   -2.4140   -7.3770    0.6280 C   0  0  0  0  0  0  0  0  0  0  0  0
   -3.5490   -7.7880   -0.1030 C   0  0  0  0  0  0  0  0  0  0  0  0
   -4.0620   -7.4920   -1.3810 C   0  0  0  0  0  0  0  0  0  0  0  0
   -8.0140   -5.3790   -5.9140 C   0  0  0  0  0  0  0  0  0  0  0  0
   -6.7690   -3.2230   -9.5860 H   0  0  0  0  0  0  0  0  0  0  0  0
   -7.0120   -4.9140   -9.7900 H   0  0  0  0  0  0  0  0  0  0  0  0
   -6.7780   -6.4560   -9.0950 H   0  0  0  0  0  0  0  0  0  0  0  0
   -6.3050   -8.6280   -7.6240 H   0  0  0  0  0  0  0  0  0  0  0  0
   -6.9340   -8.6130   -5.1530 H   0  0  0  0  0  0  0  0  0  0  0  0
   -9.1180   -6.2430   -3.5820 H   0  0  0  0  0  0  0  0  0  0  0  0
   -5.2690   -5.6800   -2.8660 H   0  0  0  0  0  0  0  0  0  0  0  0
   -6.6090   -8.2780   -3.5040 H   0  0  0  0  0  0  0  0  0  0  0  0
   -4.9500   -7.8540   -3.9620 H   0  0  0  0  0  0  0  0  0  0  0  0
   -6.9560   -9.4990   -1.3450 H   0  0  0  0  0  0  0  0  0  0  0  0
   -6.0000  -10.0710    1.0590 H   0  0  0  0  0  0  0  0  0  0  0  0
   -1.8050   -8.0100    2.7000 H   0  0  0  0  0  0  0  0  0  0  0  0
   -1.6540   -6.6950    0.3250 H   0  0  0  0  0  0  0  0  0  0  0  0
   -3.5300   -6.8000   -2.0230 H   0  0  0  0  0  0  0  0  0  0  0  0
   -8.4710   -4.4940   -5.4810 H   0  0  0  0  0  0  0  0  0  0  0  0
  1  2  1  0
  2  3  2  0
  2  4  1  0
  4  5  2  0
  5  6  1  0
  6  7  2  0
  7  8  1  0
  8  9  1  0
  9 10  1  0
 10 11  2  0
 10 12  1  0
 12 13  1  0
 13 14  1  0
 14 15  2  0
 15 16  1  0
 16 17  2  0
 17 18  1  0
 18 19  1  0
 19 20  2  0
 20 21  1  0
 21 22  2  0
  8 23  2  0
 23  4  1  0
 22 14  1  0
 21 17  1  0
  1 24  1  0
  1 25  1  0
  5 26  1  0
  6 27  1  0
  7 28  1  0
  9 29  1  0
 12 30  1  0
 13 31  1  0
 13 32  1  0
 15 33  1  0
 16 34  1  0
 19 35  1  0
 20 36  1  0
 22 37  1  0
 23 38  1  0
A    1
 N1 
A    2
 C1 
A    3
 O1 
A    4
 C2 
A    5
 C3 
A    6
 C4 
A    7
 C5 
A    8
 C6 
A    9
 N2 
A   10
 C7 
A   11
 O2 
A   12
 N3 
A   13
 C8 
A   14
 C9 
A   15
 C10
A   16
 C11
A   17
 C12
A   18
 O3 
A   19
 C13
A   20
 C14
A   21
 C15
A   22
 C16
A   23
 C17
A   24
 H1 
A   25
 H2 
A   26
 H3 
A   27
 H4 
A   28
 H5 
A   29
 H6 
A   30
 H7 
A   31
 H8 
A   32
 H9 
A   33
 H10
A   34
 H11
A   35
 H12
A   36
 H13
A   37
 H14
A   38
 H15
M  END
>  <ref_pdb>  (136) 
x0147_0A

>  <ref_mols>  (136) 
x0771_1AS1,x1140_0A

>  <original SMILES>  (136) 
[H]c1oc2c([H])c([H])c(C([H])([H])N([H])C(=O)N([H])c3c([H])c([H])c([H])c(C(=O)N([H])[H])c3[H])c([H])c2c1[H]

>  <index>  (136) 
5755

>  <∆∆G>  (136) 
-7.305605

>  <comRMSD>  (136) 
0.768435

>  <N_constrained_atoms>  (136) 
23.0

>  <N_unconstrained_atoms>  (136) 
0.0

>  <LE>  (136) 
0.317635

>  <percent_hybrid>  (136) 
40.0

>  <max_hit_Tanimoto>  (136) 
0.190731

>  <largest_ring>  (136) 
6

>  <N_interactions_kept>  (136) 
2.5

>  <N_interactions_lost>  (136) 
2.0

>  <interaction_uniqueness_metric>  (136) 
0.082356

>  <N_HA>  (136) 
23

>  <N_rotatable_bonds>  (136) 
4

>  <N_interactions>  (136) 
3

>  <N_PAINS>  (136) 
0

>  <UFF_Gibbs>  (136) 
175.183849

>  <strain_per_HA>  (136) 
7.616656

>  <ad_hoc_penalty>  (136) 
-25.249222

>  <cluster>  (136) 
2458

>  <ranked>  (136) 
160.0

>  <merger_rank>  (136) 
1

>  <hydroph_interaction:LEU:127>  (136) 
0

>  <hbond:GLY:128>  (136) 
0

>  <hydroph_interaction:ALA:144>  (136) 
0

>  <hbond:GLY:164>  (136) 
0

>  <hbond:HIS:40>  (136) 
0

>  <pistack:HIS:40>  (136) 
1

>  <hydroph_interaction:LEU:125>  (136) 
0

>  <hydroph_interaction:PHE:170>  (136) 
0

>  <hydroph_interaction:HIS:40>  (136) 
0

>  <pication:HIS:40>  (136) 
0

>  <hbond:THR:142>  (136) 
1

>  <hbond:HIS:161>  (136) 
0

>  <hbond:GLY:166>  (136) 
0

>  <hbond:VAL:162>  (136) 
1

>  <hydroph_interaction:ASN:165>  (136) 
0

>  <hbond:ASN:126>  (136) 
0

>  <hbond:ARG:143>  (136) 
0

>  <hbond:GLU:71>  (136) 
0

>  <saltbridge:HIS:161>  (136) 
0

>  <hbond:ALA:144>  (136) 
0

>  <hbond:GLY:145>  (136) 
0

>  <hbond:GLN:146>  (136) 
0

>  <hbond:CYS:147>  (136) 
0

>  <halogenbond:ASN:126>  (136) 
0

>  <saltbridge:HIS:40>  (136) 
0

>  <hbond:LEU:127>  (136) 
0

>  <hbond:THR:130>  (136) 
0

>  <hydroph_interaction:GLU:71>  (136) 
0

>  <hydroph_interaction:THR:130>  (136) 
0

>  <saltbridge:ARG:143>  (136) 
0

>  <saltbridge:GLU:71>  (136) 
0

>  <hbond:GLY:129>  (136) 
0

>  <halogenbond:CYS:147>  (136) 
0

>  <hydroph_interaction:THR:39>  (136) 
0

>  <hbond:ASN:69>  (136) 
0

>  <hydroph_interaction:THR:132>  (136) 
0

>  <hbond:TYR:122>  (136) 
0

>  <hydroph_interaction:PHE:109>  (136) 
0

>  <hydroph_interaction:PHE:140>  (136) 
0

>  <hbond:PRO:141>  (136) 
0

$$$$
Z3773742851-x2149-0AS6
     RDKit          3D

 41 43  0  0  0  0  0  0  0  0999 V2000
   -6.7730   -6.7550   -7.8530 C   0  0  0  0  0  0  0  0  0  0  0  0
   -7.1350   -5.6620   -7.1730 N   0  0  0  0  0  0  0  0  0  0  0  0
   -7.4790   -4.6160   -8.0320 C   0  0  0  0  0  0  0  0  0  0  0  0
   -6.7100   -4.1180   -9.1380 O   0  0  0  0  0  0  0  0  0  0  0  0
   -8.7990   -4.2260   -7.5070 C   0  0  0  0  0  0  0  0  0  0  0  0
   -9.2710   -5.1700   -6.6760 C   0  0  0  0  0  0  0  0  0  0  0  0
   -7.9590   -5.6150   -6.0340 C   0  0  0  0  0  0  0  0  0  0  0  0
   -7.5490   -4.7230   -5.0130 C   0  0  0  0  0  0  0  0  0  0  0  0
   -7.7950   -5.1460   -3.6490 N   0  0  0  0  0  0  0  0  0  0  0  0
   -7.5580   -6.3990   -3.3190 C   0  0  0  0  0  0  0  0  0  0  0  0
   -8.7110   -7.4720   -2.8320 S   0  0  0  0  0  0  0  0  0  0  0  0
   -6.2770   -6.8000   -3.4450 N   0  0  0  0  0  0  0  0  0  0  0  0
   -5.7320   -8.1220   -3.3280 C   0  0  0  0  0  0  0  0  0  0  0  0
   -5.2130   -8.2930   -1.9070 C   0  0  0  0  0  0  0  0  0  0  0  0
   -5.9940   -9.1390   -0.9140 C   0  0  0  0  0  0  0  0  0  0  0  0
   -5.3380   -9.2040    0.4600 C   0  0  0  0  0  0  0  0  0  0  0  0
   -4.1580   -8.5310    0.6800 C   0  0  0  0  0  0  0  0  0  0  0  0
   -3.4800   -8.5140    1.8580 O   0  0  0  0  0  0  0  0  0  0  0  0
   -2.3670   -7.6620    1.5180 C   0  0  0  0  0  0  0  0  0  0  0  0
   -2.3920   -7.2280    0.1520 O   0  0  0  0  0  0  0  0  0  0  0  0
   -3.5320   -7.7930   -0.2910 C   0  0  0  0  0  0  0  0  0  0  0  0
   -4.0210   -7.6560   -1.5610 C   0  0  0  0  0  0  0  0  0  0  0  0
   -5.7030   -6.7120   -8.0320 H   0  0  0  0  0  0  0  0  0  0  0  0
   -7.2580   -6.7430   -8.8240 H   0  0  0  0  0  0  0  0  0  0  0  0
   -7.0200   -7.6740   -7.3120 H   0  0  0  0  0  0  0  0  0  0  0  0
   -9.4900   -4.0640   -8.3360 H   0  0  0  0  0  0  0  0  0  0  0  0
   -8.6680   -3.2830   -6.9720 H   0  0  0  0  0  0  0  0  0  0  0  0
   -9.7370   -5.9780   -7.2470 H   0  0  0  0  0  0  0  0  0  0  0  0
  -10.0000   -4.7800   -5.9580 H   0  0  0  0  0  0  0  0  0  0  0  0
   -8.0590   -6.6390   -5.6570 H   0  0  0  0  0  0  0  0  0  0  0  0
   -6.4990   -4.5390   -5.0740 H   0  0  0  0  0  0  0  0  0  0  0  0
   -8.0510   -3.7550   -5.1300 H   0  0  0  0  0  0  0  0  0  0  0  0
   -8.5460   -4.6670   -3.1780 H   0  0  0  0  0  0  0  0  0  0  0  0
   -5.6200   -6.0510   -3.6360 H   0  0  0  0  0  0  0  0  0  0  0  0
   -6.5030   -8.8640   -3.5670 H   0  0  0  0  0  0  0  0  0  0  0  0
   -4.9240   -8.2360   -4.0600 H   0  0  0  0  0  0  0  0  0  0  0  0
   -6.9270   -9.6490   -1.1500 H   0  0  0  0  0  0  0  0  0  0  0  0
   -5.7950   -9.7750    1.2590 H   0  0  0  0  0  0  0  0  0  0  0  0
   -1.4300   -8.2030    1.6950 H   0  0  0  0  0  0  0  0  0  0  0  0
   -2.3890   -6.7740    2.1590 H   0  0  0  0  0  0  0  0  0  0  0  0
   -3.4790   -7.0570   -2.2840 H   0  0  0  0  0  0  0  0  0  0  0  0
  1  2  1  0
  2  3  1  0
  3  4  2  0
  3  5  1  0
  5  6  1  0
  6  7  1  0
  7  8  1  0
  8  9  1  0
  9 10  1  0
 10 11  2  0
 10 12  1  0
 12 13  1  0
 13 14  1  0
 14 15  2  0
 15 16  1  0
 16 17  2  0
 17 18  1  0
 18 19  1  0
 19 20  1  0
 20 21  1  0
 21 22  2  0
  7  2  1  0
 22 14  1  0
 21 17  1  0
  1 23  1  0
  1 24  1  0
  1 25  1  0
  5 26  1  0
  5 27  1  0
  6 28  1  0
  6 29  1  0
  7 30  1  0
  8 31  1  0
  8 32  1  0
  9 33  1  0
 12 34  1  0
 13 35  1  0
 13 36  1  0
 15 37  1  0
 16 38  1  0
 19 39  1  0
 19 40  1  0
 22 41  1  0
A    1
 C1 
A    2
 N1 
A    3
 C2 
A    4
 O1 
A    5
 C3 
A    6
 C4 
A    7
 C5 
A    8
 C6 
A    9
 N2 
A   10
 C7 
A   11
 S1 
A   12
 N3 
A   13
 C8 
A   14
 C9 
A   15
 C10
A   16
 C11
A   17
 C12
A   18
 O2 
A   19
 C13
A   20
 O3 
A   21
 C14
A   22
 C15
A   23
 H1 
A   24
 H2 
A   25
 H3 
A   26
 H4 
A   27
 H5 
A   28
 H6 
A   29
 H7 
A   30
 H8 
A   31
 H9 
A   32
 H10
A   33
 H11
A   34
 H12
A   35
 H13
A   36
 H14
A   37
 H15
A   38
 H16
A   39
 H17
A   40
 H18
A   41
 H19
M  END
>  <ref_pdb>  (137) 
x0147_0A

>  <ref_mols>  (137) 
x2149_0AS6,x1140_0A

>  <original SMILES>  (137) 
[H]c1c([H])c(C([H])([H])N([H])C(=S)N([H])C([H])([H])C2([H])N(C([H])([H])[H])C(=O)C([H])([H])C2([H])[H])c([H])c2c1OC([H])([H])O2

>  <index>  (137) 
1017

>  <∆∆G>  (137) 
-6.87484

>  <comRMSD>  (137) 
0.910157

>  <N_constrained_atoms>  (137) 
22.0

>  <N_unconstrained_atoms>  (137) 
2.0

>  <LE>  (137) 
0.286452

>  <percent_hybrid>  (137) 
32.0

>  <max_hit_Tanimoto>  (137) 
0.438849

>  <largest_ring>  (137) 
6

>  <N_interactions_kept>  (137) 
2.0

>  <N_interactions_lost>  (137) 
2.5

>  <interaction_uniqueness_metric>  (137) 
0.091933

>  <N_HA>  (137) 
22

>  <N_rotatable_bonds>  (137) 
5

>  <N_interactions>  (137) 
5

>  <N_PAINS>  (137) 
0

>  <UFF_Gibbs>  (137) 
152.436736

>  <strain_per_HA>  (137) 
6.928911

>  <ad_hoc_penalty>  (137) 
-25.222798

>  <cluster>  (137) 
2740

>  <ranked>  (137) 
161.0

>  <merger_rank>  (137) 
2

>  <hydroph_interaction:LEU:127>  (137) 
1

>  <hbond:GLY:128>  (137) 
0

>  <hydroph_interaction:ALA:144>  (137) 
0

>  <hbond:GLY:164>  (137) 
0

>  <hbond:HIS:40>  (137) 
1

>  <pistack:HIS:40>  (137) 
1

>  <hydroph_interaction:LEU:125>  (137) 
0

>  <hydroph_interaction:PHE:170>  (137) 
0

>  <hydroph_interaction:HIS:40>  (137) 
1

>  <pication:HIS:40>  (137) 
0

>  <hbond:THR:142>  (137) 
0

>  <hbond:HIS:161>  (137) 
0

>  <hbond:GLY:166>  (137) 
0

>  <hbond:VAL:162>  (137) 
1

>  <hydroph_interaction:ASN:165>  (137) 
0

>  <hbond:ASN:126>  (137) 
0

>  <hbond:ARG:143>  (137) 
0

>  <hbond:GLU:71>  (137) 
0

>  <saltbridge:HIS:161>  (137) 
0

>  <hbond:ALA:144>  (137) 
0

>  <hbond:GLY:145>  (137) 
0

>  <hbond:GLN:146>  (137) 
0

>  <hbond:CYS:147>  (137) 
0

>  <halogenbond:ASN:126>  (137) 
0

>  <saltbridge:HIS:40>  (137) 
0

>  <hbond:LEU:127>  (137) 
0

>  <hbond:THR:130>  (137) 
0

>  <hydroph_interaction:GLU:71>  (137) 
0

>  <hydroph_interaction:THR:130>  (137) 
0

>  <saltbridge:ARG:143>  (137) 
0

>  <saltbridge:GLU:71>  (137) 
0

>  <hbond:GLY:129>  (137) 
0

>  <halogenbond:CYS:147>  (137) 
0

>  <hydroph_interaction:THR:39>  (137) 
0

>  <hbond:ASN:69>  (137) 
0

>  <hydroph_interaction:THR:132>  (137) 
0

>  <hbond:TYR:122>  (137) 
0

>  <hydroph_interaction:PHE:109>  (137) 
0

>  <hydroph_interaction:PHE:140>  (137) 
0

>  <hbond:PRO:141>  (137) 
0

$$$$
Z4270724649-x0771-1A
     RDKit          3D

 44 47  0  0  0  0  0  0  0  0999 V2000
   -7.3690   -3.6610   -9.0380 N   0  0  0  0  0  0  0  0  0  0  0  0
   -7.6600   -4.3250   -8.1630 C   0  0  0  0  0  0  0  0  0  0  0  0
   -8.8520   -3.6920   -7.7140 O   0  0  0  0  0  0  0  0  0  0  0  0
   -7.5610   -5.4450   -7.2160 C   0  0  0  0  0  0  0  0  0  0  0  0
   -7.8690   -5.3170   -5.9270 C   0  0  0  0  0  0  0  0  0  0  0  0
   -7.7770   -6.4090   -4.9790 C   0  0  0  0  0  0  0  0  0  0  0  0
   -7.3600   -7.6590   -5.3980 C   0  0  0  0  0  0  0  0  0  0  0  0
   -7.0370   -7.7950   -6.7570 C   0  0  0  0  0  0  0  0  0  0  0  0
   -7.1250   -6.7100   -7.6560 C   0  0  0  0  0  0  0  0  0  0  0  0
   -6.6620   -8.8320   -7.2910 O   0  0  0  0  0  0  0  0  0  0  0  0
   -6.7550  -10.0250   -6.4780 C   0  0  0  0  0  0  0  0  0  0  0  0
   -7.5480   -9.9400   -5.2040 C   0  0  0  0  0  0  0  0  0  0  0  0
   -7.2860   -8.6960   -4.4950 N   0  0  0  0  0  0  0  0  0  0  0  0
   -7.9730   -8.6380   -3.1710 C   0  0  0  0  0  0  0  0  0  0  0  0
   -7.2550   -9.4660   -2.2640 C   0  0  0  0  0  0  0  0  0  0  0  0
   -6.0190   -8.8900   -1.5600 C   0  0  0  0  0  0  0  0  0  0  0  0
   -5.1850   -8.0160   -2.4370 C   0  0  0  0  0  0  0  0  0  0  0  0
   -3.9360   -7.3790   -1.9010 C   0  0  0  0  0  0  0  0  0  0  0  0
   -3.6360   -7.6980   -0.4690 C   0  0  0  0  0  0  0  0  0  0  0  0
   -2.5730   -7.2430    0.2140 O   0  0  0  0  0  0  0  0  0  0  0  0
   -2.8740   -7.8290    1.4820 C   0  0  0  0  0  0  0  0  0  0  0  0
   -3.9690   -8.6720    1.6090 C   0  0  0  0  0  0  0  0  0  0  0  0
   -4.4550   -8.5170    0.2900 C   0  0  0  0  0  0  0  0  0  0  0  0
   -5.6340   -9.1240   -0.2020 C   0  0  0  0  0  0  0  0  0  0  0  0
   -7.0840   -4.1510   -9.8790 H   0  0  0  0  0  0  0  0  0  0  0  0
   -8.1590   -3.0650   -9.2930 H   0  0  0  0  0  0  0  0  0  0  0  0
   -8.2060   -4.3370   -5.5710 H   0  0  0  0  0  0  0  0  0  0  0  0
   -8.0410   -6.2530   -3.9260 H   0  0  0  0  0  0  0  0  0  0  0  0
   -6.8630   -6.8470   -8.7030 H   0  0  0  0  0  0  0  0  0  0  0  0
   -5.7470  -10.2950   -6.1850 H   0  0  0  0  0  0  0  0  0  0  0  0
   -7.1390  -10.8450   -7.0970 H   0  0  0  0  0  0  0  0  0  0  0  0
   -7.2840  -10.7780   -4.5500 H   0  0  0  0  0  0  0  0  0  0  0  0
   -8.6200  -10.0320   -5.4170 H   0  0  0  0  0  0  0  0  0  0  0  0
   -8.1690   -7.6640   -2.7110 H   0  0  0  0  0  0  0  0  0  0  0  0
   -8.9650   -9.0660   -3.2870 H   0  0  0  0  0  0  0  0  0  0  0  0
   -6.9240  -10.3530   -2.8170 H   0  0  0  0  0  0  0  0  0  0  0  0
   -7.9540   -9.8370   -1.5080 H   0  0  0  0  0  0  0  0  0  0  0  0
   -5.4720   -7.8310   -3.4800 H   0  0  0  0  0  0  0  0  0  0  0  0
   -3.3180   -6.7540   -2.5050 H   0  0  0  0  0  0  0  0  0  0  0  0
   -1.9880   -8.4030    1.7500 H   0  0  0  0  0  0  0  0  0  0  0  0
   -2.8570   -6.9750    2.1590 H   0  0  0  0  0  0  0  0  0  0  0  0
   -3.7480   -9.6910    1.9140 H   0  0  0  0  0  0  0  0  0  0  0  0
   -4.7280   -8.3720    2.3270 H   0  0  0  0  0  0  0  0  0  0  0  0
   -6.2300   -9.7580    0.4520 H   0  0  0  0  0  0  0  0  0  0  0  0
  1  2  1  0
  2  3  2  0
  2  4  1  0
  4  5  2  0
  5  6  1  0
  6  7  2  0
  7  8  1  0
  8  9  2  0
  8 10  1  0
 10 11  1  0
 11 12  1  0
 12 13  1  0
 13 14  1  0
 14 15  1  0
 15 16  1  0
 16 17  2  0
 17 18  1  0
 18 19  2  0
 19 20  1  0
 20 21  1  0
 21 22  1  0
 22 23  1  0
 23 24  2  0
  9  4  1  0
 13  7  1  0
 24 16  1  0
 23 19  1  0
  1 25  1  0
  1 26  1  0
  5 27  1  0
  6 28  1  0
  9 29  1  0
 11 30  1  0
 11 31  1  0
 12 32  1  0
 12 33  1  0
 14 34  1  0
 14 35  1  0
 15 36  1  0
 15 37  1  0
 17 38  1  0
 18 39  1  0
 21 40  1  0
 21 41  1  0
 22 42  1  0
 22 43  1  0
 24 44  1  0
A    1
 N1 
A    2
 C1 
A    3
 O1 
A    4
 C2 
A    5
 C3 
A    6
 C4 
A    7
 C5 
A    8
 C6 
A    9
 C7 
A   10
 O2 
A   11
 C8 
A   12
 C9 
A   13
 N2 
A   14
 C10
A   15
 C11
A   16
 C12
A   17
 C13
A   18
 C14
A   19
 C15
A   20
 O3 
A   21
 C16
A   22
 C17
A   23
 C18
A   24
 C19
A   25
 H1 
A   26
 H2 
A   27
 H3 
A   28
 H4 
A   29
 H5 
A   30
 H6 
A   31
 H7 
A   32
 H8 
A   33
 H9 
A   34
 H10
A   35
 H11
A   36
 H12
A   37
 H13
A   38
 H14
A   39
 H15
A   40
 H16
A   41
 H17
A   42
 H18
A   43
 H19
A   44
 H20
M  END
>  <ref_pdb>  (138) 
x0147_0A

>  <ref_mols>  (138) 
x0771_1A,x1140_0AS4

>  <original SMILES>  (138) 
[H]c1c([H])c(C([H])([H])C([H])([H])N2c3c([H])c([H])c(C(=O)N([H])[H])c([H])c3OC([H])([H])C2([H])[H])c([H])c2c1OC([H])([H])C2([H])[H]

>  <index>  (138) 
13381

>  <∆∆G>  (138) 
-5.165847

>  <comRMSD>  (138) 
0.620715

>  <N_constrained_atoms>  (138) 
21.0

>  <N_unconstrained_atoms>  (138) 
3.0

>  <LE>  (138) 
0.215244

>  <percent_hybrid>  (138) 
43.0

>  <max_hit_Tanimoto>  (138) 
0.369034

>  <largest_ring>  (138) 
6

>  <N_interactions_kept>  (138) 
2.5

>  <N_interactions_lost>  (138) 
1.5

>  <interaction_uniqueness_metric>  (138) 
0.235575

>  <N_HA>  (138) 
24

>  <N_rotatable_bonds>  (138) 
4

>  <N_interactions>  (138) 
5

>  <N_PAINS>  (138) 
0

>  <UFF_Gibbs>  (138) 
323.15996

>  <strain_per_HA>  (138) 
13.464942

>  <ad_hoc_penalty>  (138) 
-25.194822

>  <cluster>  (138) 
497

>  <ranked>  (138) 
162.0

>  <merger_rank>  (138) 
4

>  <hydroph_interaction:LEU:127>  (138) 
1

>  <hbond:GLY:128>  (138) 
0

>  <hydroph_interaction:ALA:144>  (138) 
0

>  <hbond:GLY:164>  (138) 
0

>  <hbond:HIS:40>  (138) 
0

>  <pistack:HIS:40>  (138) 
1

>  <hydroph_interaction:LEU:125>  (138) 
0

>  <hydroph_interaction:PHE:170>  (138) 
0

>  <hydroph_interaction:HIS:40>  (138) 
1

>  <pication:HIS:40>  (138) 
0

>  <hbond:THR:142>  (138) 
0

>  <hbond:HIS:161>  (138) 
1

>  <hbond:GLY:166>  (138) 
0

>  <hbond:VAL:162>  (138) 
0

>  <hydroph_interaction:ASN:165>  (138) 
0

>  <hbond:ASN:126>  (138) 
0

>  <hbond:ARG:143>  (138) 
0

>  <hbond:GLU:71>  (138) 
0

>  <saltbridge:HIS:161>  (138) 
0

>  <hbond:ALA:144>  (138) 
0

>  <hbond:GLY:145>  (138) 
1

>  <hbond:GLN:146>  (138) 
0

>  <hbond:CYS:147>  (138) 
0

>  <halogenbond:ASN:126>  (138) 
0

>  <saltbridge:HIS:40>  (138) 
0

>  <hbond:LEU:127>  (138) 
0

>  <hbond:THR:130>  (138) 
0

>  <hydroph_interaction:GLU:71>  (138) 
0

>  <hydroph_interaction:THR:130>  (138) 
0

>  <saltbridge:ARG:143>  (138) 
0

>  <saltbridge:GLU:71>  (138) 
0

>  <hbond:GLY:129>  (138) 
0

>  <halogenbond:CYS:147>  (138) 
0

>  <hydroph_interaction:THR:39>  (138) 
0

>  <hbond:ASN:69>  (138) 
0

>  <hydroph_interaction:THR:132>  (138) 
0

>  <hbond:TYR:122>  (138) 
0

>  <hydroph_interaction:PHE:109>  (138) 
0

>  <hydroph_interaction:PHE:140>  (138) 
0

>  <hbond:PRO:141>  (138) 
0

$$$$
Z1258036417-x1919-0AS2
     RDKit          3D

 41 43  0  0  0  0  0  0  0  0999 V2000
   -5.6950   -4.6050   -3.2750 O   0  0  0  0  0  0  0  0  0  0  0  0
   -6.6890   -5.2430   -2.9910 C   0  0  0  0  0  0  0  0  0  0  0  0
   -7.7450   -4.6990   -2.3370 N   0  0  0  0  0  0  0  0  0  0  0  0
   -8.7690   -4.1190   -3.1830 C   0  0  0  0  0  0  0  0  0  0  0  0
   -9.2620   -5.0520   -4.1630 C   0  0  0  0  0  0  0  0  0  0  0  0
   -8.7210   -4.9720   -5.4940 C   0  0  0  0  0  0  0  0  0  0  0  0
   -7.9180   -6.0020   -5.9910 C   0  0  0  0  0  0  0  0  0  0  0  0
   -7.3260   -5.9230   -7.3680 C   0  0  0  0  0  0  0  0  0  0  0  0
   -7.5620   -4.7340   -8.2880 C   0  0  0  0  0  0  0  0  0  0  0  0
   -7.0110   -4.6390   -9.5310 O   0  0  0  0  0  0  0  0  0  0  0  0
   -8.3910   -3.6940   -7.8090 C   0  0  0  0  0  0  0  0  0  0  0  0
   -8.9500   -3.8750   -6.3740 C   0  0  0  0  0  0  0  0  0  0  0  0
   -6.9280   -6.5640   -3.2860 N   0  0  0  0  0  0  0  0  0  0  0  0
   -5.8050   -7.5240   -3.3810 C   0  0  0  0  0  0  0  0  0  0  0  0
   -5.2490   -7.8760   -2.0290 C   0  0  0  0  0  0  0  0  0  0  0  0
   -5.9560   -8.7260   -1.1520 C   0  0  0  0  0  0  0  0  0  0  0  0
   -5.4800   -9.0710    0.1160 C   0  0  0  0  0  0  0  0  0  0  0  0
   -4.2670   -8.5530    0.5240 C   0  0  0  0  0  0  0  0  0  0  0  0
   -3.5650   -8.7050    1.6820 C   0  0  0  0  0  0  0  0  0  0  0  0
   -2.3090   -7.9140    1.5870 C   0  0  0  0  0  0  0  0  0  0  0  0
   -2.3450   -7.3290    0.3430 O   0  0  0  0  0  0  0  0  0  0  0  0
   -3.5180   -7.7190   -0.2760 C   0  0  0  0  0  0  0  0  0  0  0  0
   -4.0100   -7.3310   -1.6560 C   0  0  0  0  0  0  0  0  0  0  0  0
   -7.5250   -4.2170   -1.4820 H   0  0  0  0  0  0  0  0  0  0  0  0
   -9.4830   -3.6960   -2.4790 H   0  0  0  0  0  0  0  0  0  0  0  0
   -8.3490   -3.2540   -3.7020 H   0  0  0  0  0  0  0  0  0  0  0  0
  -10.3430   -5.1460   -4.1560 H   0  0  0  0  0  0  0  0  0  0  0  0
   -8.9100   -6.0150   -3.7840 H   0  0  0  0  0  0  0  0  0  0  0  0
   -7.7070   -6.8750   -5.3820 H   0  0  0  0  0  0  0  0  0  0  0  0
   -6.6950   -6.7500   -7.7160 H   0  0  0  0  0  0  0  0  0  0  0  0
   -7.4680   -5.2730  -10.1260 H   0  0  0  0  0  0  0  0  0  0  0  0
   -8.6270   -2.8090   -8.3910 H   0  0  0  0  0  0  0  0  0  0  0  0
   -9.5690   -3.0130   -6.0950 H   0  0  0  0  0  0  0  0  0  0  0  0
   -7.7770   -6.9340   -2.8830 H   0  0  0  0  0  0  0  0  0  0  0  0
   -5.0390   -7.1030   -4.0370 H   0  0  0  0  0  0  0  0  0  0  0  0
   -6.1750   -8.4560   -3.8240 H   0  0  0  0  0  0  0  0  0  0  0  0
   -6.9250   -9.1740   -1.3960 H   0  0  0  0  0  0  0  0  0  0  0  0
   -6.0950   -9.7370    0.7290 H   0  0  0  0  0  0  0  0  0  0  0  0
   -3.8670   -9.3030    2.5320 H   0  0  0  0  0  0  0  0  0  0  0  0
   -1.4530   -7.7170    2.2170 H   0  0  0  0  0  0  0  0  0  0  0  0
   -3.4460   -6.6780   -2.3060 H   0  0  0  0  0  0  0  0  0  0  0  0
  1  2  2  0
  2  3  1  0
  3  4  1  0
  4  5  1  0
  5  6  1  0
  6  7  2  0
  7  8  1  0
  8  9  2  0
  9 10  1  0
  9 11  1  0
 11 12  2  0
  2 13  1  0
 13 14  1  0
 14 15  1  0
 15 16  2  0
 16 17  1  0
 17 18  2  0
 18 19  1  0
 19 20  2  0
 20 21  1  0
 21 22  1  0
 22 23  2  0
 12  6  1  0
 23 15  1  0
 22 18  1  0
  3 24  1  0
  4 25  1  0
  4 26  1  0
  5 27  1  0
  5 28  1  0
  7 29  1  0
  8 30  1  0
 10 31  1  0
 11 32  1  0
 12 33  1  0
 13 34  1  0
 14 35  1  0
 14 36  1  0
 16 37  1  0
 17 38  1  0
 19 39  1  0
 20 40  1  0
 23 41  1  0
A    1
 O1 
A    2
 C1 
A    3
 N1 
A    4
 C2 
A    5
 C3 
A    6
 C4 
A    7
 C5 
A    8
 C6 
A    9
 C7 
A   10
 O2 
A   11
 C8 
A   12
 C9 
A   13
 N2 
A   14
 C10
A   15
 C11
A   16
 C12
A   17
 C13
A   18
 C14
A   19
 C15
A   20
 C16
A   21
 O3 
A   22
 C17
A   23
 C18
A   24
 H1 
A   25
 H2 
A   26
 H3 
A   27
 H4 
A   28
 H5 
A   29
 H6 
A   30
 H7 
A   31
 H8 
A   32
 H9 
A   33
 H10
A   34
 H11
A   35
 H12
A   36
 H13
A   37
 H14
A   38
 H15
A   39
 H16
A   40
 H17
A   41
 H18
M  END
>  <ref_pdb>  (139) 
x0147_0A

>  <ref_mols>  (139) 
x1919_0AS2,x1498_0A

>  <original SMILES>  (139) 
[H]Oc1c([H])c([H])c(C([H])([H])C([H])([H])N([H])C(=O)N([H])C([H])([H])c2c([H])c([H])c3c([H])c([H])oc3c2[H])c([H])c1[H]

>  <index>  (139) 
3699

>  <∆∆G>  (139) 
-7.207423

>  <comRMSD>  (139) 
0.903871

>  <N_constrained_atoms>  (139) 
23.0

>  <N_unconstrained_atoms>  (139) 
0.0

>  <LE>  (139) 
0.313366

>  <percent_hybrid>  (139) 
31.0

>  <max_hit_Tanimoto>  (139) 
0.223629

>  <largest_ring>  (139) 
6

>  <N_interactions_kept>  (139) 
1.5

>  <N_interactions_lost>  (139) 
2.5

>  <interaction_uniqueness_metric>  (139) 
0.091508

>  <N_HA>  (139) 
23

>  <N_rotatable_bonds>  (139) 
6

>  <N_interactions>  (139) 
5

>  <N_PAINS>  (139) 
0

>  <UFF_Gibbs>  (139) 
150.831195

>  <strain_per_HA>  (139) 
6.55785

>  <ad_hoc_penalty>  (139) 
-25.033052

>  <cluster>  (139) 
1514

>  <ranked>  (139) 
165.0

>  <merger_rank>  (139) 
3

>  <hydroph_interaction:LEU:127>  (139) 
1

>  <hbond:GLY:128>  (139) 
0

>  <hydroph_interaction:ALA:144>  (139) 
0

>  <hbond:GLY:164>  (139) 
1

>  <hbond:HIS:40>  (139) 
0

>  <pistack:HIS:40>  (139) 
1

>  <hydroph_interaction:LEU:125>  (139) 
0

>  <hydroph_interaction:PHE:170>  (139) 
0

>  <hydroph_interaction:HIS:40>  (139) 
1

>  <pication:HIS:40>  (139) 
0

>  <hbond:THR:142>  (139) 
1

>  <hbond:HIS:161>  (139) 
0

>  <hbond:GLY:166>  (139) 
0

>  <hbond:VAL:162>  (139) 
0

>  <hydroph_interaction:ASN:165>  (139) 
0

>  <hbond:ASN:126>  (139) 
0

>  <hbond:ARG:143>  (139) 
0

>  <hbond:GLU:71>  (139) 
0

>  <saltbridge:HIS:161>  (139) 
0

>  <hbond:ALA:144>  (139) 
0

>  <hbond:GLY:145>  (139) 
0

>  <hbond:GLN:146>  (139) 
0

>  <hbond:CYS:147>  (139) 
0

>  <halogenbond:ASN:126>  (139) 
0

>  <saltbridge:HIS:40>  (139) 
0

>  <hbond:LEU:127>  (139) 
0

>  <hbond:THR:130>  (139) 
0

>  <hydroph_interaction:GLU:71>  (139) 
0

>  <hydroph_interaction:THR:130>  (139) 
0

>  <saltbridge:ARG:143>  (139) 
0

>  <saltbridge:GLU:71>  (139) 
0

>  <hbond:GLY:129>  (139) 
0

>  <halogenbond:CYS:147>  (139) 
0

>  <hydroph_interaction:THR:39>  (139) 
0

>  <hbond:ASN:69>  (139) 
0

>  <hydroph_interaction:THR:132>  (139) 
0

>  <hbond:TYR:122>  (139) 
0

>  <hydroph_interaction:PHE:109>  (139) 
0

>  <hydroph_interaction:PHE:140>  (139) 
0

>  <hbond:PRO:141>  (139) 
0

$$$$
PV-002223823180-x2099-0A
     RDKit          3D

 43 45  0  0  0  0  0  0  0  0999 V2000
   -6.7810   -4.4630   -3.2250 C   0  0  0  0  0  0  0  0  0  0  0  0
   -6.4280   -5.5420   -2.1920 C   0  0  0  0  0  0  0  0  0  0  0  0
   -6.4520   -5.1000   -0.8180 N   0  0  0  0  0  0  0  0  0  0  0  0
   -6.1080   -6.2290   -0.0890 O   0  0  0  0  0  0  0  0  0  0  0  0
   -5.8910   -7.2880   -1.0010 C   0  0  0  0  0  0  0  0  0  0  0  0
   -6.0860   -6.9120   -2.2920 C   0  0  0  0  0  0  0  0  0  0  0  0
   -5.9430   -7.8720   -3.4580 C   0  0  0  0  0  0  0  0  0  0  0  0
   -7.2080   -8.0950   -3.9810 N   0  0  0  0  0  0  0  0  0  0  0  0
   -7.6430   -7.1740   -5.0020 C   0  0  0  0  0  0  0  0  0  0  0  0
   -6.5910   -7.0330   -6.0120 C   0  0  0  0  0  0  0  0  0  0  0  0
   -6.8530   -6.1210   -7.1810 C   0  0  0  0  0  0  0  0  0  0  0  0
   -8.1180   -5.3810   -7.2040 C   0  0  0  0  0  0  0  0  0  0  0  0
   -8.2100   -4.4520   -8.3520 C   0  0  0  0  0  0  0  0  0  0  0  0
   -7.3670   -4.4630   -9.2490 O   0  0  0  0  0  0  0  0  0  0  0  0
   -9.2610   -3.5980   -8.2320 N   0  0  0  0  0  0  0  0  0  0  0  0
   -9.2520   -2.8720   -7.1130 C   0  0  0  0  0  0  0  0  0  0  0  0
  -10.4840   -2.4340   -6.6630 C   0  0  0  0  0  0  0  0  0  0  0  0
  -11.5460   -2.3300   -7.5440 C   0  0  0  0  0  0  0  0  0  0  0  0
  -12.8870   -1.8280   -7.0700 C   0  0  0  0  0  0  0  0  0  0  0  0
  -12.9610   -1.4730   -5.6360 C   0  0  0  0  0  0  0  0  0  0  0  0
  -11.8440   -1.6130   -4.8090 C   0  0  0  0  0  0  0  0  0  0  0  0
  -10.6340   -2.0840   -5.3130 C   0  0  0  0  0  0  0  0  0  0  0  0
   -9.0640   -5.5720   -6.1990 C   0  0  0  0  0  0  0  0  0  0  0  0
   -8.8300   -6.4570   -5.1290 C   0  0  0  0  0  0  0  0  0  0  0  0
   -7.8360   -4.1860   -3.1600 H   0  0  0  0  0  0  0  0  0  0  0  0
   -6.1860   -3.5590   -3.0460 H   0  0  0  0  0  0  0  0  0  0  0  0
   -6.5700   -4.7770   -4.2540 H   0  0  0  0  0  0  0  0  0  0  0  0
   -5.6050   -8.2980   -0.6730 H   0  0  0  0  0  0  0  0  0  0  0  0
   -5.5540   -8.8210   -3.0640 H   0  0  0  0  0  0  0  0  0  0  0  0
   -5.2740   -7.6030   -4.2730 H   0  0  0  0  0  0  0  0  0  0  0  0
   -7.3410   -9.0610   -4.2450 H   0  0  0  0  0  0  0  0  0  0  0  0
   -5.6590   -7.5370   -5.9440 H   0  0  0  0  0  0  0  0  0  0  0  0
   -6.1170   -5.9770   -7.9810 H   0  0  0  0  0  0  0  0  0  0  0  0
   -9.5440   -3.0980   -9.0760 H   0  0  0  0  0  0  0  0  0  0  0  0
   -8.6780   -1.9980   -7.3930 H   0  0  0  0  0  0  0  0  0  0  0  0
   -8.7080   -3.3730   -6.3070 H   0  0  0  0  0  0  0  0  0  0  0  0
  -11.4150   -2.6070   -8.5880 H   0  0  0  0  0  0  0  0  0  0  0  0
  -13.7390   -1.7320   -7.7390 H   0  0  0  0  0  0  0  0  0  0  0  0
  -13.8940   -1.1020   -5.2240 H   0  0  0  0  0  0  0  0  0  0  0  0
  -11.9200   -1.3480   -3.7570 H   0  0  0  0  0  0  0  0  0  0  0  0
   -9.7900   -2.1730   -4.6340 H   0  0  0  0  0  0  0  0  0  0  0  0
  -10.0050   -5.0330   -6.2170 H   0  0  0  0  0  0  0  0  0  0  0  0
   -9.6160   -6.5550   -4.3870 H   0  0  0  0  0  0  0  0  0  0  0  0
  1  2  1  0
  2  3  2  0
  3  4  1  0
  4  5  1  0
  5  6  2  0
  6  7  1  0
  7  8  1  0
  8  9  1  0
  9 10  2  0
 10 11  1  0
 11 12  2  0
 12 13  1  0
 13 14  2  0
 13 15  1  0
 15 16  1  0
 16 17  1  0
 17 18  2  0
 18 19  1  0
 19 20  2  0
 20 21  1  0
 21 22  2  0
 12 23  1  0
 23 24  2  0
  6  2  1  0
 24  9  1  0
 22 17  1  0
  1 25  1  0
  1 26  1  0
  1 27  1  0
  5 28  1  0
  7 29  1  0
  7 30  1  0
  8 31  1  0
 10 32  1  0
 11 33  1  0
 15 34  1  0
 16 35  1  0
 16 36  1  0
 18 37  1  0
 19 38  1  0
 20 39  1  0
 21 40  1  0
 22 41  1  0
 23 42  1  0
 24 43  1  0
A    1
 C1 
A    2
 C2 
A    3
 N1 
A    4
 O1 
A    5
 C3 
A    6
 C4 
A    7
 C5 
A    8
 N2 
A    9
 C6 
A   10
 C7 
A   11
 C8 
A   12
 C9 
A   13
 C10
A   14
 O2 
A   15
 N3 
A   16
 C11
A   17
 C12
A   18
 C13
A   19
 C14
A   20
 C15
A   21
 C16
A   22
 C17
A   23
 C18
A   24
 C19
A   25
 H1 
A   26
 H2 
A   27
 H3 
A   28
 H4 
A   29
 H5 
A   30
 H6 
A   31
 H7 
A   32
 H8 
A   33
 H9 
A   34
 H10
A   35
 H11
A   36
 H12
A   37
 H13
A   38
 H14
A   39
 H15
A   40
 H16
A   41
 H17
A   42
 H18
A   43
 H19
M  END
>  <ref_pdb>  (140) 
x0147_0A

>  <ref_mols>  (140) 
x2099_0A,x1052_1AS3

>  <original SMILES>  (140) 
[H]c1onc(C([H])([H])[H])c1C([H])([H])N([H])c1c([H])c([H])c(C(=O)N([H])C([H])([H])c2c([H])c([H])c([H])c([H])c2[H])c([H])c1[H]

>  <index>  (140) 
3580

>  <∆∆G>  (140) 
-7.211442

>  <comRMSD>  (140) 
0.779719

>  <N_constrained_atoms>  (140) 
23.0

>  <N_unconstrained_atoms>  (140) 
3.0

>  <LE>  (140) 
0.277363

>  <percent_hybrid>  (140) 
27.0

>  <max_hit_Tanimoto>  (140) 
0.16629

>  <largest_ring>  (140) 
6

>  <N_interactions_kept>  (140) 
1.5

>  <N_interactions_lost>  (140) 
0.5

>  <interaction_uniqueness_metric>  (140) 
0.048989

>  <N_HA>  (140) 
24

>  <N_rotatable_bonds>  (140) 
7

>  <N_interactions>  (140) 
2

>  <N_PAINS>  (140) 
0

>  <UFF_Gibbs>  (140) 
172.363906

>  <strain_per_HA>  (140) 
7.1818

>  <ad_hoc_penalty>  (140) 
-24.771473

>  <cluster>  (140) 
1517

>  <ranked>  (140) 
170.0

>  <merger_rank>  (140) 
1

>  <hydroph_interaction:LEU:127>  (140) 
1

>  <hbond:GLY:128>  (140) 
0

>  <hydroph_interaction:ALA:144>  (140) 
0

>  <hbond:GLY:164>  (140) 
0

>  <hbond:HIS:40>  (140) 
0

>  <pistack:HIS:40>  (140) 
0

>  <hydroph_interaction:LEU:125>  (140) 
0

>  <hydroph_interaction:PHE:170>  (140) 
0

>  <hydroph_interaction:HIS:40>  (140) 
0

>  <pication:HIS:40>  (140) 
0

>  <hbond:THR:142>  (140) 
1

>  <hbond:HIS:161>  (140) 
0

>  <hbond:GLY:166>  (140) 
0

>  <hbond:VAL:162>  (140) 
0

>  <hydroph_interaction:ASN:165>  (140) 
0

>  <hbond:ASN:126>  (140) 
0

>  <hbond:ARG:143>  (140) 
0

>  <hbond:GLU:71>  (140) 
0

>  <saltbridge:HIS:161>  (140) 
0

>  <hbond:ALA:144>  (140) 
0

>  <hbond:GLY:145>  (140) 
0

>  <hbond:GLN:146>  (140) 
0

>  <hbond:CYS:147>  (140) 
0

>  <halogenbond:ASN:126>  (140) 
0

>  <saltbridge:HIS:40>  (140) 
0

>  <hbond:LEU:127>  (140) 
0

>  <hbond:THR:130>  (140) 
0

>  <hydroph_interaction:GLU:71>  (140) 
0

>  <hydroph_interaction:THR:130>  (140) 
0

>  <saltbridge:ARG:143>  (140) 
0

>  <saltbridge:GLU:71>  (140) 
0

>  <hbond:GLY:129>  (140) 
0

>  <halogenbond:CYS:147>  (140) 
0

>  <hydroph_interaction:THR:39>  (140) 
0

>  <hbond:ASN:69>  (140) 
0

>  <hydroph_interaction:THR:132>  (140) 
0

>  <hbond:TYR:122>  (140) 
0

>  <hydroph_interaction:PHE:109>  (140) 
0

>  <hydroph_interaction:PHE:140>  (140) 
0

>  <hbond:PRO:141>  (140) 
0

$$$$
PV-005618577947-x1071-0AS4
     RDKit          3D

 35 36  0  0  0  0  0  0  0  0999 V2000
   -6.3900   -3.2060   -2.2270 N   0  0  0  0  0  0  0  0  0  0  0  0
   -6.6050   -4.5130   -2.8170 C   0  0  0  0  0  0  0  0  0  0  0  0
   -7.1290   -4.4330   -4.0750 N   0  0  0  0  0  0  0  0  0  0  0  0
   -7.4230   -5.7330   -4.7020 C   0  0  0  0  0  0  0  0  0  0  0  0
   -8.5920   -5.6430   -5.6390 C   0  0  0  0  0  0  0  0  0  0  0  0
   -8.1900   -5.0310   -6.8770 N   0  0  0  0  0  0  0  0  0  0  0  0
   -8.5640   -3.7850   -7.3350 C   0  0  0  0  0  0  0  0  0  0  0  0
   -7.9290   -3.6630   -8.5120 C   0  0  0  0  0  0  0  0  0  0  0  0
   -7.1190   -4.9080   -8.7920 C   0  0  0  0  0  0  0  0  0  0  0  0
   -7.3100   -5.7380   -7.7480 N   0  0  0  0  0  0  0  0  0  0  0  0
   -6.2800   -5.6280   -2.0770 N   0  0  0  0  0  0  0  0  0  0  0  0
   -7.1550   -5.9820   -0.9650 C   0  0  0  0  0  0  0  0  0  0  0  0
   -6.4760   -7.1590   -0.2850 C   0  0  0  0  0  0  0  0  0  0  0  0
   -5.1010   -7.2830   -0.5300 C   0  0  0  0  0  0  0  0  0  0  0  0
   -4.8170   -7.4430   -1.9010 C   0  0  0  0  0  0  0  0  0  0  0  0
   -5.7360   -6.8200   -2.7490 C   0  0  0  0  0  0  0  0  0  0  0  0
   -6.1110   -3.2100   -1.2580 H   0  0  0  0  0  0  0  0  0  0  0  0
   -7.2620   -2.6800   -2.2770 H   0  0  0  0  0  0  0  0  0  0  0  0
   -6.5490   -6.1270   -5.2300 H   0  0  0  0  0  0  0  0  0  0  0  0
   -7.6320   -6.4610   -3.9140 H   0  0  0  0  0  0  0  0  0  0  0  0
   -9.4070   -5.0430   -5.2260 H   0  0  0  0  0  0  0  0  0  0  0  0
   -8.9750   -6.6370   -5.8720 H   0  0  0  0  0  0  0  0  0  0  0  0
   -9.2060   -2.9910   -6.9350 H   0  0  0  0  0  0  0  0  0  0  0  0
   -8.0390   -2.7600   -9.1150 H   0  0  0  0  0  0  0  0  0  0  0  0
   -6.5000   -5.0960   -9.6770 H   0  0  0  0  0  0  0  0  0  0  0  0
   -7.2250   -5.1210   -0.3020 H   0  0  0  0  0  0  0  0  0  0  0  0
   -8.1520   -6.1450   -1.3690 H   0  0  0  0  0  0  0  0  0  0  0  0
   -6.8950   -8.0690   -0.7310 H   0  0  0  0  0  0  0  0  0  0  0  0
   -6.7510   -7.2870    0.7610 H   0  0  0  0  0  0  0  0  0  0  0  0
   -4.5300   -6.4770   -0.0850 H   0  0  0  0  0  0  0  0  0  0  0  0
   -4.6670   -8.1070    0.0350 H   0  0  0  0  0  0  0  0  0  0  0  0
   -4.7130   -8.4970   -2.1540 H   0  0  0  0  0  0  0  0  0  0  0  0
   -3.8070   -7.1160   -2.1380 H   0  0  0  0  0  0  0  0  0  0  0  0
   -5.3830   -6.5190   -3.7320 H   0  0  0  0  0  0  0  0  0  0  0  0
   -6.5560   -7.5260   -2.9350 H   0  0  0  0  0  0  0  0  0  0  0  0
  1  2  1  0
  2  3  2  3
  3  4  1  0
  4  5  1  0
  5  6  1  0
  6  7  1  0
  7  8  2  0
  8  9  1  0
  9 10  2  0
  2 11  1  0
 11 12  1  0
 12 13  1  0
 13 14  1  0
 14 15  1  0
 15 16  1  0
 10  6  1  0
 16 11  1  0
  1 17  1  0
  1 18  1  0
  4 19  1  0
  4 20  1  0
  5 21  1  0
  5 22  1  0
  7 23  1  0
  8 24  1  0
  9 25  1  0
 12 26  1  0
 12 27  1  0
 13 28  1  0
 13 29  1  0
 14 30  1  0
 14 31  1  0
 15 32  1  0
 15 33  1  0
 16 34  1  0
 16 35  1  0
A    1
 N1 
A    2
 C1 
A    3
 N2 
A    4
 C2 
A    5
 C3 
A    6
 N3 
A    7
 C4 
A    8
 C5 
A    9
 C6 
A   10
 N4 
A   11
 N5 
A   12
 C7 
A   13
 C8 
A   14
 C9 
A   15
 C10
A   16
 C11
A   17
 H1 
A   18
 H2 
A   19
 H3 
A   20
 H4 
A   21
 H5 
A   22
 H6 
A   23
 H7 
A   24
 H8 
A   25
 H9 
A   26
 H10
A   27
 H11
A   28
 H12
A   29
 H13
A   30
 H14
A   31
 H15
A   32
 H16
A   33
 H17
A   34
 H18
A   35
 H19
M  END
>  <ref_pdb>  (141) 
x0147_0A

>  <ref_mols>  (141) 
x1071_0AS4,x1537_0A

>  <original SMILES>  (141) 
[H]c1nn(C([H])([H])C([H])([H])N=C(N([H])[H])N2C([H])([H])C([H])([H])C([H])([H])C([H])([H])C2([H])[H])c([H])c1[H]

>  <index>  (141) 
7531

>  <∆∆G>  (141) 
-4.813786

>  <comRMSD>  (141) 
0.375285

>  <N_constrained_atoms>  (141) 
15.0

>  <N_unconstrained_atoms>  (141) 
2.0

>  <LE>  (141) 
0.283164

>  <percent_hybrid>  (141) 
40.0

>  <max_hit_Tanimoto>  (141) 
0.152778

>  <largest_ring>  (141) 
6

>  <N_interactions_kept>  (141) 
1.5

>  <N_interactions_lost>  (141) 
1.0

>  <interaction_uniqueness_metric>  (141) 
0.031429

>  <N_HA>  (141) 
16

>  <N_rotatable_bonds>  (141) 
3

>  <N_interactions>  (141) 
4

>  <N_PAINS>  (141) 
0

>  <UFF_Gibbs>  (141) 
130.259666

>  <strain_per_HA>  (141) 
8.141178

>  <ad_hoc_penalty>  (141) 
-24.709114

>  <cluster>  (141) 
5570

>  <ranked>  (141) 
171.0

>  <merger_rank>  (141) 
1

>  <hydroph_interaction:LEU:127>  (141) 
0

>  <hbond:GLY:128>  (141) 
1

>  <hydroph_interaction:ALA:144>  (141) 
0

>  <hbond:GLY:164>  (141) 
3

>  <hbond:HIS:40>  (141) 
0

>  <pistack:HIS:40>  (141) 
0

>  <hydroph_interaction:LEU:125>  (141) 
0

>  <hydroph_interaction:PHE:170>  (141) 
0

>  <hydroph_interaction:HIS:40>  (141) 
0

>  <pication:HIS:40>  (141) 
0

>  <hbond:THR:142>  (141) 
0

>  <hbond:HIS:161>  (141) 
0

>  <hbond:GLY:166>  (141) 
0

>  <hbond:VAL:162>  (141) 
0

>  <hydroph_interaction:ASN:165>  (141) 
0

>  <hbond:ASN:126>  (141) 
0

>  <hbond:ARG:143>  (141) 
0

>  <hbond:GLU:71>  (141) 
0

>  <saltbridge:HIS:161>  (141) 
0

>  <hbond:ALA:144>  (141) 
0

>  <hbond:GLY:145>  (141) 
0

>  <hbond:GLN:146>  (141) 
0

>  <hbond:CYS:147>  (141) 
0

>  <halogenbond:ASN:126>  (141) 
0

>  <saltbridge:HIS:40>  (141) 
0

>  <hbond:LEU:127>  (141) 
0

>  <hbond:THR:130>  (141) 
0

>  <hydroph_interaction:GLU:71>  (141) 
0

>  <hydroph_interaction:THR:130>  (141) 
0

>  <saltbridge:ARG:143>  (141) 
0

>  <saltbridge:GLU:71>  (141) 
0

>  <hbond:GLY:129>  (141) 
0

>  <halogenbond:CYS:147>  (141) 
0

>  <hydroph_interaction:THR:39>  (141) 
0

>  <hbond:ASN:69>  (141) 
0

>  <hydroph_interaction:THR:132>  (141) 
0

>  <hbond:TYR:122>  (141) 
0

>  <hydroph_interaction:PHE:109>  (141) 
0

>  <hydroph_interaction:PHE:140>  (141) 
0

>  <hbond:PRO:141>  (141) 
0

$$$$
Z1304874440-x1329-0A
     RDKit          3D

 47 48  0  0  0  0  0  0  0  0999 V2000
   -4.0120   -7.3020    1.5370 C   0  0  0  0  0  0  0  0  0  0  0  0
   -5.3120   -7.5300    0.9780 O   0  0  0  0  0  0  0  0  0  0  0  0
   -5.3690   -8.5760    0.1050 C   0  0  0  0  0  0  0  0  0  0  0  0
   -5.2610   -9.7530    0.4240 O   0  0  0  0  0  0  0  0  0  0  0  0
   -5.5780   -8.0960   -1.3230 C   0  0  1  0  0  0  0  0  0  0  0  0
   -6.3730   -8.9730   -2.0750 C   0  0  0  0  0  0  0  0  0  0  0  0
   -6.7020   -8.5180   -3.3490 C   0  0  0  0  0  0  0  0  0  0  0  0
   -7.4890   -7.3710   -3.3380 C   0  0  0  0  0  0  0  0  0  0  0  0
   -6.8650   -6.3110   -2.5350 N   0  0  0  0  0  0  0  0  0  0  0  0
   -7.0310   -4.8820   -2.9160 C   0  0  0  0  0  0  0  0  0  0  0  0
   -6.2650   -4.2570   -3.9330 O   0  0  0  0  0  0  0  0  0  0  0  0
   -8.0800   -4.1260   -2.2050 N   0  0  0  0  0  0  0  0  0  0  0  0
   -9.2780   -3.7120   -2.8210 C   0  0  0  0  0  0  0  0  0  0  0  0
   -9.4550   -4.0890   -4.3010 C   0  0  0  0  0  0  0  0  0  0  0  0
  -10.6750   -4.0150   -4.9230 N   0  0  0  0  0  0  0  0  0  0  0  0
  -10.7130   -4.1490   -6.2720 C   0  0  0  0  0  0  0  0  0  0  0  0
  -11.8980   -4.1410   -6.9660 O   0  0  0  0  0  0  0  0  0  0  0  0
   -9.4620   -4.2880   -7.0920 C   0  0  0  0  0  0  0  0  0  0  0  0
   -8.5750   -5.5220   -7.0870 C   0  0  0  0  0  0  0  0  0  0  0  0
   -7.4440   -5.5900   -7.8620 C   0  0  0  0  0  0  0  0  0  0  0  0
   -7.1200   -4.3920   -8.7190 C   0  0  0  0  0  0  0  0  0  0  0  0
   -7.9680   -3.2870   -8.6810 C   0  0  0  0  0  0  0  0  0  0  0  0
   -9.0980   -3.2310   -7.8990 C   0  0  0  0  0  0  0  0  0  0  0  0
   -6.2590   -6.7090   -1.2450 C   0  0  0  0  0  0  0  0  0  0  0  0
   -3.4130   -6.6380    0.9020 H   0  0  0  0  0  0  0  0  0  0  0  0
   -4.1260   -6.8390    2.5260 H   0  0  0  0  0  0  0  0  0  0  0  0
   -3.4510   -8.2360    1.6420 H   0  0  0  0  0  0  0  0  0  0  0  0
   -4.6480   -7.8540   -1.8390 H   0  0  0  0  0  0  0  0  0  0  0  0
   -7.2090   -9.3730   -1.5040 H   0  0  0  0  0  0  0  0  0  0  0  0
   -5.7450   -9.8560   -2.2330 H   0  0  0  0  0  0  0  0  0  0  0  0
   -7.0690   -9.2760   -4.0330 H   0  0  0  0  0  0  0  0  0  0  0  0
   -5.7380   -8.2180   -3.7780 H   0  0  0  0  0  0  0  0  0  0  0  0
   -8.4330   -7.6270   -2.8480 H   0  0  0  0  0  0  0  0  0  0  0  0
   -7.7550   -6.9170   -4.2900 H   0  0  0  0  0  0  0  0  0  0  0  0
   -7.6400   -3.4100   -1.6290 H   0  0  0  0  0  0  0  0  0  0  0  0
  -10.0610   -4.2360   -2.2600 H   0  0  0  0  0  0  0  0  0  0  0  0
   -9.3860   -2.6610   -2.5690 H   0  0  0  0  0  0  0  0  0  0  0  0
   -8.8170   -3.3920   -4.8570 H   0  0  0  0  0  0  0  0  0  0  0  0
   -9.1020   -5.0920   -4.5780 H   0  0  0  0  0  0  0  0  0  0  0  0
  -11.3820   -3.4630   -4.4550 H   0  0  0  0  0  0  0  0  0  0  0  0
   -8.8150   -6.3900   -6.4660 H   0  0  0  0  0  0  0  0  0  0  0  0
   -6.7540   -6.4430   -7.9160 H   0  0  0  0  0  0  0  0  0  0  0  0
   -6.2430   -4.3820   -9.3550 H   0  0  0  0  0  0  0  0  0  0  0  0
   -7.7680   -2.4220   -9.2700 H   0  0  0  0  0  0  0  0  0  0  0  0
   -9.7060   -2.3280   -7.9300 H   0  0  0  0  0  0  0  0  0  0  0  0
   -5.5450   -5.9310   -0.9870 H   0  0  0  0  0  0  0  0  0  0  0  0
   -7.0060   -6.7070   -0.4430 H   0  0  0  0  0  0  0  0  0  0  0  0
  1  2  1  0
  2  3  1  0
  3  4  2  0
  3  5  1  0
  5  6  1  0
  6  7  1  0
  7  8  1  0
  8  9  1  0
  9 10  1  0
 10 11  2  0
 10 12  1  0
 12 13  1  0
 13 14  1  0
 14 15  1  0
 15 16  1  0
 16 17  2  0
 16 18  1  0
 18 19  2  0
 19 20  1  0
 20 21  2  0
 21 22  1  0
 22 23  2  0
  9 24  1  0
 24  5  1  0
 23 18  1  0
  1 25  1  0
  1 26  1  0
  1 27  1  0
  5 28  1  6
  6 29  1  0
  6 30  1  0
  7 31  1  0
  7 32  1  0
  8 33  1  0
  8 34  1  0
 12 35  1  0
 13 36  1  0
 13 37  1  0
 14 38  1  0
 14 39  1  0
 15 40  1  0
 19 41  1  0
 20 42  1  0
 21 43  1  0
 22 44  1  0
 23 45  1  0
 24 46  1  0
 24 47  1  0
A    1
 C1 
A    2
 O1 
A    3
 C2 
A    4
 O2 
A    5
 C3 
A    6
 C4 
A    7
 C5 
A    8
 C6 
A    9
 N1 
A   10
 C7 
A   11
 O3 
A   12
 N2 
A   13
 C8 
A   14
 C9 
A   15
 N3 
A   16
 C10
A   17
 O4 
A   18
 C11
A   19
 C12
A   20
 C13
A   21
 C14
A   22
 C15
A   23
 C16
A   24
 C17
A   25
 H1 
A   26
 H2 
A   27
 H3 
A   28
 H4 
A   29
 H5 
A   30
 H6 
A   31
 H7 
A   32
 H8 
A   33
 H9 
A   34
 H10
A   35
 H11
A   36
 H12
A   37
 H13
A   38
 H14
A   39
 H15
A   40
 H16
A   41
 H17
A   42
 H18
A   43
 H19
A   44
 H20
A   45
 H21
A   46
 H22
A   47
 H23
M  END
>  <ref_pdb>  (142) 
x0147_0A

>  <ref_mols>  (142) 
x1329_0A,x0980_0BS4

>  <original SMILES>  (142) 
[H]c1c([H])c([H])c(C(=O)N([H])C([H])([H])C([H])([H])N([H])C(=O)N2C([H])([H])C([H])([H])C([H])([H])[C@]([H])(C(=O)OC([H])([H])[H])C2([H])[H])c([H])c1[H]

>  <index>  (142) 
8272

>  <∆∆G>  (142) 
-7.244152

>  <comRMSD>  (142) 
0.72872

>  <N_constrained_atoms>  (142) 
24.0

>  <N_unconstrained_atoms>  (142) 
2.0

>  <LE>  (142) 
0.278621

>  <percent_hybrid>  (142) 
38.0

>  <max_hit_Tanimoto>  (142) 
0.233333

>  <largest_ring>  (142) 
6

>  <N_interactions_kept>  (142) 
1.5

>  <N_interactions_lost>  (142) 
1.0

>  <interaction_uniqueness_metric>  (142) 
0.063897

>  <N_HA>  (142) 
24

>  <N_rotatable_bonds>  (142) 
6

>  <N_interactions>  (142) 
2

>  <N_PAINS>  (142) 
0

>  <UFF_Gibbs>  (142) 
156.872639

>  <strain_per_HA>  (142) 
6.536333

>  <ad_hoc_penalty>  (142) 
-24.695705

>  <cluster>  (142) 
5423

>  <ranked>  (142) 
172.0

>  <merger_rank>  (142) 
2

>  <hydroph_interaction:LEU:127>  (142) 
0

>  <hbond:GLY:128>  (142) 
0

>  <hydroph_interaction:ALA:144>  (142) 
0

>  <hbond:GLY:164>  (142) 
1

>  <hbond:HIS:40>  (142) 
0

>  <pistack:HIS:40>  (142) 
0

>  <hydroph_interaction:LEU:125>  (142) 
0

>  <hydroph_interaction:PHE:170>  (142) 
0

>  <hydroph_interaction:HIS:40>  (142) 
0

>  <pication:HIS:40>  (142) 
0

>  <hbond:THR:142>  (142) 
0

>  <hbond:HIS:161>  (142) 
0

>  <hbond:GLY:166>  (142) 
0

>  <hbond:VAL:162>  (142) 
0

>  <hydroph_interaction:ASN:165>  (142) 
0

>  <hbond:ASN:126>  (142) 
0

>  <hbond:ARG:143>  (142) 
0

>  <hbond:GLU:71>  (142) 
0

>  <saltbridge:HIS:161>  (142) 
0

>  <hbond:ALA:144>  (142) 
0

>  <hbond:GLY:145>  (142) 
0

>  <hbond:GLN:146>  (142) 
0

>  <hbond:CYS:147>  (142) 
0

>  <halogenbond:ASN:126>  (142) 
0

>  <saltbridge:HIS:40>  (142) 
1

>  <hbond:LEU:127>  (142) 
0

>  <hbond:THR:130>  (142) 
0

>  <hydroph_interaction:GLU:71>  (142) 
0

>  <hydroph_interaction:THR:130>  (142) 
0

>  <saltbridge:ARG:143>  (142) 
0

>  <saltbridge:GLU:71>  (142) 
0

>  <hbond:GLY:129>  (142) 
0

>  <halogenbond:CYS:147>  (142) 
0

>  <hydroph_interaction:THR:39>  (142) 
0

>  <hbond:ASN:69>  (142) 
0

>  <hydroph_interaction:THR:132>  (142) 
0

>  <hbond:TYR:122>  (142) 
0

>  <hydroph_interaction:PHE:109>  (142) 
0

>  <hydroph_interaction:PHE:140>  (142) 
0

>  <hbond:PRO:141>  (142) 
0

$$$$
Z4238194490-x1329-0AS5
     RDKit          3D

 32 33  0  0  0  0  0  0  0  0999 V2000
   -4.5560   -6.7620   -1.8810 O   0  0  0  0  0  0  0  0  0  0  0  0
   -5.8150   -6.8160   -1.2480 C   0  0  2  0  0  0  0  0  0  0  0  0
   -6.0780   -8.2240   -0.7520 C   0  0  0  0  0  0  0  0  0  0  0  0
   -6.2070   -9.2240   -1.9130 C   0  0  0  0  0  0  0  0  0  0  0  0
   -7.3140   -8.8830   -2.8410 C   0  0  0  0  0  0  0  0  0  0  0  0
   -7.2960   -7.4240   -3.3030 C   0  0  2  0  0  0  0  0  0  0  0  0
   -6.3500   -7.2350   -4.8530 S   0  0  0  0  0  0  0  0  0  0  0  0
   -7.6670   -7.4890   -6.0800 C   0  0  0  0  0  0  0  0  0  0  0  0
   -8.0130   -6.2200   -6.7840 C   0  0  0  0  0  0  0  0  0  0  0  0
   -9.0690   -5.4320   -6.3400 C   0  0  0  0  0  0  0  0  0  0  0  0
   -9.3660   -4.2490   -7.0000 C   0  0  0  0  0  0  0  0  0  0  0  0
   -8.6890   -3.8000   -8.0690 N   0  0  0  0  0  0  0  0  0  0  0  0
   -7.5710   -4.6170   -8.5650 C   0  0  0  0  0  0  0  0  0  0  0  0
   -7.2840   -5.7960   -7.8930 C   0  0  0  0  0  0  0  0  0  0  0  0
   -6.8920   -6.3670   -2.2460 C   0  0  0  0  0  0  0  0  0  0  0  0
   -3.8930   -7.1120   -1.2590 H   0  0  0  0  0  0  0  0  0  0  0  0
   -5.7850   -6.1110   -0.4100 H   0  0  0  0  0  0  0  0  0  0  0  0
   -5.2620   -8.5370   -0.0890 H   0  0  0  0  0  0  0  0  0  0  0  0
   -6.9760   -8.2240   -0.1250 H   0  0  0  0  0  0  0  0  0  0  0  0
   -5.2840   -9.2910   -2.5020 H   0  0  0  0  0  0  0  0  0  0  0  0
   -6.4070  -10.2120   -1.4770 H   0  0  0  0  0  0  0  0  0  0  0  0
   -8.2910   -9.1210   -2.4070 H   0  0  0  0  0  0  0  0  0  0  0  0
   -7.2260   -9.5280   -3.7260 H   0  0  0  0  0  0  0  0  0  0  0  0
   -8.3070   -7.1400   -3.6180 H   0  0  0  0  0  0  0  0  0  0  0  0
   -7.3210   -8.2220   -6.8090 H   0  0  0  0  0  0  0  0  0  0  0  0
   -8.5620   -7.8940   -5.5960 H   0  0  0  0  0  0  0  0  0  0  0  0
   -9.6640   -5.7240   -5.4790 H   0  0  0  0  0  0  0  0  0  0  0  0
  -10.1890   -3.6250   -6.6580 H   0  0  0  0  0  0  0  0  0  0  0  0
   -7.0170   -4.2790   -9.4270 H   0  0  0  0  0  0  0  0  0  0  0  0
   -6.4390   -6.3420   -8.3250 H   0  0  0  0  0  0  0  0  0  0  0  0
   -6.5550   -5.4360   -2.7190 H   0  0  0  0  0  0  0  0  0  0  0  0
   -7.7890   -6.1170   -1.6840 H   0  0  0  0  0  0  0  0  0  0  0  0
  1  2  1  0
  2  3  1  0
  3  4  1  0
  4  5  1  0
  5  6  1  0
  6  7  1  0
  7  8  1  0
  8  9  1  0
  9 10  2  0
 10 11  1  0
 11 12  2  0
 12 13  1  0
 13 14  2  0
  6 15  1  0
 15  2  1  0
 14  9  1  0
  1 16  1  0
  2 17  1  1
  3 18  1  0
  3 19  1  0
  4 20  1  0
  4 21  1  0
  5 22  1  0
  5 23  1  0
  6 24  1  6
  8 25  1  0
  8 26  1  0
 10 27  1  0
 11 28  1  0
 13 29  1  0
 14 30  1  0
 15 31  1  0
 15 32  1  0
A    1
 O1 
A    2
 C1 
A    3
 C2 
A    4
 C3 
A    5
 C4 
A    6
 C5 
A    7
 S1 
A    8
 C6 
A    9
 C7 
A   10
 C8 
A   11
 C9 
A   12
 N1 
A   13
 C10
A   14
 C11
A   15
 C12
A   16
 H1 
A   17
 H2 
A   18
 H3 
A   19
 H4 
A   20
 H5 
A   21
 H6 
A   22
 H7 
A   23
 H8 
A   24
 H9 
A   25
 H10
A   26
 H11
A   27
 H12
A   28
 H13
A   29
 H14
A   30
 H15
A   31
 H16
A   32
 H17
M  END
>  <ref_pdb>  (143) 
x0147_0A

>  <ref_mols>  (143) 
x1329_0AS5,x1498_0A

>  <original SMILES>  (143) 
[H]O[C@]1([H])C([H])([H])C([H])([H])C([H])([H])[C@]([H])(SC([H])([H])c2c([H])c([H])nc([H])c2[H])C1([H])[H]

>  <index>  (143) 
10999

>  <∆∆G>  (143) 
-5.231443

>  <comRMSD>  (143) 
0.326024

>  <N_constrained_atoms>  (143) 
14.0

>  <N_unconstrained_atoms>  (143) 
2.0

>  <LE>  (143) 
0.326965

>  <percent_hybrid>  (143) 
50.0

>  <max_hit_Tanimoto>  (143) 
0.127517

>  <largest_ring>  (143) 
6

>  <N_interactions_kept>  (143) 
1.0

>  <N_interactions_lost>  (143) 
0.0

>  <interaction_uniqueness_metric>  (143) 
0.02665

>  <N_HA>  (143) 
15

>  <N_rotatable_bonds>  (143) 
4

>  <N_interactions>  (143) 
1

>  <N_PAINS>  (143) 
0

>  <UFF_Gibbs>  (143) 
24.383403

>  <strain_per_HA>  (143) 
1.625549

>  <ad_hoc_penalty>  (143) 
-24.692185

>  <cluster>  (143) 
4705

>  <ranked>  (143) 
173.0

>  <merger_rank>  (143) 
1

>  <hydroph_interaction:LEU:127>  (143) 
0

>  <hbond:GLY:128>  (143) 
0

>  <hydroph_interaction:ALA:144>  (143) 
0

>  <hbond:GLY:164>  (143) 
0

>  <hbond:HIS:40>  (143) 
0

>  <pistack:HIS:40>  (143) 
0

>  <hydroph_interaction:LEU:125>  (143) 
0

>  <hydroph_interaction:PHE:170>  (143) 
0

>  <hydroph_interaction:HIS:40>  (143) 
0

>  <pication:HIS:40>  (143) 
0

>  <hbond:THR:142>  (143) 
0

>  <hbond:HIS:161>  (143) 
0

>  <hbond:GLY:166>  (143) 
0

>  <hbond:VAL:162>  (143) 
1

>  <hydroph_interaction:ASN:165>  (143) 
0

>  <hbond:ASN:126>  (143) 
0

>  <hbond:ARG:143>  (143) 
0

>  <hbond:GLU:71>  (143) 
0

>  <saltbridge:HIS:161>  (143) 
0

>  <hbond:ALA:144>  (143) 
0

>  <hbond:GLY:145>  (143) 
0

>  <hbond:GLN:146>  (143) 
0

>  <hbond:CYS:147>  (143) 
0

>  <halogenbond:ASN:126>  (143) 
0

>  <saltbridge:HIS:40>  (143) 
0

>  <hbond:LEU:127>  (143) 
0

>  <hbond:THR:130>  (143) 
0

>  <hydroph_interaction:GLU:71>  (143) 
0

>  <hydroph_interaction:THR:130>  (143) 
0

>  <saltbridge:ARG:143>  (143) 
0

>  <saltbridge:GLU:71>  (143) 
0

>  <hbond:GLY:129>  (143) 
0

>  <halogenbond:CYS:147>  (143) 
0

>  <hydroph_interaction:THR:39>  (143) 
0

>  <hbond:ASN:69>  (143) 
0

>  <hydroph_interaction:THR:132>  (143) 
0

>  <hbond:TYR:122>  (143) 
0

>  <hydroph_interaction:PHE:109>  (143) 
0

>  <hydroph_interaction:PHE:140>  (143) 
0

>  <hbond:PRO:141>  (143) 
0

$$$$
Z4472679555-x1071-0AS2
     RDKit          3D

 36 36  0  0  0  0  0  0  0  0999 V2000
  -11.7410   -3.4570   -6.4010 C   0  0  0  0  0  0  0  0  0  0  0  0
  -10.6450   -3.8320   -6.7090 C   0  0  0  0  0  0  0  0  0  0  0  0
   -9.3870   -4.2920   -7.1780 C   0  0  0  0  0  0  0  0  0  0  0  0
   -8.9050   -3.6510   -8.2880 C   0  0  0  0  0  0  0  0  0  0  0  0
   -7.7090   -4.0380   -8.8480 C   0  0  0  0  0  0  0  0  0  0  0  0
   -6.9690   -5.0590   -8.3190 C   0  0  0  0  0  0  0  0  0  0  0  0
   -7.4300   -5.7020   -7.1940 C   0  0  0  0  0  0  0  0  0  0  0  0
   -8.6390   -5.3300   -6.6010 C   0  0  0  0  0  0  0  0  0  0  0  0
   -9.0620   -6.0780   -5.3630 C   0  0  0  0  0  0  0  0  0  0  0  0
   -7.9220   -6.0830   -4.3220 C   0  0  0  0  0  0  0  0  0  0  0  0
   -7.5410   -4.7450   -3.8470 N   0  0  0  0  0  0  0  0  0  0  0  0
   -6.9910   -4.5880   -2.5810 C   0  0  0  0  0  0  0  0  0  0  0  0
   -7.0250   -5.4690   -1.7260 O   0  0  0  0  0  0  0  0  0  0  0  0
   -6.3380   -3.2540   -2.3080 C   0  0  0  0  0  0  0  0  0  0  0  0
   -7.3210   -2.2220   -1.7790 C   0  0  0  0  0  0  0  0  0  0  0  0
   -6.5850   -0.6700   -1.2840 S   0  0  0  0  0  6  0  0  0  0  0  0
   -7.9670    0.4390   -1.1330 C   0  0  0  0  0  0  0  0  0  0  0  0
   -5.7330   -0.1820   -2.3490 O   0  0  0  0  0  0  0  0  0  0  0  0
   -6.0290   -0.8160    0.0370 O   0  0  0  0  0  0  0  0  0  0  0  0
  -12.7100   -3.1140   -6.1140 H   0  0  0  0  0  0  0  0  0  0  0  0
   -9.4760   -2.8450   -8.7240 H   0  0  0  0  0  0  0  0  0  0  0  0
   -7.3520   -3.5530   -9.7020 H   0  0  0  0  0  0  0  0  0  0  0  0
   -6.0360   -5.3620   -8.7680 H   0  0  0  0  0  0  0  0  0  0  0  0
   -6.8370   -6.5060   -6.7710 H   0  0  0  0  0  0  0  0  0  0  0  0
   -9.3310   -7.1100   -5.6340 H   0  0  0  0  0  0  0  0  0  0  0  0
   -9.9820   -5.6450   -4.9400 H   0  0  0  0  0  0  0  0  0  0  0  0
   -7.0070   -6.5220   -4.7510 H   0  0  0  0  0  0  0  0  0  0  0  0
   -8.1980   -6.6980   -3.4550 H   0  0  0  0  0  0  0  0  0  0  0  0
   -7.9830   -3.9480   -4.2990 H   0  0  0  0  0  0  0  0  0  0  0  0
   -5.5810   -3.4440   -1.5440 H   0  0  0  0  0  0  0  0  0  0  0  0
   -5.8250   -2.8880   -3.2080 H   0  0  0  0  0  0  0  0  0  0  0  0
   -8.0610   -1.9720   -2.5470 H   0  0  0  0  0  0  0  0  0  0  0  0
   -7.8750   -2.6070   -0.9140 H   0  0  0  0  0  0  0  0  0  0  0  0
   -8.7790   -0.0870   -0.6220 H   0  0  0  0  0  0  0  0  0  0  0  0
   -8.2850    0.7150   -2.1430 H   0  0  0  0  0  0  0  0  0  0  0  0
   -7.6540    1.3270   -0.5820 H   0  0  0  0  0  0  0  0  0  0  0  0
  1  2  3  0
  2  3  1  0
  3  4  2  0
  4  5  1  0
  5  6  2  0
  6  7  1  0
  7  8  2  0
  8  9  1  0
  9 10  1  0
 10 11  1  0
 11 12  1  0
 12 13  2  0
 12 14  1  0
 14 15  1  0
 15 16  1  0
 16 17  1  0
 16 18  2  0
 16 19  2  0
  8  3  1  0
  1 20  1  0
  4 21  1  0
  5 22  1  0
  6 23  1  0
  7 24  1  0
  9 25  1  0
  9 26  1  0
 10 27  1  0
 10 28  1  0
 11 29  1  0
 14 30  1  0
 14 31  1  0
 15 32  1  0
 15 33  1  0
 17 34  1  0
 17 35  1  0
 17 36  1  0
A    1
 C1 
A    2
 C2 
A    3
 C3 
A    4
 C4 
A    5
 C5 
A    6
 C6 
A    7
 C7 
A    8
 C8 
A    9
 C9 
A   10
 C10
A   11
 N1 
A   12
 C11
A   13
 O1 
A   14
 C12
A   15
 C13
A   16
 S1 
A   17
 C14
A   18
 O2 
A   19
 O3 
A   20
 H1 
A   21
 H2 
A   22
 H3 
A   23
 H4 
A   24
 H5 
A   25
 H6 
A   26
 H7 
A   27
 H8 
A   28
 H9 
A   29
 H10
A   30
 H11
A   31
 H12
A   32
 H13
A   33
 H14
A   34
 H15
A   35
 H16
A   36
 H17
M  END
>  <ref_pdb>  (144) 
x0147_0A

>  <ref_mols>  (144) 
x1071_0AS2,x0980_0BS1

>  <original SMILES>  (144) 
[H]C#Cc1c([H])c([H])c([H])c([H])c1C([H])([H])C([H])([H])N([H])C(=O)C([H])([H])C([H])([H])S(=O)(=O)C([H])([H])[H]

>  <index>  (144) 
16217

>  <∆∆G>  (144) 
-6.883718

>  <comRMSD>  (144) 
0.680731

>  <N_constrained_atoms>  (144) 
16.0

>  <N_unconstrained_atoms>  (144) 
3.0

>  <LE>  (144) 
0.362301

>  <percent_hybrid>  (144) 
50.0

>  <max_hit_Tanimoto>  (144) 
0.082474

>  <largest_ring>  (144) 
6

>  <N_interactions_kept>  (144) 
1.0

>  <N_interactions_lost>  (144) 
1.0

>  <interaction_uniqueness_metric>  (144) 
0.024489

>  <N_HA>  (144) 
19

>  <N_rotatable_bonds>  (144) 
7

>  <N_interactions>  (144) 
3

>  <N_PAINS>  (144) 
0

>  <UFF_Gibbs>  (144) 
29.523527

>  <strain_per_HA>  (144) 
1.553862

>  <ad_hoc_penalty>  (144) 
-24.686976

>  <cluster>  (144) 
1755

>  <ranked>  (144) 
175.0

>  <merger_rank>  (144) 
1

>  <hydroph_interaction:LEU:127>  (144) 
1

>  <hbond:GLY:128>  (144) 
0

>  <hydroph_interaction:ALA:144>  (144) 
0

>  <hbond:GLY:164>  (144) 
2

>  <hbond:HIS:40>  (144) 
0

>  <pistack:HIS:40>  (144) 
0

>  <hydroph_interaction:LEU:125>  (144) 
0

>  <hydroph_interaction:PHE:170>  (144) 
0

>  <hydroph_interaction:HIS:40>  (144) 
0

>  <pication:HIS:40>  (144) 
0

>  <hbond:THR:142>  (144) 
0

>  <hbond:HIS:161>  (144) 
0

>  <hbond:GLY:166>  (144) 
0

>  <hbond:VAL:162>  (144) 
0

>  <hydroph_interaction:ASN:165>  (144) 
0

>  <hbond:ASN:126>  (144) 
0

>  <hbond:ARG:143>  (144) 
0

>  <hbond:GLU:71>  (144) 
0

>  <saltbridge:HIS:161>  (144) 
0

>  <hbond:ALA:144>  (144) 
0

>  <hbond:GLY:145>  (144) 
0

>  <hbond:GLN:146>  (144) 
0

>  <hbond:CYS:147>  (144) 
0

>  <halogenbond:ASN:126>  (144) 
0

>  <saltbridge:HIS:40>  (144) 
0

>  <hbond:LEU:127>  (144) 
0

>  <hbond:THR:130>  (144) 
0

>  <hydroph_interaction:GLU:71>  (144) 
0

>  <hydroph_interaction:THR:130>  (144) 
0

>  <saltbridge:ARG:143>  (144) 
0

>  <saltbridge:GLU:71>  (144) 
0

>  <hbond:GLY:129>  (144) 
0

>  <halogenbond:CYS:147>  (144) 
0

>  <hydroph_interaction:THR:39>  (144) 
0

>  <hbond:ASN:69>  (144) 
0

>  <hydroph_interaction:THR:132>  (144) 
0

>  <hbond:TYR:122>  (144) 
0

>  <hydroph_interaction:PHE:109>  (144) 
0

>  <hydroph_interaction:PHE:140>  (144) 
0

>  <hbond:PRO:141>  (144) 
0

$$$$
Z3492862281-x1919-0AS10
     RDKit          3D

 40 40  0  0  0  0  0  0  0  0999 V2000
   -5.4760    0.3240   -1.9030 C   0  0  0  0  0  0  0  0  0  0  0  0
   -6.1280    0.1770   -0.6830 C   0  0  0  0  0  0  0  0  0  0  0  0
   -7.1730   -0.7420   -0.6120 C   0  0  0  0  0  0  0  0  0  0  0  0
   -6.6110   -2.0430   -0.7030 O   0  0  0  0  0  0  0  0  0  0  0  0
   -7.5540   -3.0050   -1.1870 C   0  0  0  0  0  0  0  0  0  0  0  0
   -6.9170   -4.3600   -1.3970 C   0  0  0  0  0  0  0  0  0  0  0  0
   -7.1880   -4.8120   -3.0890 S   0  0  0  0  0  6  0  0  0  0  0  0
   -6.2190   -4.0670   -3.8510 O   0  0  0  0  0  0  0  0  0  0  0  0
   -8.6030   -4.6730   -3.3300 O   0  0  0  0  0  0  0  0  0  0  0  0
   -6.7850   -6.5600   -3.1140 C   0  0  0  0  0  0  0  0  0  0  0  0
   -6.4460   -7.1730   -4.5060 C   0  0  0  0  0  0  0  0  0  0  0  0
   -7.5970   -7.4050   -5.5330 C   0  0  0  0  0  0  0  0  0  0  0  0
   -7.9210   -6.2100   -6.4590 C   0  0  0  0  0  0  0  0  0  0  0  0
   -7.1850   -5.9380   -7.6200 C   0  0  0  0  0  0  0  0  0  0  0  0
   -7.4780   -4.8600   -8.4290 C   0  0  0  0  0  0  0  0  0  0  0  0
   -8.5390   -4.0130   -8.0920 C   0  0  0  0  0  0  0  0  0  0  0  0
   -9.2860   -4.2670   -6.9510 C   0  0  0  0  0  0  0  0  0  0  0  0
   -8.9800   -5.3590   -6.1390 C   0  0  0  0  0  0  0  0  0  0  0  0
   -4.5290   -0.1820   -2.0530 H   0  0  0  0  0  0  0  0  0  0  0  0
   -5.2870    1.3810   -2.1060 H   0  0  0  0  0  0  0  0  0  0  0  0
   -6.1310   -0.0350   -2.7020 H   0  0  0  0  0  0  0  0  0  0  0  0
   -6.5200    1.1590   -0.3960 H   0  0  0  0  0  0  0  0  0  0  0  0
   -5.3730   -0.0880    0.0630 H   0  0  0  0  0  0  0  0  0  0  0  0
   -7.7650   -0.6530    0.3050 H   0  0  0  0  0  0  0  0  0  0  0  0
   -7.8380   -0.5900   -1.4690 H   0  0  0  0  0  0  0  0  0  0  0  0
   -8.0050   -2.6590   -2.1250 H   0  0  0  0  0  0  0  0  0  0  0  0
   -8.3590   -3.0740   -0.4510 H   0  0  0  0  0  0  0  0  0  0  0  0
   -5.8390   -4.3180   -1.2110 H   0  0  0  0  0  0  0  0  0  0  0  0
   -7.3590   -5.1210   -0.7490 H   0  0  0  0  0  0  0  0  0  0  0  0
   -7.6380   -7.0930   -2.6810 H   0  0  0  0  0  0  0  0  0  0  0  0
   -5.9460   -6.7100   -2.4210 H   0  0  0  0  0  0  0  0  0  0  0  0
   -5.9680   -8.1430   -4.3350 H   0  0  0  0  0  0  0  0  0  0  0  0
   -5.6940   -6.5640   -5.0000 H   0  0  0  0  0  0  0  0  0  0  0  0
   -7.3730   -8.2640   -6.1670 H   0  0  0  0  0  0  0  0  0  0  0  0
   -8.5300   -7.5960   -4.9940 H   0  0  0  0  0  0  0  0  0  0  0  0
   -6.3560   -6.5860   -7.8990 H   0  0  0  0  0  0  0  0  0  0  0  0
   -6.8870   -4.6740   -9.3240 H   0  0  0  0  0  0  0  0  0  0  0  0
   -8.7770   -3.1600   -8.7210 H   0  0  0  0  0  0  0  0  0  0  0  0
  -10.1120   -3.6120   -6.6870 H   0  0  0  0  0  0  0  0  0  0  0  0
   -9.5780   -5.5380   -5.2470 H   0  0  0  0  0  0  0  0  0  0  0  0
  1  2  1  0
  2  3  1  0
  3  4  1  0
  4  5  1  0
  5  6  1  0
  6  7  1  0
  7  8  2  0
  7  9  2  0
  7 10  1  0
 10 11  1  0
 11 12  1  0
 12 13  1  0
 13 14  2  0
 14 15  1  0
 15 16  2  0
 16 17  1  0
 17 18  2  0
 18 13  1  0
  1 19  1  0
  1 20  1  0
  1 21  1  0
  2 22  1  0
  2 23  1  0
  3 24  1  0
  3 25  1  0
  5 26  1  0
  5 27  1  0
  6 28  1  0
  6 29  1  0
 10 30  1  0
 10 31  1  0
 11 32  1  0
 11 33  1  0
 12 34  1  0
 12 35  1  0
 14 36  1  0
 15 37  1  0
 16 38  1  0
 17 39  1  0
 18 40  1  0
A    1
 C1 
A    2
 C2 
A    3
 C3 
A    4
 O1 
A    5
 C4 
A    6
 C5 
A    7
 S1 
A    8
 O2 
A    9
 O3 
A   10
 C6 
A   11
 C7 
A   12
 C8 
A   13
 C9 
A   14
 C10
A   15
 C11
A   16
 C12
A   17
 C13
A   18
 C14
A   19
 H1 
A   20
 H2 
A   21
 H3 
A   22
 H4 
A   23
 H5 
A   24
 H6 
A   25
 H7 
A   26
 H8 
A   27
 H9 
A   28
 H10
A   29
 H11
A   30
 H12
A   31
 H13
A   32
 H14
A   33
 H15
A   34
 H16
A   35
 H17
A   36
 H18
A   37
 H19
A   38
 H20
A   39
 H21
A   40
 H22
M  END
>  <ref_pdb>  (145) 
x0147_0A

>  <ref_mols>  (145) 
x1919_0AS10,x1498_0A

>  <original SMILES>  (145) 
[H]c1c([H])c([H])c(C([H])([H])C([H])([H])C([H])([H])S(=O)(=O)C([H])([H])C([H])([H])OC([H])([H])C([H])([H])C([H])([H])[H])c([H])c1[H]

>  <index>  (145) 
1186

>  <∆∆G>  (145) 
-9.440766

>  <comRMSD>  (145) 
0.497782

>  <N_constrained_atoms>  (145) 
18.0

>  <N_unconstrained_atoms>  (145) 
1.0

>  <LE>  (145) 
0.496882

>  <percent_hybrid>  (145) 
39.0

>  <max_hit_Tanimoto>  (145) 
0.204082

>  <largest_ring>  (145) 
6

>  <N_interactions_kept>  (145) 
1.5

>  <N_interactions_lost>  (145) 
2.0

>  <interaction_uniqueness_metric>  (145) 
0.076369

>  <N_HA>  (145) 
18

>  <N_rotatable_bonds>  (145) 
10

>  <N_interactions>  (145) 
4

>  <N_PAINS>  (145) 
0

>  <UFF_Gibbs>  (145) 
54.236635

>  <strain_per_HA>  (145) 
3.01313

>  <ad_hoc_penalty>  (145) 
-24.67216

>  <cluster>  (145) 
2512

>  <ranked>  (145) 
176.0

>  <merger_rank>  (145) 
2

>  <hydroph_interaction:LEU:127>  (145) 
1

>  <hbond:GLY:128>  (145) 
1

>  <hydroph_interaction:ALA:144>  (145) 
0

>  <hbond:GLY:164>  (145) 
0

>  <hbond:HIS:40>  (145) 
0

>  <pistack:HIS:40>  (145) 
0

>  <hydroph_interaction:LEU:125>  (145) 
1

>  <hydroph_interaction:PHE:170>  (145) 
1

>  <hydroph_interaction:HIS:40>  (145) 
0

>  <pication:HIS:40>  (145) 
0

>  <hbond:THR:142>  (145) 
0

>  <hbond:HIS:161>  (145) 
0

>  <hbond:GLY:166>  (145) 
0

>  <hbond:VAL:162>  (145) 
0

>  <hydroph_interaction:ASN:165>  (145) 
0

>  <hbond:ASN:126>  (145) 
0

>  <hbond:ARG:143>  (145) 
0

>  <hbond:GLU:71>  (145) 
0

>  <saltbridge:HIS:161>  (145) 
0

>  <hbond:ALA:144>  (145) 
0

>  <hbond:GLY:145>  (145) 
0

>  <hbond:GLN:146>  (145) 
0

>  <hbond:CYS:147>  (145) 
0

>  <halogenbond:ASN:126>  (145) 
0

>  <saltbridge:HIS:40>  (145) 
0

>  <hbond:LEU:127>  (145) 
0

>  <hbond:THR:130>  (145) 
0

>  <hydroph_interaction:GLU:71>  (145) 
0

>  <hydroph_interaction:THR:130>  (145) 
0

>  <saltbridge:ARG:143>  (145) 
0

>  <saltbridge:GLU:71>  (145) 
0

>  <hbond:GLY:129>  (145) 
0

>  <halogenbond:CYS:147>  (145) 
0

>  <hydroph_interaction:THR:39>  (145) 
0

>  <hbond:ASN:69>  (145) 
0

>  <hydroph_interaction:THR:132>  (145) 
0

>  <hbond:TYR:122>  (145) 
0

>  <hydroph_interaction:PHE:109>  (145) 
0

>  <hydroph_interaction:PHE:140>  (145) 
0

>  <hbond:PRO:141>  (145) 
0

$$$$
Z5453357313-x1071-0A
     RDKit          3D

 41 42  0  0  0  0  0  0  0  0999 V2000
   -5.9440   -1.0350   -0.3810 O   0  0  0  0  0  0  0  0  0  0  0  0
   -6.6400   -0.9690   -1.3490 C   0  0  0  0  0  0  0  0  0  0  0  0
   -6.9770    0.4410   -1.7310 C   0  0  0  0  0  0  0  0  0  0  0  0
   -5.8830    1.4480   -1.4760 C   0  0  0  0  0  0  0  0  0  0  0  0
   -6.2370    2.8720   -1.6970 C   0  0  0  0  0  0  0  0  0  0  0  0
   -6.1090    3.7070   -0.5790 C   0  0  0  0  0  0  0  0  0  0  0  0
   -6.5390    3.4670    0.7150 C   0  0  0  0  0  0  0  0  0  0  0  0
   -6.2620    4.5260    1.5570 N   0  0  0  0  0  0  0  0  0  0  0  0
   -5.5830    5.6500    0.9220 C   0  0  0  0  0  0  0  0  0  0  0  0
   -5.3070    5.3250   -0.7570 S   0  0  0  0  0  0  0  0  0  0  0  0
   -7.0770   -1.9620   -2.0670 N   0  0  0  0  0  0  0  0  0  0  0  0
   -6.7480   -3.3600   -1.7020 C   0  0  0  0  0  0  0  0  0  0  0  0
   -6.7180   -4.3840   -2.8290 C   0  0  0  0  0  0  0  0  0  0  0  0
   -6.6860   -4.0840   -4.1380 O   0  0  0  0  0  0  0  0  0  0  0  0
   -6.7160   -5.6840   -2.3230 N   0  0  0  0  0  0  0  0  0  0  0  0
   -6.7240   -5.7300   -0.8760 C   0  0  0  0  0  0  0  0  0  0  0  0
   -6.3210   -7.1120   -0.3740 C   0  0  0  0  0  0  0  0  0  0  0  0
   -5.2060   -7.6390   -1.0230 C   0  0  0  0  0  0  0  0  0  0  0  0
   -4.8800   -7.1270   -2.2810 C   0  0  0  0  0  0  0  0  0  0  0  0
   -6.0730   -6.8370   -2.9620 C   0  0  0  0  0  0  0  0  0  0  0  0
   -7.2160    0.4340   -2.7960 H   0  0  0  0  0  0  0  0  0  0  0  0
   -7.8800    0.7340   -1.1870 H   0  0  0  0  0  0  0  0  0  0  0  0
   -5.5360    1.3230   -0.4440 H   0  0  0  0  0  0  0  0  0  0  0  0
   -5.0220    1.1920   -2.0980 H   0  0  0  0  0  0  0  0  0  0  0  0
   -5.8370    3.3260   -2.5990 H   0  0  0  0  0  0  0  0  0  0  0  0
   -7.3140    2.8570   -1.8990 H   0  0  0  0  0  0  0  0  0  0  0  0
   -7.0430    2.5810    1.0850 H   0  0  0  0  0  0  0  0  0  0  0  0
   -5.2870    6.5640    1.4230 H   0  0  0  0  0  0  0  0  0  0  0  0
   -7.1790   -1.7850   -3.0660 H   0  0  0  0  0  0  0  0  0  0  0  0
   -5.7950   -3.3810   -1.1930 H   0  0  0  0  0  0  0  0  0  0  0  0
   -7.4920   -3.6660   -0.9630 H   0  0  0  0  0  0  0  0  0  0  0  0
   -7.7340   -5.4760   -0.5420 H   0  0  0  0  0  0  0  0  0  0  0  0
   -6.0130   -5.0010   -0.4930 H   0  0  0  0  0  0  0  0  0  0  0  0
   -7.1150   -7.8430   -0.2640 H   0  0  0  0  0  0  0  0  0  0  0  0
   -5.9880   -6.9460    0.6550 H   0  0  0  0  0  0  0  0  0  0  0  0
   -5.4090   -8.7060   -1.1800 H   0  0  0  0  0  0  0  0  0  0  0  0
   -4.2800   -7.6440   -0.4550 H   0  0  0  0  0  0  0  0  0  0  0  0
   -4.2670   -7.7970   -2.8780 H   0  0  0  0  0  0  0  0  0  0  0  0
   -4.2050   -6.2810   -2.2380 H   0  0  0  0  0  0  0  0  0  0  0  0
   -6.8240   -7.6340   -2.9860 H   0  0  0  0  0  0  0  0  0  0  0  0
   -5.9670   -6.5390   -4.0000 H   0  0  0  0  0  0  0  0  0  0  0  0
  1  2  2  0
  2  3  1  0
  3  4  1  0
  4  5  1  0
  5  6  1  0
  6  7  2  0
  7  8  1  0
  8  9  2  0
  9 10  1  0
  2 11  1  0
 11 12  1  0
 12 13  1  0
 13 14  2  0
 13 15  1  0
 15 16  1  0
 16 17  1  0
 17 18  1  0
 18 19  1  0
 19 20  1  0
 10  6  1  0
 20 15  1  0
  3 21  1  0
  3 22  1  0
  4 23  1  0
  4 24  1  0
  5 25  1  0
  5 26  1  0
  7 27  1  0
  9 28  1  0
 11 29  1  0
 12 30  1  0
 12 31  1  0
 16 32  1  0
 16 33  1  0
 17 34  1  0
 17 35  1  0
 18 36  1  0
 18 37  1  0
 19 38  1  0
 19 39  1  0
 20 40  1  0
 20 41  1  0
A    1
 O1 
A    2
 C1 
A    3
 C2 
A    4
 C3 
A    5
 C4 
A    6
 C5 
A    7
 C6 
A    8
 N1 
A    9
 C7 
A   10
 S1 
A   11
 N2 
A   12
 C8 
A   13
 C9 
A   14
 O2 
A   15
 N3 
A   16
 C10
A   17
 C11
A   18
 C12
A   19
 C13
A   20
 C14
A   21
 H1 
A   22
 H2 
A   23
 H3 
A   24
 H4 
A   25
 H5 
A   26
 H6 
A   27
 H7 
A   28
 H8 
A   29
 H9 
A   30
 H10
A   31
 H11
A   32
 H12
A   33
 H13
A   34
 H14
A   35
 H15
A   36
 H16
A   37
 H17
A   38
 H18
A   39
 H19
A   40
 H20
A   41
 H21
M  END
>  <ref_pdb>  (146) 
x0147_0A

>  <ref_mols>  (146) 
x1071_0A,x1285_0BS1

>  <original SMILES>  (146) 
[H]c1nc([H])c(C([H])([H])C([H])([H])C([H])([H])C(=O)N([H])C([H])([H])C(=O)N2C([H])([H])C([H])([H])C([H])([H])C([H])([H])C2([H])[H])s1

>  <index>  (146) 
3371

>  <∆∆G>  (146) 
-7.050645

>  <comRMSD>  (146) 
0.70964

>  <N_constrained_atoms>  (146) 
19.0

>  <N_unconstrained_atoms>  (146) 
2.0

>  <LE>  (146) 
0.335745

>  <percent_hybrid>  (146) 
32.0

>  <max_hit_Tanimoto>  (146) 
0.322296

>  <largest_ring>  (146) 
6

>  <N_interactions_kept>  (146) 
0.0

>  <N_interactions_lost>  (146) 
2.0

>  <interaction_uniqueness_metric>  (146) 
0.081206

>  <N_HA>  (146) 
20

>  <N_rotatable_bonds>  (146) 
6

>  <N_interactions>  (146) 
5

>  <N_PAINS>  (146) 
0

>  <UFF_Gibbs>  (146) 
171.834794

>  <strain_per_HA>  (146) 
8.591697

>  <ad_hoc_penalty>  (146) 
-24.607951

>  <cluster>  (146) 
6603

>  <ranked>  (146) 
178.0

>  <merger_rank>  (146) 
1

>  <hydroph_interaction:LEU:127>  (146) 
0

>  <hbond:GLY:128>  (146) 
1

>  <hydroph_interaction:ALA:144>  (146) 
0

>  <hbond:GLY:164>  (146) 
2

>  <hbond:HIS:40>  (146) 
0

>  <pistack:HIS:40>  (146) 
0

>  <hydroph_interaction:LEU:125>  (146) 
1

>  <hydroph_interaction:PHE:170>  (146) 
1

>  <hydroph_interaction:HIS:40>  (146) 
0

>  <pication:HIS:40>  (146) 
0

>  <hbond:THR:142>  (146) 
0

>  <hbond:HIS:161>  (146) 
0

>  <hbond:GLY:166>  (146) 
0

>  <hbond:VAL:162>  (146) 
0

>  <hydroph_interaction:ASN:165>  (146) 
0

>  <hbond:ASN:126>  (146) 
0

>  <hbond:ARG:143>  (146) 
0

>  <hbond:GLU:71>  (146) 
0

>  <saltbridge:HIS:161>  (146) 
0

>  <hbond:ALA:144>  (146) 
0

>  <hbond:GLY:145>  (146) 
0

>  <hbond:GLN:146>  (146) 
0

>  <hbond:CYS:147>  (146) 
0

>  <halogenbond:ASN:126>  (146) 
0

>  <saltbridge:HIS:40>  (146) 
0

>  <hbond:LEU:127>  (146) 
0

>  <hbond:THR:130>  (146) 
0

>  <hydroph_interaction:GLU:71>  (146) 
0

>  <hydroph_interaction:THR:130>  (146) 
0

>  <saltbridge:ARG:143>  (146) 
0

>  <saltbridge:GLU:71>  (146) 
0

>  <hbond:GLY:129>  (146) 
0

>  <halogenbond:CYS:147>  (146) 
0

>  <hydroph_interaction:THR:39>  (146) 
0

>  <hbond:ASN:69>  (146) 
0

>  <hydroph_interaction:THR:132>  (146) 
0

>  <hbond:TYR:122>  (146) 
0

>  <hydroph_interaction:PHE:109>  (146) 
0

>  <hydroph_interaction:PHE:140>  (146) 
0

>  <hbond:PRO:141>  (146) 
0

$$$$
PV-004583193732-x1071-0AS4
     RDKit          3D

 41 42  0  0  0  0  0  0  0  0999 V2000
   -6.9460   -4.4420   -9.2360 C   0  0  0  0  0  0  0  0  0  0  0  0
   -7.6960   -4.8690   -8.0440 C   0  0  0  0  0  0  0  0  0  0  0  0
   -8.7730   -3.9030   -7.6040 C   0  0  0  0  0  0  0  0  0  0  0  0
   -9.5680   -4.2950   -6.3760 C   0  0  0  0  0  0  0  0  0  0  0  0
   -9.1730   -5.6250   -5.7390 C   0  0  0  0  0  0  0  0  0  0  0  0
   -9.9200   -6.1030   -4.4840 C   0  0  0  0  0  0  0  0  0  0  0  0
   -9.2200   -5.7890   -3.2290 C   0  0  0  0  0  0  0  0  0  0  0  0
   -8.3390   -4.6740   -3.3340 N   0  0  0  0  0  0  0  0  0  0  0  0
   -7.0280   -4.5810   -2.9020 C   0  0  0  0  0  0  0  0  0  0  0  0
   -6.2900   -3.5190   -3.0470 N   0  0  0  0  0  0  0  0  0  0  0  0
   -6.3990   -5.6440   -2.2740 N   0  0  0  0  0  0  0  0  0  0  0  0
   -6.8180   -5.9780   -1.0600 C   0  0  0  0  0  0  0  0  0  0  0  0
   -6.3000   -7.0230   -0.2980 C   0  0  0  0  0  0  0  0  0  0  0  0
   -5.0340   -7.5980   -0.7870 C   0  0  0  0  0  0  0  0  0  0  0  0
   -4.7710   -7.4580   -2.1390 C   0  0  0  0  0  0  0  0  0  0  0  0
   -5.7420   -6.6990   -3.0470 C   0  0  0  0  0  0  0  0  0  0  0  0
   -8.1400   -6.4150   -6.2800 C   0  0  0  0  0  0  0  0  0  0  0  0
   -7.4220   -6.0500   -7.3990 C   0  0  0  0  0  0  0  0  0  0  0  0
   -6.6820   -5.3030   -9.8640 H   0  0  0  0  0  0  0  0  0  0  0  0
   -6.0530   -3.8890   -8.9650 H   0  0  0  0  0  0  0  0  0  0  0  0
   -7.5760   -3.7800   -9.7880 H   0  0  0  0  0  0  0  0  0  0  0  0
   -8.9750   -2.9700   -8.1300 H   0  0  0  0  0  0  0  0  0  0  0  0
  -10.3510   -3.6090   -6.0410 H   0  0  0  0  0  0  0  0  0  0  0  0
  -10.0870   -7.1840   -4.5520 H   0  0  0  0  0  0  0  0  0  0  0  0
  -10.9200   -5.6550   -4.4700 H   0  0  0  0  0  0  0  0  0  0  0  0
   -9.9450   -5.5340   -2.4490 H   0  0  0  0  0  0  0  0  0  0  0  0
   -8.6500   -6.6640   -2.8960 H   0  0  0  0  0  0  0  0  0  0  0  0
   -5.9090   -3.1700   -2.1820 H   0  0  0  0  0  0  0  0  0  0  0  0
   -6.8050   -2.7630   -3.5290 H   0  0  0  0  0  0  0  0  0  0  0  0
   -6.7660   -5.0660   -0.4620 H   0  0  0  0  0  0  0  0  0  0  0  0
   -7.8870   -6.1650   -1.1870 H   0  0  0  0  0  0  0  0  0  0  0  0
   -7.0530   -7.8240   -0.2960 H   0  0  0  0  0  0  0  0  0  0  0  0
   -6.1850   -6.7320    0.7460 H   0  0  0  0  0  0  0  0  0  0  0  0
   -4.9060   -8.6130   -0.4200 H   0  0  0  0  0  0  0  0  0  0  0  0
   -4.2140   -7.0660   -0.2890 H   0  0  0  0  0  0  0  0  0  0  0  0
   -4.7450   -8.4820   -2.5260 H   0  0  0  0  0  0  0  0  0  0  0  0
   -3.7750   -7.0760   -2.3740 H   0  0  0  0  0  0  0  0  0  0  0  0
   -5.3280   -6.2290   -3.9320 H   0  0  0  0  0  0  0  0  0  0  0  0
   -6.5040   -7.3870   -3.4190 H   0  0  0  0  0  0  0  0  0  0  0  0
   -7.8900   -7.3570   -5.7990 H   0  0  0  0  0  0  0  0  0  0  0  0
   -6.6320   -6.6970   -7.7740 H   0  0  0  0  0  0  0  0  0  0  0  0
  1  2  1  0
  2  3  2  0
  3  4  1  0
  4  5  2  0
  5  6  1  0
  6  7  1  0
  7  8  1  0
  8  9  2  3
  9 10  1  0
  9 11  1  0
 11 12  1  0
 12 13  1  0
 13 14  1  0
 14 15  1  0
 15 16  1  0
  5 17  1  0
 17 18  2  0
 18  2  1  0
 16 11  1  0
  1 19  1  0
  1 20  1  0
  1 21  1  0
  3 22  1  0
  4 23  1  0
  6 24  1  0
  6 25  1  0
  7 26  1  0
  7 27  1  0
 10 28  1  0
 10 29  1  0
 12 30  1  0
 12 31  1  0
 13 32  1  0
 13 33  1  0
 14 34  1  0
 14 35  1  0
 15 36  1  0
 15 37  1  0
 16 38  1  0
 16 39  1  0
 17 40  1  0
 18 41  1  0
A    1
 C1 
A    2
 C2 
A    3
 C3 
A    4
 C4 
A    5
 C5 
A    6
 C6 
A    7
 C7 
A    8
 N1 
A    9
 C8 
A   10
 N2 
A   11
 N3 
A   12
 C9 
A   13
 C10
A   14
 C11
A   15
 C12
A   16
 C13
A   17
 C14
A   18
 C15
A   19
 H1 
A   20
 H2 
A   21
 H3 
A   22
 H4 
A   23
 H5 
A   24
 H6 
A   25
 H7 
A   26
 H8 
A   27
 H9 
A   28
 H10
A   29
 H11
A   30
 H12
A   31
 H13
A   32
 H14
A   33
 H15
A   34
 H16
A   35
 H17
A   36
 H18
A   37
 H19
A   38
 H20
A   39
 H21
A   40
 H22
A   41
 H23
M  END
>  <ref_pdb>  (147) 
x0147_0A

>  <ref_mols>  (147) 
x1071_0AS4,x1498_0A

>  <original SMILES>  (147) 
[H]c1c([H])c(C([H])([H])C([H])([H])N=C(N([H])[H])N2C([H])([H])C([H])([H])C([H])([H])C([H])([H])C2([H])[H])c([H])c([H])c1C([H])([H])[H]

>  <index>  (147) 
9413

>  <∆∆G>  (147) 
-6.129725

>  <comRMSD>  (147) 
0.934028

>  <N_constrained_atoms>  (147) 
16.0

>  <N_unconstrained_atoms>  (147) 
2.0

>  <LE>  (147) 
0.34054

>  <percent_hybrid>  (147) 
44.0

>  <max_hit_Tanimoto>  (147) 
0.168712

>  <largest_ring>  (147) 
6

>  <N_interactions_kept>  (147) 
1.0

>  <N_interactions_lost>  (147) 
1.0

>  <interaction_uniqueness_metric>  (147) 
0.017959

>  <N_HA>  (147) 
18

>  <N_rotatable_bonds>  (147) 
4

>  <N_interactions>  (147) 
3

>  <N_PAINS>  (147) 
0

>  <UFF_Gibbs>  (147) 
127.754889

>  <strain_per_HA>  (147) 
7.097454

>  <ad_hoc_penalty>  (147) 
-24.579055

>  <cluster>  (147) 
153

>  <ranked>  (147) 
179.0

>  <merger_rank>  (147) 
3

>  <hydroph_interaction:LEU:127>  (147) 
0

>  <hbond:GLY:128>  (147) 
0

>  <hydroph_interaction:ALA:144>  (147) 
0

>  <hbond:GLY:164>  (147) 
3

>  <hbond:HIS:40>  (147) 
0

>  <pistack:HIS:40>  (147) 
0

>  <hydroph_interaction:LEU:125>  (147) 
0

>  <hydroph_interaction:PHE:170>  (147) 
0

>  <hydroph_interaction:HIS:40>  (147) 
0

>  <pication:HIS:40>  (147) 
0

>  <hbond:THR:142>  (147) 
0

>  <hbond:HIS:161>  (147) 
0

>  <hbond:GLY:166>  (147) 
0

>  <hbond:VAL:162>  (147) 
0

>  <hydroph_interaction:ASN:165>  (147) 
0

>  <hbond:ASN:126>  (147) 
0

>  <hbond:ARG:143>  (147) 
0

>  <hbond:GLU:71>  (147) 
0

>  <saltbridge:HIS:161>  (147) 
0

>  <hbond:ALA:144>  (147) 
0

>  <hbond:GLY:145>  (147) 
0

>  <hbond:GLN:146>  (147) 
0

>  <hbond:CYS:147>  (147) 
0

>  <halogenbond:ASN:126>  (147) 
0

>  <saltbridge:HIS:40>  (147) 
0

>  <hbond:LEU:127>  (147) 
0

>  <hbond:THR:130>  (147) 
0

>  <hydroph_interaction:GLU:71>  (147) 
0

>  <hydroph_interaction:THR:130>  (147) 
0

>  <saltbridge:ARG:143>  (147) 
0

>  <saltbridge:GLU:71>  (147) 
0

>  <hbond:GLY:129>  (147) 
0

>  <halogenbond:CYS:147>  (147) 
0

>  <hydroph_interaction:THR:39>  (147) 
0

>  <hbond:ASN:69>  (147) 
0

>  <hydroph_interaction:THR:132>  (147) 
0

>  <hbond:TYR:122>  (147) 
0

>  <hydroph_interaction:PHE:109>  (147) 
0

>  <hydroph_interaction:PHE:140>  (147) 
0

>  <hbond:PRO:141>  (147) 
0

$$$$
Z2018510625-x1919-0AS12
     RDKit          3D

 50 51  0  0  0  0  0  0  0  0999 V2000
   -7.5290   -0.4960    0.6540 C   0  0  0  0  0  0  0  0  0  0  0  0
   -7.1620   -0.9420   -0.7580 C   0  0  0  0  0  0  0  0  0  0  0  0
   -6.1190   -0.0710   -1.3020 C   0  0  0  0  0  0  0  0  0  0  0  0
   -5.2930    0.5740   -1.7760 N   0  0  0  0  0  0  0  0  0  0  0  0
   -6.6870   -2.2900   -0.6820 O   0  0  0  0  0  0  0  0  0  0  0  0
   -7.5540   -3.2420   -1.3200 C   0  0  0  0  0  0  0  0  0  0  0  0
   -6.8270   -4.5680   -1.6700 C   0  0  0  0  0  0  0  0  0  0  0  0
   -7.5240   -5.3430   -2.7370 N   0  0  0  0  0  0  0  0  0  0  0  0
   -7.3310   -6.8060   -2.7560 C   0  0  0  0  0  0  0  0  0  0  0  0
   -5.8820   -7.2010   -3.0780 C   0  0  0  0  0  0  0  0  0  0  0  0
   -5.2560   -7.7180   -1.8180 C   0  0  0  0  0  0  0  0  0  0  0  0
   -3.9590   -7.3680   -1.4940 C   0  0  0  0  0  0  0  0  0  0  0  0
   -3.3690   -7.8250   -0.3210 C   0  0  0  0  0  0  0  0  0  0  0  0
   -4.0900   -8.6510    0.5370 C   0  0  0  0  0  0  0  0  0  0  0  0
   -5.3940   -9.0160    0.2170 C   0  0  0  0  0  0  0  0  0  0  0  0
   -5.9780   -8.5500   -0.9580 C   0  0  0  0  0  0  0  0  0  0  0  0
   -7.3760   -4.7690   -4.0740 C   0  0  0  0  0  0  0  0  0  0  0  0
   -8.4700   -5.3260   -5.0220 C   0  0  0  0  0  0  0  0  0  0  0  0
   -8.1880   -4.9060   -6.4340 C   0  0  0  0  0  0  0  0  0  0  0  0
   -7.3360   -5.6670   -7.2280 C   0  0  0  0  0  0  0  0  0  0  0  0
   -7.0560   -5.2660   -8.5100 C   0  0  0  0  0  0  0  0  0  0  0  0
   -7.6290   -4.1200   -8.9880 C   0  0  0  0  0  0  0  0  0  0  0  0
   -8.4910   -3.3490   -8.2220 C   0  0  0  0  0  0  0  0  0  0  0  0
   -8.7730   -3.7450   -6.9370 C   0  0  0  0  0  0  0  0  0  0  0  0
   -6.6400   -0.3520    1.2770 H   0  0  0  0  0  0  0  0  0  0  0  0
   -8.1790   -1.2260    1.1480 H   0  0  0  0  0  0  0  0  0  0  0  0
   -8.0840    0.4480    0.6220 H   0  0  0  0  0  0  0  0  0  0  0  0
   -8.0590   -0.9040   -1.3870 H   0  0  0  0  0  0  0  0  0  0  0  0
   -7.9860   -2.7960   -2.2240 H   0  0  0  0  0  0  0  0  0  0  0  0
   -8.3790   -3.4750   -0.6400 H   0  0  0  0  0  0  0  0  0  0  0  0
   -5.7950   -4.3630   -1.9640 H   0  0  0  0  0  0  0  0  0  0  0  0
   -6.7990   -5.1700   -0.7530 H   0  0  0  0  0  0  0  0  0  0  0  0
   -7.6090   -7.2510   -1.7920 H   0  0  0  0  0  0  0  0  0  0  0  0
   -8.0100   -7.2890   -3.4690 H   0  0  0  0  0  0  0  0  0  0  0  0
   -5.8330   -7.9680   -3.8620 H   0  0  0  0  0  0  0  0  0  0  0  0
   -5.3100   -6.3390   -3.4510 H   0  0  0  0  0  0  0  0  0  0  0  0
   -3.4030   -6.7330   -2.1600 H   0  0  0  0  0  0  0  0  0  0  0  0
   -2.3500   -7.5400   -0.0780 H   0  0  0  0  0  0  0  0  0  0  0  0
   -3.6310   -9.0100    1.4540 H   0  0  0  0  0  0  0  0  0  0  0  0
   -5.9580   -9.6640    0.8850 H   0  0  0  0  0  0  0  0  0  0  0  0
   -6.9990   -8.8400   -1.1950 H   0  0  0  0  0  0  0  0  0  0  0  0
   -7.4960   -3.6810   -4.0260 H   0  0  0  0  0  0  0  0  0  0  0  0
   -6.3760   -4.9640   -4.4670 H   0  0  0  0  0  0  0  0  0  0  0  0
   -8.5290   -6.4220   -4.9880 H   0  0  0  0  0  0  0  0  0  0  0  0
   -9.4600   -4.9590   -4.7220 H   0  0  0  0  0  0  0  0  0  0  0  0
   -6.8790   -6.5770   -6.8420 H   0  0  0  0  0  0  0  0  0  0  0  0
   -6.3860   -5.8500   -9.1400 H   0  0  0  0  0  0  0  0  0  0  0  0
   -7.3930   -3.8400   -9.9740 H   0  0  0  0  0  0  0  0  0  0  0  0
   -8.9340   -2.4460   -8.6240 H   0  0  0  0  0  0  0  0  0  0  0  0
   -9.4430   -3.1470   -6.3230 H   0  0  0  0  0  0  0  0  0  0  0  0
  1  2  1  0
  2  3  1  0
  3  4  3  0
  2  5  1  0
  5  6  1  0
  6  7  1  0
  7  8  1  0
  8  9  1  0
  9 10  1  0
 10 11  1  0
 11 12  2  0
 12 13  1  0
 13 14  2  0
 14 15  1  0
 15 16  2  0
  8 17  1  0
 17 18  1  0
 18 19  1  0
 19 20  2  0
 20 21  1  0
 21 22  2  0
 22 23  1  0
 23 24  2  0
 16 11  1  0
 24 19  1  0
  1 25  1  0
  1 26  1  0
  1 27  1  0
  2 28  1  0
  6 29  1  0
  6 30  1  0
  7 31  1  0
  7 32  1  0
  9 33  1  0
  9 34  1  0
 10 35  1  0
 10 36  1  0
 12 37  1  0
 13 38  1  0
 14 39  1  0
 15 40  1  0
 16 41  1  0
 17 42  1  0
 17 43  1  0
 18 44  1  0
 18 45  1  0
 20 46  1  0
 21 47  1  0
 22 48  1  0
 23 49  1  0
 24 50  1  0
A    1
 C1 
A    2
 C2 
A    3
 C3 
A    4
 N1 
A    5
 O1 
A    6
 C4 
A    7
 C5 
A    8
 N2 
A    9
 C6 
A   10
 C7 
A   11
 C8 
A   12
 C9 
A   13
 C10
A   14
 C11
A   15
 C12
A   16
 C13
A   17
 C14
A   18
 C15
A   19
 C16
A   20
 C17
A   21
 C18
A   22
 C19
A   23
 C20
A   24
 C21
A   25
 H1 
A   26
 H2 
A   27
 H3 
A   28
 H4 
A   29
 H5 
A   30
 H6 
A   31
 H7 
A   32
 H8 
A   33
 H9 
A   34
 H10
A   35
 H11
A   36
 H12
A   37
 H13
A   38
 H14
A   39
 H15
A   40
 H16
A   41
 H17
A   42
 H18
A   43
 H19
A   44
 H20
A   45
 H21
A   46
 H22
A   47
 H23
A   48
 H24
A   49
 H25
A   50
 H26
M  END
>  <ref_pdb>  (148) 
x0147_0A

>  <ref_mols>  (148) 
x1919_0AS12,x0980_0BS5

>  <original SMILES>  (148) 
[H]c1c([H])c([H])c(C([H])([H])C([H])([H])N(C([H])([H])C([H])([H])OC([H])(C#N)C([H])([H])[H])C([H])([H])C([H])([H])c2c([H])c([H])c([H])c([H])c2[H])c([H])c1[H]

>  <index>  (148) 
36

>  <∆∆G>  (148) 
-9.419003

>  <comRMSD>  (148) 
0.658516

>  <N_constrained_atoms>  (148) 
22.0

>  <N_unconstrained_atoms>  (148) 
2.0

>  <LE>  (148) 
0.392458

>  <percent_hybrid>  (148) 
28.0

>  <max_hit_Tanimoto>  (148) 
0.180662

>  <largest_ring>  (148) 
6

>  <N_interactions_kept>  (148) 
1.5

>  <N_interactions_lost>  (148) 
2.0

>  <interaction_uniqueness_metric>  (148) 
0.095158

>  <N_HA>  (148) 
24

>  <N_rotatable_bonds>  (148) 
11

>  <N_interactions>  (148) 
4

>  <N_PAINS>  (148) 
0

>  <UFF_Gibbs>  (148) 
50.715235

>  <strain_per_HA>  (148) 
2.113126

>  <ad_hoc_penalty>  (148) 
-24.565718

>  <cluster>  (148) 
7333

>  <ranked>  (148) 
181.0

>  <merger_rank>  (148) 
4

>  <hydroph_interaction:LEU:127>  (148) 
1

>  <hbond:GLY:128>  (148) 
1

>  <hydroph_interaction:ALA:144>  (148) 
0

>  <hbond:GLY:164>  (148) 
0

>  <hbond:HIS:40>  (148) 
0

>  <pistack:HIS:40>  (148) 
0

>  <hydroph_interaction:LEU:125>  (148) 
0

>  <hydroph_interaction:PHE:170>  (148) 
0

>  <hydroph_interaction:HIS:40>  (148) 
1

>  <pication:HIS:40>  (148) 
1

>  <hbond:THR:142>  (148) 
0

>  <hbond:HIS:161>  (148) 
0

>  <hbond:GLY:166>  (148) 
0

>  <hbond:VAL:162>  (148) 
0

>  <hydroph_interaction:ASN:165>  (148) 
0

>  <hbond:ASN:126>  (148) 
0

>  <hbond:ARG:143>  (148) 
0

>  <hbond:GLU:71>  (148) 
0

>  <saltbridge:HIS:161>  (148) 
0

>  <hbond:ALA:144>  (148) 
0

>  <hbond:GLY:145>  (148) 
0

>  <hbond:GLN:146>  (148) 
0

>  <hbond:CYS:147>  (148) 
0

>  <halogenbond:ASN:126>  (148) 
0

>  <saltbridge:HIS:40>  (148) 
0

>  <hbond:LEU:127>  (148) 
0

>  <hbond:THR:130>  (148) 
0

>  <hydroph_interaction:GLU:71>  (148) 
0

>  <hydroph_interaction:THR:130>  (148) 
0

>  <saltbridge:ARG:143>  (148) 
0

>  <saltbridge:GLU:71>  (148) 
0

>  <hbond:GLY:129>  (148) 
0

>  <halogenbond:CYS:147>  (148) 
0

>  <hydroph_interaction:THR:39>  (148) 
0

>  <hbond:ASN:69>  (148) 
0

>  <hydroph_interaction:THR:132>  (148) 
0

>  <hbond:TYR:122>  (148) 
0

>  <hydroph_interaction:PHE:109>  (148) 
0

>  <hydroph_interaction:PHE:140>  (148) 
0

>  <hbond:PRO:141>  (148) 
0

$$$$
Z2518204142-x1071-0AS4
     RDKit          3D

 32 33  0  0  0  0  0  0  0  0999 V2000
   -6.3140   -3.2910   -2.2190 N   0  0  0  0  0  0  0  0  0  0  0  0
   -6.6210   -4.4670   -2.8350 C   0  0  0  0  0  0  0  0  0  0  0  0
   -7.1190   -4.3600   -4.1010 N   0  0  0  0  0  0  0  0  0  0  0  0
   -7.5110   -5.6050   -4.7720 C   0  0  0  0  0  0  0  0  0  0  0  0
   -8.6370   -5.3210   -5.7650 C   0  0  0  0  0  0  0  0  0  0  0  0
   -8.0740   -4.9260   -7.0230 N   0  0  0  0  0  0  0  0  0  0  0  0
   -8.2720   -3.7720   -7.6990 C   0  0  0  0  0  0  0  0  0  0  0  0
   -7.5650   -3.7930   -8.8020 N   0  0  0  0  0  0  0  0  0  0  0  0
   -6.9480   -5.0070   -8.7520 C   0  0  0  0  0  0  0  0  0  0  0  0
   -7.2280   -5.7420   -7.6790 N   0  0  0  0  0  0  0  0  0  0  0  0
   -6.4160   -5.6470   -2.1450 N   0  0  0  0  0  0  0  0  0  0  0  0
   -7.2130   -5.9220   -0.9440 C   0  0  0  0  0  0  0  0  0  0  0  0
   -6.5980   -7.1020   -0.1990 C   0  0  0  0  0  0  0  0  0  0  0  0
   -4.8370   -7.3080   -0.4280 S   0  0  0  0  0  0  0  0  0  0  0  0
   -4.7700   -7.3780   -2.2310 C   0  0  0  0  0  0  0  0  0  0  0  0
   -5.8940   -6.8510   -2.8380 C   0  0  0  0  0  0  0  0  0  0  0  0
   -6.5770   -2.4690   -2.7470 H   0  0  0  0  0  0  0  0  0  0  0  0
   -6.3090   -3.2130   -1.2150 H   0  0  0  0  0  0  0  0  0  0  0  0
   -6.6420   -6.0230   -5.2900 H   0  0  0  0  0  0  0  0  0  0  0  0
   -7.8740   -6.3460   -4.0520 H   0  0  0  0  0  0  0  0  0  0  0  0
   -9.3380   -6.1270   -5.9750 H   0  0  0  0  0  0  0  0  0  0  0  0
   -9.2220   -4.4650   -5.4030 H   0  0  0  0  0  0  0  0  0  0  0  0
   -8.9270   -2.9660   -7.3470 H   0  0  0  0  0  0  0  0  0  0  0  0
   -6.2700   -5.3680   -9.5300 H   0  0  0  0  0  0  0  0  0  0  0  0
   -7.2220   -5.0370   -0.3070 H   0  0  0  0  0  0  0  0  0  0  0  0
   -8.2460   -6.1050   -1.2540 H   0  0  0  0  0  0  0  0  0  0  0  0
   -6.7940   -6.9460    0.8720 H   0  0  0  0  0  0  0  0  0  0  0  0
   -7.0930   -8.0250   -0.5230 H   0  0  0  0  0  0  0  0  0  0  0  0
   -3.9150   -6.7610   -2.5180 H   0  0  0  0  0  0  0  0  0  0  0  0
   -4.4960   -8.3970   -2.4800 H   0  0  0  0  0  0  0  0  0  0  0  0
   -6.7410   -7.5080   -2.9870 H   0  0  0  0  0  0  0  0  0  0  0  0
   -5.5770   -6.5570   -3.8460 H   0  0  0  0  0  0  0  0  0  0  0  0
  1  2  1  0
  2  3  2  3
  3  4  1  0
  4  5  1  0
  5  6  1  0
  6  7  1  0
  7  8  2  0
  8  9  1  0
  9 10  2  0
  2 11  1  0
 11 12  1  0
 12 13  1  0
 13 14  1  0
 14 15  1  0
 15 16  1  0
 10  6  1  0
 16 11  1  0
  1 17  1  0
  1 18  1  0
  4 19  1  0
  4 20  1  0
  5 21  1  0
  5 22  1  0
  7 23  1  0
  9 24  1  0
 12 25  1  0
 12 26  1  0
 13 27  1  0
 13 28  1  0
 15 29  1  0
 15 30  1  0
 16 31  1  0
 16 32  1  0
A    1
 N1 
A    2
 C1 
A    3
 N2 
A    4
 C2 
A    5
 C3 
A    6
 N3 
A    7
 C4 
A    8
 N4 
A    9
 C5 
A   10
 N5 
A   11
 N6 
A   12
 C6 
A   13
 C7 
A   14
 S1 
A   15
 C8 
A   16
 C9 
A   17
 H1 
A   18
 H2 
A   19
 H3 
A   20
 H4 
A   21
 H5 
A   22
 H6 
A   23
 H7 
A   24
 H8 
A   25
 H9 
A   26
 H10
A   27
 H11
A   28
 H12
A   29
 H13
A   30
 H14
A   31
 H15
A   32
 H16
M  END
>  <ref_pdb>  (149) 
x0147_0A

>  <ref_mols>  (149) 
x1071_0AS4,x1537_0A

>  <original SMILES>  (149) 
[H]c1nc([H])n(C([H])([H])C([H])([H])N=C(N([H])[H])N2C([H])([H])C([H])([H])SC([H])([H])C2([H])[H])n1

>  <index>  (149) 
7534

>  <∆∆G>  (149) 
-4.016766

>  <comRMSD>  (149) 
0.323477

>  <N_constrained_atoms>  (149) 
15.0

>  <N_unconstrained_atoms>  (149) 
2.0

>  <LE>  (149) 
0.23628

>  <percent_hybrid>  (149) 
40.0

>  <max_hit_Tanimoto>  (149) 
0.070496

>  <largest_ring>  (149) 
6

>  <N_interactions_kept>  (149) 
1.5

>  <N_interactions_lost>  (149) 
1.0

>  <interaction_uniqueness_metric>  (149) 
0.031429

>  <N_HA>  (149) 
16

>  <N_rotatable_bonds>  (149) 
3

>  <N_interactions>  (149) 
4

>  <N_PAINS>  (149) 
0

>  <UFF_Gibbs>  (149) 
68.222844

>  <strain_per_HA>  (149) 
4.263901

>  <ad_hoc_penalty>  (149) 
-24.519009

>  <cluster>  (149) 
1379

>  <ranked>  (149) 
182.0

>  <merger_rank>  (149) 
2

>  <hydroph_interaction:LEU:127>  (149) 
0

>  <hbond:GLY:128>  (149) 
1

>  <hydroph_interaction:ALA:144>  (149) 
0

>  <hbond:GLY:164>  (149) 
3

>  <hbond:HIS:40>  (149) 
0

>  <pistack:HIS:40>  (149) 
0

>  <hydroph_interaction:LEU:125>  (149) 
0

>  <hydroph_interaction:PHE:170>  (149) 
0

>  <hydroph_interaction:HIS:40>  (149) 
0

>  <pication:HIS:40>  (149) 
0

>  <hbond:THR:142>  (149) 
0

>  <hbond:HIS:161>  (149) 
0

>  <hbond:GLY:166>  (149) 
0

>  <hbond:VAL:162>  (149) 
0

>  <hydroph_interaction:ASN:165>  (149) 
0

>  <hbond:ASN:126>  (149) 
0

>  <hbond:ARG:143>  (149) 
0

>  <hbond:GLU:71>  (149) 
0

>  <saltbridge:HIS:161>  (149) 
0

>  <hbond:ALA:144>  (149) 
0

>  <hbond:GLY:145>  (149) 
0

>  <hbond:GLN:146>  (149) 
0

>  <hbond:CYS:147>  (149) 
0

>  <halogenbond:ASN:126>  (149) 
0

>  <saltbridge:HIS:40>  (149) 
0

>  <hbond:LEU:127>  (149) 
0

>  <hbond:THR:130>  (149) 
0

>  <hydroph_interaction:GLU:71>  (149) 
0

>  <hydroph_interaction:THR:130>  (149) 
0

>  <saltbridge:ARG:143>  (149) 
0

>  <saltbridge:GLU:71>  (149) 
0

>  <hbond:GLY:129>  (149) 
0

>  <halogenbond:CYS:147>  (149) 
0

>  <hydroph_interaction:THR:39>  (149) 
0

>  <hbond:ASN:69>  (149) 
0

>  <hydroph_interaction:THR:132>  (149) 
0

>  <hbond:TYR:122>  (149) 
0

>  <hydroph_interaction:PHE:109>  (149) 
0

>  <hydroph_interaction:PHE:140>  (149) 
0

>  <hbond:PRO:141>  (149) 
0

$$$$
Z2335305967-x1919-0AS2
     RDKit          3D

 59 62  0  0  0  0  0  0  0  0999 V2000
   -6.4140   -4.1120   -3.9950 O   0  0  0  0  0  0  0  0  0  0  0  0
   -6.7090   -4.6100   -2.9220 C   0  0  0  0  0  0  0  0  0  0  0  0
   -7.0860   -6.0950   -2.8200 C   0  0  0  0  0  0  0  0  0  0  0  0
   -5.9630   -7.0730   -3.2140 C   0  0  0  0  0  0  0  0  0  0  0  0
   -5.3660   -7.6240   -1.9220 C   0  0  0  0  0  0  0  0  0  0  0  0
   -6.2000   -8.5980   -1.1590 C   0  0  0  0  0  0  0  0  0  0  0  0
   -5.6630   -9.1620    0.1390 C   0  0  0  0  0  0  0  0  0  0  0  0
   -4.3540   -8.6930    0.5420 C   0  0  0  0  0  0  0  0  0  0  0  0
   -3.6820   -9.0770    1.6980 O   0  0  0  0  0  0  0  0  0  0  0  0
   -2.4880   -8.2320    1.7110 C   0  0  0  0  0  0  0  0  0  0  0  0
   -2.4800   -7.5220    0.3750 C   0  0  0  0  0  0  0  0  0  0  0  0
   -3.6720   -7.7920   -0.2430 C   0  0  0  0  0  0  0  0  0  0  0  0
   -4.1110   -7.2470   -1.4480 C   0  0  0  0  0  0  0  0  0  0  0  0
   -6.7290   -3.8970   -1.7160 N   0  0  0  0  0  0  0  0  0  0  0  0
   -7.5260   -2.6360   -1.4850 C   0  0  0  0  0  0  0  0  0  0  0  0
   -6.8490   -1.2570   -1.6890 C   0  0  0  0  0  0  0  0  0  0  0  0
   -6.0200   -1.0920   -2.5640 O   0  0  0  0  0  0  0  0  0  0  0  0
   -6.1990   -0.6670   -0.6340 C   0  0  0  0  0  0  0  0  0  0  0  0
   -5.8210    0.6500   -0.7340 C   0  0  0  0  0  0  0  0  0  0  0  0
   -6.9430    1.5140   -0.4900 N   0  0  0  0  0  0  0  0  0  0  0  0
   -6.8310    2.1810    0.8120 C   0  0  0  0  0  0  0  0  0  0  0  0
   -6.2920    3.6000    0.5930 C   0  0  0  0  0  0  0  0  0  0  0  0
   -6.6550    4.7070    1.5740 C   0  0  0  0  0  0  0  0  0  0  0  0
   -6.0860    6.0950    1.2910 C   0  0  0  0  0  0  0  0  0  0  0  0
   -5.2760    6.2750    0.1690 C   0  0  0  0  0  0  0  0  0  0  0  0
   -4.9580    5.1230   -0.7630 C   0  0  0  0  0  0  0  0  0  0  0  0
   -5.4730    3.8540   -0.5160 C   0  0  0  0  0  0  0  0  0  0  0  0
   -8.1540    0.7310   -0.7510 C   0  0  0  0  0  0  0  0  0  0  0  0
   -7.9640   -0.2330   -1.9380 C   0  0  0  0  0  0  0  0  0  0  0  0
   -7.9500   -6.2560   -3.4770 H   0  0  0  0  0  0  0  0  0  0  0  0
   -7.4140   -6.2690   -1.7890 H   0  0  0  0  0  0  0  0  0  0  0  0
   -6.4210   -7.9170   -3.7460 H   0  0  0  0  0  0  0  0  0  0  0  0
   -5.1200   -6.8210   -3.8430 H   0  0  0  0  0  0  0  0  0  0  0  0
   -7.1820   -8.9040   -1.5190 H   0  0  0  0  0  0  0  0  0  0  0  0
   -6.2230   -9.8720    0.7350 H   0  0  0  0  0  0  0  0  0  0  0  0
   -2.4920   -7.6940    2.6660 H   0  0  0  0  0  0  0  0  0  0  0  0
   -1.6170   -8.8980    1.7370 H   0  0  0  0  0  0  0  0  0  0  0  0
   -1.7250   -7.9870   -0.2520 H   0  0  0  0  0  0  0  0  0  0  0  0
   -2.1780   -6.4860    0.4030 H   0  0  0  0  0  0  0  0  0  0  0  0
   -3.4940   -6.5430   -2.0020 H   0  0  0  0  0  0  0  0  0  0  0  0
   -6.3590   -4.3440   -0.8740 H   0  0  0  0  0  0  0  0  0  0  0  0
   -7.9830   -2.7100   -0.4930 H   0  0  0  0  0  0  0  0  0  0  0  0
   -8.3570   -2.7200   -2.1910 H   0  0  0  0  0  0  0  0  0  0  0  0
   -6.4860   -1.1540   -3.4120 H   0  0  0  0  0  0  0  0  0  0  0  0
   -5.4150   -1.2210   -0.3640 H   0  0  0  0  0  0  0  0  0  0  0  0
   -6.8650   -0.7240    0.2360 H   0  0  0  0  0  0  0  0  0  0  0  0
   -5.3860    0.8430   -1.7210 H   0  0  0  0  0  0  0  0  0  0  0  0
   -5.0400    0.8620    0.0080 H   0  0  0  0  0  0  0  0  0  0  0  0
   -7.7370    2.2490    1.4270 H   0  0  0  0  0  0  0  0  0  0  0  0
   -6.1070    1.6280    1.4220 H   0  0  0  0  0  0  0  0  0  0  0  0
   -7.2900    4.5360    2.4410 H   0  0  0  0  0  0  0  0  0  0  0  0
   -6.3100    6.9380    1.9580 H   0  0  0  0  0  0  0  0  0  0  0  0
   -4.8650    7.2600   -0.0400 H   0  0  0  0  0  0  0  0  0  0  0  0
   -4.3250    5.2850   -1.6330 H   0  0  0  0  0  0  0  0  0  0  0  0
   -5.2340    3.0430   -1.2000 H   0  0  0  0  0  0  0  0  0  0  0  0
   -9.0180    1.3790   -0.9360 H   0  0  0  0  0  0  0  0  0  0  0  0
   -8.4110    0.1660    0.1530 H   0  0  0  0  0  0  0  0  0  0  0  0
   -8.9070   -0.7400   -2.1800 H   0  0  0  0  0  0  0  0  0  0  0  0
   -7.7160    0.3500   -2.8230 H   0  0  0  0  0  0  0  0  0  0  0  0
  1  2  2  0
  2  3  1  0
  3  4  1  0
  4  5  1  0
  5  6  2  0
  6  7  1  0
  7  8  2  0
  8  9  1  0
  9 10  1  0
 10 11  1  0
 11 12  1  0
 12 13  2  0
  2 14  1  0
 14 15  1  0
 15 16  1  0
 16 17  1  0
 16 18  1  0
 18 19  1  0
 19 20  1  0
 20 21  1  0
 21 22  1  0
 22 23  2  0
 23 24  1  0
 24 25  2  0
 25 26  1  0
 26 27  2  0
 20 28  1  0
 28 29  1  0
 13  5  1  0
 12  8  1  0
 29 16  1  0
 27 22  1  0
  3 30  1  0
  3 31  1  0
  4 32  1  0
  4 33  1  0
  6 34  1  0
  7 35  1  0
 10 36  1  0
 10 37  1  0
 11 38  1  0
 11 39  1  0
 13 40  1  0
 14 41  1  0
 15 42  1  0
 15 43  1  0
 17 44  1  0
 18 45  1  0
 18 46  1  0
 19 47  1  0
 19 48  1  0
 21 49  1  0
 21 50  1  0
 23 51  1  0
 24 52  1  0
 25 53  1  0
 26 54  1  0
 27 55  1  0
 28 56  1  0
 28 57  1  0
 29 58  1  0
 29 59  1  0
A    1
 O1 
A    2
 C1 
A    3
 C2 
A    4
 C3 
A    5
 C4 
A    6
 C5 
A    7
 C6 
A    8
 C7 
A    9
 O2 
A   10
 C8 
A   11
 C9 
A   12
 C10
A   13
 C11
A   14
 N1 
A   15
 C12
A   16
 C13
A   17
 O3 
A   18
 C14
A   19
 C15
A   20
 N2 
A   21
 C16
A   22
 C17
A   23
 C18
A   24
 C19
A   25
 C20
A   26
 C21
A   27
 C22
A   28
 C23
A   29
 C24
A   30
 H1 
A   31
 H2 
A   32
 H3 
A   33
 H4 
A   34
 H5 
A   35
 H6 
A   36
 H7 
A   37
 H8 
A   38
 H9 
A   39
 H10
A   40
 H11
A   41
 H12
A   42
 H13
A   43
 H14
A   44
 H15
A   45
 H16
A   46
 H17
A   47
 H18
A   48
 H19
A   49
 H20
A   50
 H21
A   51
 H22
A   52
 H23
A   53
 H24
A   54
 H25
A   55
 H26
A   56
 H27
A   57
 H28
A   58
 H29
A   59
 H30
M  END
>  <ref_pdb>  (150) 
x0147_0A

>  <ref_mols>  (150) 
x1919_0AS2,x1285_0B

>  <original SMILES>  (150) 
[H]OC1(C([H])([H])N([H])C(=O)C([H])([H])C([H])([H])c2c([H])c([H])c3c(c2[H])C([H])([H])C([H])([H])O3)C([H])([H])C([H])([H])N(C([H])([H])c2c([H])c([H])c([H])c([H])c2[H])C([H])([H])C1([H])[H]

>  <index>  (150) 
11717

>  <∆∆G>  (150) 
-5.820966

>  <comRMSD>  (150) 
0.597388

>  <N_constrained_atoms>  (150) 
28.0

>  <N_unconstrained_atoms>  (150) 
1.0

>  <LE>  (150) 
0.200723

>  <percent_hybrid>  (150) 
47.0

>  <max_hit_Tanimoto>  (150) 
0.278805

>  <largest_ring>  (150) 
6

>  <N_interactions_kept>  (150) 
1.0

>  <N_interactions_lost>  (150) 
4.0

>  <interaction_uniqueness_metric>  (150) 
0.152746

>  <N_HA>  (150) 
29

>  <N_rotatable_bonds>  (150) 
8

>  <N_interactions>  (150) 
10

>  <N_PAINS>  (150) 
0

>  <UFF_Gibbs>  (150) 
223.232917

>  <strain_per_HA>  (150) 
7.69766

>  <ad_hoc_penalty>  (150) 
-24.490905

>  <cluster>  (150) 
772

>  <ranked>  (150) 
183.0

>  <merger_rank>  (150) 
1

>  <hydroph_interaction:LEU:127>  (150) 
3

>  <hbond:GLY:128>  (150) 
1

>  <hydroph_interaction:ALA:144>  (150) 
0

>  <hbond:GLY:164>  (150) 
2

>  <hbond:HIS:40>  (150) 
0

>  <pistack:HIS:40>  (150) 
1

>  <hydroph_interaction:LEU:125>  (150) 
1

>  <hydroph_interaction:PHE:170>  (150) 
0

>  <hydroph_interaction:HIS:40>  (150) 
1

>  <pication:HIS:40>  (150) 
0

>  <hbond:THR:142>  (150) 
0

>  <hbond:HIS:161>  (150) 
0

>  <hbond:GLY:166>  (150) 
0

>  <hbond:VAL:162>  (150) 
0

>  <hydroph_interaction:ASN:165>  (150) 
1

>  <hbond:ASN:126>  (150) 
0

>  <hbond:ARG:143>  (150) 
0

>  <hbond:GLU:71>  (150) 
0

>  <saltbridge:HIS:161>  (150) 
0

>  <hbond:ALA:144>  (150) 
0

>  <hbond:GLY:145>  (150) 
0

>  <hbond:GLN:146>  (150) 
0

>  <hbond:CYS:147>  (150) 
0

>  <halogenbond:ASN:126>  (150) 
0

>  <saltbridge:HIS:40>  (150) 
0

>  <hbond:LEU:127>  (150) 
0

>  <hbond:THR:130>  (150) 
0

>  <hydroph_interaction:GLU:71>  (150) 
0

>  <hydroph_interaction:THR:130>  (150) 
0

>  <saltbridge:ARG:143>  (150) 
0

>  <saltbridge:GLU:71>  (150) 
0

>  <hbond:GLY:129>  (150) 
0

>  <halogenbond:CYS:147>  (150) 
0

>  <hydroph_interaction:THR:39>  (150) 
0

>  <hbond:ASN:69>  (150) 
0

>  <hydroph_interaction:THR:132>  (150) 
0

>  <hbond:TYR:122>  (150) 
0

>  <hydroph_interaction:PHE:109>  (150) 
0

>  <hydroph_interaction:PHE:140>  (150) 
0

>  <hbond:PRO:141>  (150) 
0

$$$$
Z2590787979-x2149-0AS2
     RDKit          3D

 38 40  0  0  0  0  0  0  0  0999 V2000
   -6.6860   -4.6930   -8.9490 O   0  0  0  0  0  0  0  0  0  0  0  0
   -7.2500   -5.2110   -7.9510 C   0  0  0  0  0  0  0  0  0  0  0  0
   -8.4190   -4.6290   -7.2240 C   0  0  0  0  0  0  0  0  0  0  0  0
   -8.5330   -5.5480   -6.0500 C   0  0  0  0  0  0  0  0  0  0  0  0
   -7.3860   -6.3480   -5.8730 C   0  0  1  0  0  0  0  0  0  0  0  0
   -7.5500   -7.5920   -5.2330 C   0  0  0  0  0  0  0  0  0  0  0  0
   -7.0790   -7.6160   -3.8030 N   0  0  0  0  0  0  0  0  0  0  0  0
   -5.7550   -7.9200   -3.6690 C   0  0  0  0  0  0  0  0  0  0  0  0
   -5.3320   -8.1360   -2.2280 C   0  0  0  0  0  0  0  0  0  0  0  0
   -6.2270   -9.0220   -1.3470 C   0  0  0  0  0  0  0  0  0  0  0  0
   -5.7450   -9.2270    0.0980 C   0  0  0  0  0  0  0  0  0  0  0  0
   -4.6090   -8.6370    0.4830 C   0  0  0  0  0  0  0  0  0  0  0  0
   -3.8810   -8.6540    1.8090 C   0  0  0  0  0  0  0  0  0  0  0  0
   -2.7330   -7.9620    1.6340 C   0  0  0  0  0  0  0  0  0  0  0  0
   -2.6130   -7.3140    0.3560 C   0  0  0  0  0  0  0  0  0  0  0  0
   -3.8530   -7.8560   -0.3380 C   0  0  0  0  0  0  0  0  0  0  0  0
   -4.1520   -7.5730   -1.6670 C   0  0  0  0  0  0  0  0  0  0  0  0
   -6.9140   -6.4110   -7.2820 N   0  0  0  0  0  0  0  0  0  0  0  0
   -8.2340   -3.6050   -6.8870 H   0  0  0  0  0  0  0  0  0  0  0  0
   -9.3140   -4.6660   -7.8580 H   0  0  0  0  0  0  0  0  0  0  0  0
   -8.7750   -5.0130   -5.1260 H   0  0  0  0  0  0  0  0  0  0  0  0
   -9.3830   -6.2050   -6.2540 H   0  0  0  0  0  0  0  0  0  0  0  0
   -6.6750   -5.7900   -5.2610 H   0  0  0  0  0  0  0  0  0  0  0  0
   -8.6060   -7.8860   -5.2870 H   0  0  0  0  0  0  0  0  0  0  0  0
   -7.0040   -8.3560   -5.7840 H   0  0  0  0  0  0  0  0  0  0  0  0
   -7.3100   -6.8100   -3.2270 H   0  0  0  0  0  0  0  0  0  0  0  0
   -5.2800   -7.2560   -4.3770 H   0  0  0  0  0  0  0  0  0  0  0  0
   -5.6870   -8.8530   -4.2400 H   0  0  0  0  0  0  0  0  0  0  0  0
   -7.1430   -9.4730   -1.7400 H   0  0  0  0  0  0  0  0  0  0  0  0
   -6.3260   -9.8490    0.7930 H   0  0  0  0  0  0  0  0  0  0  0  0
   -4.6070   -8.3890    2.5850 H   0  0  0  0  0  0  0  0  0  0  0  0
   -3.6210   -9.6910    2.0400 H   0  0  0  0  0  0  0  0  0  0  0  0
   -2.6090   -7.2010    2.4120 H   0  0  0  0  0  0  0  0  0  0  0  0
   -1.8990   -8.6610    1.7630 H   0  0  0  0  0  0  0  0  0  0  0  0
   -2.6770   -6.2390    0.5100 H   0  0  0  0  0  0  0  0  0  0  0  0
   -1.7210   -7.6120   -0.1860 H   0  0  0  0  0  0  0  0  0  0  0  0
   -3.4970   -6.9460   -2.2590 H   0  0  0  0  0  0  0  0  0  0  0  0
   -6.1570   -6.9950   -7.6190 H   0  0  0  0  0  0  0  0  0  0  0  0
  1  2  2  0
  2  3  1  0
  3  4  1  0
  4  5  1  0
  5  6  1  0
  6  7  1  0
  7  8  1  0
  8  9  1  0
  9 10  2  0
 10 11  1  0
 11 12  2  0
 12 13  1  0
 13 14  1  0
 14 15  1  0
 15 16  1  0
 16 17  2  0
  5 18  1  0
 18  2  1  0
 17  9  1  0
 16 12  1  0
  3 19  1  0
  3 20  1  0
  4 21  1  0
  4 22  1  0
  5 23  1  1
  6 24  1  0
  6 25  1  0
  7 26  1  0
  8 27  1  0
  8 28  1  0
 10 29  1  0
 11 30  1  0
 13 31  1  0
 13 32  1  0
 14 33  1  0
 14 34  1  0
 15 35  1  0
 15 36  1  0
 17 37  1  0
 18 38  1  0
A    1
 O1 
A    2
 C1 
A    3
 C2 
A    4
 C3 
A    5
 C4 
A    6
 C5 
A    7
 N1 
A    8
 C6 
A    9
 C7 
A   10
 C8 
A   11
 C9 
A   12
 C10
A   13
 C11
A   14
 C12
A   15
 C13
A   16
 C14
A   17
 C15
A   18
 N2 
A   19
 H1 
A   20
 H2 
A   21
 H3 
A   22
 H4 
A   23
 H5 
A   24
 H6 
A   25
 H7 
A   26
 H8 
A   27
 H9 
A   28
 H10
A   29
 H11
A   30
 H12
A   31
 H13
A   32
 H14
A   33
 H15
A   34
 H16
A   35
 H17
A   36
 H18
A   37
 H19
A   38
 H20
M  END
>  <ref_pdb>  (151) 
x0147_0A

>  <ref_mols>  (151) 
x2149_0AS2,x1140_0AS2

>  <original SMILES>  (151) 
[H]c1c([H])c2c(c([H])c1C([H])([H])N([H])C([H])([H])[C@@]1([H])N([H])C(=O)C([H])([H])C1([H])[H])C([H])([H])C([H])([H])C2([H])[H]

>  <index>  (151) 
9497

>  <∆∆G>  (151) 
-6.717074

>  <comRMSD>  (151) 
0.481954

>  <N_constrained_atoms>  (151) 
17.0

>  <N_unconstrained_atoms>  (151) 
2.0

>  <LE>  (151) 
0.35353

>  <percent_hybrid>  (151) 
42.0

>  <max_hit_Tanimoto>  (151) 
0.166667

>  <largest_ring>  (151) 
6

>  <N_interactions_kept>  (151) 
2.5

>  <N_interactions_lost>  (151) 
1.0

>  <interaction_uniqueness_metric>  (151) 
0.032151

>  <N_HA>  (151) 
18

>  <N_rotatable_bonds>  (151) 
4

>  <N_interactions>  (151) 
2

>  <N_PAINS>  (151) 
0

>  <UFF_Gibbs>  (151) 
106.831202

>  <strain_per_HA>  (151) 
5.935034

>  <ad_hoc_penalty>  (151) 
-24.460021

>  <cluster>  (151) 
2239

>  <ranked>  (151) 
184.0

>  <merger_rank>  (151) 
3

>  <hydroph_interaction:LEU:127>  (151) 
0

>  <hbond:GLY:128>  (151) 
0

>  <hydroph_interaction:ALA:144>  (151) 
0

>  <hbond:GLY:164>  (151) 
0

>  <hbond:HIS:40>  (151) 
0

>  <pistack:HIS:40>  (151) 
1

>  <hydroph_interaction:LEU:125>  (151) 
0

>  <hydroph_interaction:PHE:170>  (151) 
0

>  <hydroph_interaction:HIS:40>  (151) 
1

>  <pication:HIS:40>  (151) 
0

>  <hbond:THR:142>  (151) 
0

>  <hbond:HIS:161>  (151) 
0

>  <hbond:GLY:166>  (151) 
0

>  <hbond:VAL:162>  (151) 
0

>  <hydroph_interaction:ASN:165>  (151) 
0

>  <hbond:ASN:126>  (151) 
0

>  <hbond:ARG:143>  (151) 
0

>  <hbond:GLU:71>  (151) 
0

>  <saltbridge:HIS:161>  (151) 
0

>  <hbond:ALA:144>  (151) 
0

>  <hbond:GLY:145>  (151) 
0

>  <hbond:GLN:146>  (151) 
0

>  <hbond:CYS:147>  (151) 
0

>  <halogenbond:ASN:126>  (151) 
0

>  <saltbridge:HIS:40>  (151) 
0

>  <hbond:LEU:127>  (151) 
0

>  <hbond:THR:130>  (151) 
0

>  <hydroph_interaction:GLU:71>  (151) 
0

>  <hydroph_interaction:THR:130>  (151) 
0

>  <saltbridge:ARG:143>  (151) 
0

>  <saltbridge:GLU:71>  (151) 
0

>  <hbond:GLY:129>  (151) 
0

>  <halogenbond:CYS:147>  (151) 
0

>  <hydroph_interaction:THR:39>  (151) 
0

>  <hbond:ASN:69>  (151) 
0

>  <hydroph_interaction:THR:132>  (151) 
0

>  <hbond:TYR:122>  (151) 
0

>  <hydroph_interaction:PHE:109>  (151) 
0

>  <hydroph_interaction:PHE:140>  (151) 
0

>  <hbond:PRO:141>  (151) 
0

$$$$
Z2518182650-x1071-0AS4
     RDKit          3D

 38 39  0  0  0  0  0  0  0  0999 V2000
   -6.5300   -3.6180   -2.4700 N   0  0  0  0  0  0  0  0  0  0  0  0
   -6.8690   -4.8050   -3.0580 C   0  0  0  0  0  0  0  0  0  0  0  0
   -7.4140   -4.9740   -4.2110 N   0  0  0  0  0  0  0  0  0  0  0  0
   -7.7110   -6.3380   -4.6910 C   0  0  0  0  0  0  0  0  0  0  0  0
   -8.6760   -6.3920   -5.8770 C   0  0  0  0  0  0  0  0  0  0  0  0
   -8.3950   -5.3300   -6.9080 C   0  0  0  0  0  0  0  0  0  0  0  0
   -9.3690   -4.1630   -6.6560 C   0  0  0  0  0  0  0  0  0  0  0  0
   -9.1190   -3.0640   -7.6490 C   0  0  0  0  0  0  0  0  0  0  0  0
   -8.0420   -3.2270   -8.6770 C   0  0  0  0  0  0  0  0  0  0  0  0
   -7.2600   -4.3490   -8.7740 C   0  0  0  0  0  0  0  0  0  0  0  0
   -7.4210   -5.4000   -7.9050 C   0  0  0  0  0  0  0  0  0  0  0  0
   -6.6390   -6.4790   -8.0230 F   0  0  0  0  0  0  0  0  0  0  0  0
   -6.5660   -5.8970   -2.2620 N   0  0  0  0  0  0  0  0  0  0  0  0
   -6.5770   -5.8120   -0.8150 C   0  0  0  0  0  0  0  0  0  0  0  0
   -6.2930   -7.0750   -0.2820 C   0  0  0  0  0  0  0  0  0  0  0  0
   -5.2530   -7.7890   -0.9040 C   0  0  0  0  0  0  0  0  0  0  0  0
   -4.7440   -7.2210   -2.0630 C   0  0  0  0  0  0  0  0  0  0  0  0
   -5.8990   -7.0620   -2.8260 C   0  0  0  0  0  0  0  0  0  0  0  0
   -6.3960   -3.6780   -1.4740 H   0  0  0  0  0  0  0  0  0  0  0  0
   -7.2080   -2.8950   -2.6930 H   0  0  0  0  0  0  0  0  0  0  0  0
   -6.7910   -6.8620   -4.9810 H   0  0  0  0  0  0  0  0  0  0  0  0
   -8.1140   -6.9180   -3.8510 H   0  0  0  0  0  0  0  0  0  0  0  0
   -9.7090   -6.3030   -5.5220 H   0  0  0  0  0  0  0  0  0  0  0  0
   -8.6000   -7.3590   -6.3840 H   0  0  0  0  0  0  0  0  0  0  0  0
  -10.1100   -4.1710   -5.8630 H   0  0  0  0  0  0  0  0  0  0  0  0
   -9.7140   -2.1540   -7.6230 H   0  0  0  0  0  0  0  0  0  0  0  0
   -7.9740   -2.3570   -9.3130 H   0  0  0  0  0  0  0  0  0  0  0  0
   -6.4830   -4.4840   -9.5200 H   0  0  0  0  0  0  0  0  0  0  0  0
   -7.5580   -5.4590   -0.4790 H   0  0  0  0  0  0  0  0  0  0  0  0
   -5.8210   -5.0900   -0.5050 H   0  0  0  0  0  0  0  0  0  0  0  0
   -5.9070   -6.8560    0.7210 H   0  0  0  0  0  0  0  0  0  0  0  0
   -7.1600   -7.6830   -0.0490 H   0  0  0  0  0  0  0  0  0  0  0  0
   -5.5460   -8.7750   -1.2500 H   0  0  0  0  0  0  0  0  0  0  0  0
   -4.4590   -8.0030   -0.1940 H   0  0  0  0  0  0  0  0  0  0  0  0
   -4.0330   -7.8780   -2.5550 H   0  0  0  0  0  0  0  0  0  0  0  0
   -4.0850   -6.3700   -1.9550 H   0  0  0  0  0  0  0  0  0  0  0  0
   -6.5890   -7.9140   -2.7830 H   0  0  0  0  0  0  0  0  0  0  0  0
   -5.8210   -6.8490   -3.8810 H   0  0  0  0  0  0  0  0  0  0  0  0
  1  2  1  0
  2  3  2  3
  3  4  1  0
  4  5  1  0
  5  6  1  0
  6  7  2  0
  7  8  1  0
  8  9  2  0
  9 10  1  0
 10 11  2  0
 11 12  1  0
  2 13  1  0
 13 14  1  0
 14 15  1  0
 15 16  1  0
 16 17  1  0
 17 18  1  0
 11  6  1  0
 18 13  1  0
  1 19  1  0
  1 20  1  0
  4 21  1  0
  4 22  1  0
  5 23  1  0
  5 24  1  0
  7 25  1  0
  8 26  1  0
  9 27  1  0
 10 28  1  0
 14 29  1  0
 14 30  1  0
 15 31  1  0
 15 32  1  0
 16 33  1  0
 16 34  1  0
 17 35  1  0
 17 36  1  0
 18 37  1  0
 18 38  1  0
A    1
 N1 
A    2
 C1 
A    3
 N2 
A    4
 C2 
A    5
 C3 
A    6
 C4 
A    7
 C5 
A    8
 C6 
A    9
 C7 
A   10
 C8 
A   11
 C9 
A   12
 F1 
A   13
 N3 
A   14
 C10
A   15
 C11
A   16
 C12
A   17
 C13
A   18
 C14
A   19
 H1 
A   20
 H2 
A   21
 H3 
A   22
 H4 
A   23
 H5 
A   24
 H6 
A   25
 H7 
A   26
 H8 
A   27
 H9 
A   28
 H10
A   29
 H11
A   30
 H12
A   31
 H13
A   32
 H14
A   33
 H15
A   34
 H16
A   35
 H17
A   36
 H18
A   37
 H19
A   38
 H20
M  END
>  <ref_pdb>  (152) 
x0147_0A

>  <ref_mols>  (152) 
x1071_0AS4,x0980_0BS5

>  <original SMILES>  (152) 
[H]c1c([H])c([H])c(C([H])([H])C([H])([H])N=C(N([H])[H])N2C([H])([H])C([H])([H])C([H])([H])C([H])([H])C2([H])[H])c(F)c1[H]

>  <index>  (152) 
10504

>  <∆∆G>  (152) 
-4.227796

>  <comRMSD>  (152) 
0.588297

>  <N_constrained_atoms>  (152) 
15.0

>  <N_unconstrained_atoms>  (152) 
3.0

>  <LE>  (152) 
0.234878

>  <percent_hybrid>  (152) 
40.0

>  <max_hit_Tanimoto>  (152) 
0.145408

>  <largest_ring>  (152) 
6

>  <N_interactions_kept>  (152) 
0.0

>  <N_interactions_lost>  (152) 
1.5

>  <interaction_uniqueness_metric>  (152) 
0.15366

>  <N_HA>  (152) 
18

>  <N_rotatable_bonds>  (152) 
3

>  <N_interactions>  (152) 
7

>  <N_PAINS>  (152) 
0

>  <UFF_Gibbs>  (152) 
317.724579

>  <strain_per_HA>  (152) 
17.651267

>  <ad_hoc_penalty>  (152) 
-24.456312

>  <cluster>  (152) 
4777

>  <ranked>  (152) 
185.0

>  <merger_rank>  (152) 
3

>  <hydroph_interaction:LEU:127>  (152) 
1

>  <hbond:GLY:128>  (152) 
1

>  <hydroph_interaction:ALA:144>  (152) 
1

>  <hbond:GLY:164>  (152) 
3

>  <hbond:HIS:40>  (152) 
0

>  <pistack:HIS:40>  (152) 
0

>  <hydroph_interaction:LEU:125>  (152) 
0

>  <hydroph_interaction:PHE:170>  (152) 
0

>  <hydroph_interaction:HIS:40>  (152) 
0

>  <pication:HIS:40>  (152) 
0

>  <hbond:THR:142>  (152) 
0

>  <hbond:HIS:161>  (152) 
0

>  <hbond:GLY:166>  (152) 
0

>  <hbond:VAL:162>  (152) 
0

>  <hydroph_interaction:ASN:165>  (152) 
0

>  <hbond:ASN:126>  (152) 
0

>  <hbond:ARG:143>  (152) 
0

>  <hbond:GLU:71>  (152) 
0

>  <saltbridge:HIS:161>  (152) 
0

>  <hbond:ALA:144>  (152) 
0

>  <hbond:GLY:145>  (152) 
0

>  <hbond:GLN:146>  (152) 
0

>  <hbond:CYS:147>  (152) 
0

>  <halogenbond:ASN:126>  (152) 
0

>  <saltbridge:HIS:40>  (152) 
0

>  <hbond:LEU:127>  (152) 
0

>  <hbond:THR:130>  (152) 
0

>  <hydroph_interaction:GLU:71>  (152) 
0

>  <hydroph_interaction:THR:130>  (152) 
0

>  <saltbridge:ARG:143>  (152) 
0

>  <saltbridge:GLU:71>  (152) 
0

>  <hbond:GLY:129>  (152) 
0

>  <halogenbond:CYS:147>  (152) 
1

>  <hydroph_interaction:THR:39>  (152) 
0

>  <hbond:ASN:69>  (152) 
0

>  <hydroph_interaction:THR:132>  (152) 
0

>  <hbond:TYR:122>  (152) 
0

>  <hydroph_interaction:PHE:109>  (152) 
0

>  <hydroph_interaction:PHE:140>  (152) 
0

>  <hbond:PRO:141>  (152) 
0

$$$$
Z3245430056-x0771-1AS2
     RDKit          3D

 35 36  0  0  0  0  0  0  0  0999 V2000
  -12.8570   -1.4660   -6.8510 C   0  0  0  0  0  0  0  0  0  0  0  0
  -11.7840   -2.4660   -6.4920 C   0  0  0  0  0  0  0  0  0  0  0  0
  -10.9060   -2.2650   -5.2880 C   0  0  0  0  0  0  0  0  0  0  0  0
  -12.5790   -3.6930   -6.2230 C   0  0  0  0  0  0  0  0  0  0  0  0
  -11.7940   -4.8310   -6.2940 C   0  0  0  0  0  0  0  0  0  0  0  0
  -12.1770   -5.9510   -5.9870 O   0  0  0  0  0  0  0  0  0  0  0  0
  -10.4960   -4.7750   -6.7400 C   0  0  0  0  0  0  0  0  0  0  0  0
   -9.7330   -5.8400   -6.4490 C   0  0  0  0  0  0  0  0  0  0  0  0
   -8.3290   -5.8830   -6.8880 C   0  0  0  0  0  0  0  0  0  0  0  0
   -7.7790   -7.1570   -6.3870 N   0  0  0  0  0  0  0  0  0  0  0  0
   -6.7220   -7.8890   -6.8320 C   0  0  0  0  0  0  0  0  0  0  0  0
   -5.5030   -7.4240   -6.9520 O   0  0  0  0  0  0  0  0  0  0  0  0
   -6.9920   -9.2300   -7.0930 C   0  0  0  0  0  0  0  0  0  0  0  0
   -6.5090  -10.1180   -5.9550 C   0  0  0  0  0  0  0  0  0  0  0  0
   -6.8790   -9.1440   -4.3180 Br  0  0  0  0  0  0  0  0  0  0  0  0
   -7.8040   -4.6790   -7.6920 C   0  0  0  0  0  0  0  0  0  0  0  0
   -8.6980   -3.6020   -7.9320 C   0  0  0  0  0  0  0  0  0  0  0  0
  -10.0370   -3.6760   -7.4370 C   0  0  0  0  0  0  0  0  0  0  0  0
  -10.9100   -2.6410   -7.6360 O   0  0  0  0  0  0  0  0  0  0  0  0
  -13.8320   -1.7730   -6.4520 H   0  0  0  0  0  0  0  0  0  0  0  0
  -12.9530   -1.3570   -7.9340 H   0  0  0  0  0  0  0  0  0  0  0  0
  -12.6450   -0.4880   -6.4090 H   0  0  0  0  0  0  0  0  0  0  0  0
  -11.1900   -1.3780   -4.7040 H   0  0  0  0  0  0  0  0  0  0  0  0
  -10.9990   -3.1370   -4.6260 H   0  0  0  0  0  0  0  0  0  0  0  0
   -9.8590   -2.1620   -5.6070 H   0  0  0  0  0  0  0  0  0  0  0  0
  -13.4060   -3.7780   -6.9390 H   0  0  0  0  0  0  0  0  0  0  0  0
  -13.0080   -3.6180   -5.2170 H   0  0  0  0  0  0  0  0  0  0  0  0
  -10.1540   -6.6650   -5.8850 H   0  0  0  0  0  0  0  0  0  0  0  0
   -8.2490   -7.5500   -5.5760 H   0  0  0  0  0  0  0  0  0  0  0  0
   -6.7500   -9.3620   -8.1510 H   0  0  0  0  0  0  0  0  0  0  0  0
   -8.0730   -9.3500   -7.0420 H   0  0  0  0  0  0  0  0  0  0  0  0
   -5.4190  -10.2010   -6.0080 H   0  0  0  0  0  0  0  0  0  0  0  0
   -6.8950  -11.1260   -5.8080 H   0  0  0  0  0  0  0  0  0  0  0  0
   -6.7840   -4.6290   -8.0630 H   0  0  0  0  0  0  0  0  0  0  0  0
   -8.2820   -2.7620   -8.4970 H   0  0  0  0  0  0  0  0  0  0  0  0
  1  2  1  0
  2  3  1  0
  2  4  1  0
  4  5  1  0
  5  6  2  0
  5  7  1  0
  7  8  2  0
  8  9  1  0
  9 10  1  0
 10 11  1  0
 11 12  2  0
 11 13  1  0
 13 14  1  0
 14 15  1  0
  9 16  2  0
 16 17  1  0
 17 18  2  0
 18 19  1  0
 19  2  1  0
 18  7  1  0
  1 20  1  0
  1 21  1  0
  1 22  1  0
  3 23  1  0
  3 24  1  0
  3 25  1  0
  4 26  1  0
  4 27  1  0
  8 28  1  0
 10 29  1  0
 13 30  1  0
 13 31  1  0
 14 32  1  0
 14 33  1  0
 16 34  1  0
 17 35  1  0
A    1
 C1 
A    2
 C2 
A    3
 C3 
A    4
 C4 
A    5
 C5 
A    6
 O1 
A    7
 C6 
A    8
 C7 
A    9
 C8 
A   10
 N1 
A   11
 C9 
A   12
 O2 
A   13
 C10
A   14
 C11
A   15
BR1 
A   16
 C12
A   17
 C13
A   18
 C14
A   19
 O3 
A   20
 H1 
A   21
 H2 
A   22
 H3 
A   23
 H4 
A   24
 H5 
A   25
 H6 
A   26
 H7 
A   27
 H8 
A   28
 H9 
A   29
 H10
A   30
 H11
A   31
 H12
A   32
 H13
A   33
 H14
A   34
 H15
A   35
 H16
M  END
>  <ref_pdb>  (153) 
x0147_0A

>  <ref_mols>  (153) 
x0771_1AS2,x1604_0A

>  <original SMILES>  (153) 
[H]c1c([H])c(N([H])C(=O)C([H])([H])C([H])([H])Br)c([H])c2c1OC(C([H])([H])[H])(C([H])([H])[H])C([H])([H])C2=O

>  <index>  (153) 
13990

>  <∆∆G>  (153) 
-6.336502

>  <comRMSD>  (153) 
0.868929

>  <N_constrained_atoms>  (153) 
19.0

>  <N_unconstrained_atoms>  (153) 
1.0

>  <LE>  (153) 
0.316825

>  <percent_hybrid>  (153) 
23.0

>  <max_hit_Tanimoto>  (153) 
0.354571

>  <largest_ring>  (153) 
6

>  <N_interactions_kept>  (153) 
3.0

>  <N_interactions_lost>  (153) 
0.0

>  <interaction_uniqueness_metric>  (153) 
0.064685

>  <N_HA>  (153) 
19

>  <N_rotatable_bonds>  (153) 
5

>  <N_interactions>  (153) 
1

>  <N_PAINS>  (153) 
0

>  <UFF_Gibbs>  (153) 
155.028631

>  <strain_per_HA>  (153) 
8.159359

>  <ad_hoc_penalty>  (153) 
-24.421412

>  <cluster>  (153) 
347

>  <ranked>  (153) 
187.0

>  <merger_rank>  (153) 
3

>  <hydroph_interaction:LEU:127>  (153) 
0

>  <hbond:GLY:128>  (153) 
0

>  <hydroph_interaction:ALA:144>  (153) 
0

>  <hbond:GLY:164>  (153) 
0

>  <hbond:HIS:40>  (153) 
0

>  <pistack:HIS:40>  (153) 
0

>  <hydroph_interaction:LEU:125>  (153) 
0

>  <hydroph_interaction:PHE:170>  (153) 
0

>  <hydroph_interaction:HIS:40>  (153) 
0

>  <pication:HIS:40>  (153) 
0

>  <hbond:THR:142>  (153) 
0

>  <hbond:HIS:161>  (153) 
0

>  <hbond:GLY:166>  (153) 
1

>  <hbond:VAL:162>  (153) 
0

>  <hydroph_interaction:ASN:165>  (153) 
0

>  <hbond:ASN:126>  (153) 
0

>  <hbond:ARG:143>  (153) 
0

>  <hbond:GLU:71>  (153) 
0

>  <saltbridge:HIS:161>  (153) 
0

>  <hbond:ALA:144>  (153) 
0

>  <hbond:GLY:145>  (153) 
0

>  <hbond:GLN:146>  (153) 
0

>  <hbond:CYS:147>  (153) 
0

>  <halogenbond:ASN:126>  (153) 
0

>  <saltbridge:HIS:40>  (153) 
0

>  <hbond:LEU:127>  (153) 
0

>  <hbond:THR:130>  (153) 
0

>  <hydroph_interaction:GLU:71>  (153) 
0

>  <hydroph_interaction:THR:130>  (153) 
0

>  <saltbridge:ARG:143>  (153) 
0

>  <saltbridge:GLU:71>  (153) 
0

>  <hbond:GLY:129>  (153) 
0

>  <halogenbond:CYS:147>  (153) 
0

>  <hydroph_interaction:THR:39>  (153) 
0

>  <hbond:ASN:69>  (153) 
0

>  <hydroph_interaction:THR:132>  (153) 
0

>  <hbond:TYR:122>  (153) 
0

>  <hydroph_interaction:PHE:109>  (153) 
0

>  <hydroph_interaction:PHE:140>  (153) 
0

>  <hbond:PRO:141>  (153) 
0

$$$$
Z437583642-x1071-0AS6
     RDKit          3D

 27 27  0  0  0  0  0  0  0  0999 V2000
   -6.4910    0.5830   -1.9360 C   0  0  0  0  0  0  0  0  0  0  0  0
   -6.4050   -0.7720   -1.3130 C   0  0  0  0  0  0  0  0  0  0  0  0
   -6.1620   -0.8750   -0.1220 O   0  0  0  0  0  0  0  0  0  0  0  0
   -6.6200   -1.8330   -2.1840 N   0  0  0  0  0  0  0  0  0  0  0  0
   -6.6810   -3.2150   -1.7330 C   0  0  0  0  0  0  0  0  0  0  0  0
   -6.6330   -4.3050   -2.8180 C   0  0  0  0  0  0  0  0  0  0  0  0
   -6.6890   -4.0540   -4.0090 O   0  0  0  0  0  0  0  0  0  0  0  0
   -6.4920   -5.6820   -2.3060 N   0  0  0  0  0  0  0  0  0  0  0  0
   -7.2020   -5.9370   -1.0330 C   0  0  0  0  0  0  0  0  0  0  0  0
   -6.5840   -7.1440   -0.2650 C   0  0  0  0  0  0  0  0  0  0  0  0
   -4.8150   -7.3180   -0.4830 S   0  0  0  0  0  0  0  0  0  0  0  0
   -4.7530   -7.5070   -2.2770 C   0  0  0  0  0  0  0  0  0  0  0  0
   -5.8860   -6.7930   -3.0270 C   0  0  0  0  0  0  0  0  0  0  0  0
   -6.3720    0.5150   -3.0150 H   0  0  0  0  0  0  0  0  0  0  0  0
   -7.4710    1.0200   -1.7310 H   0  0  0  0  0  0  0  0  0  0  0  0
   -5.7020    1.2180   -1.5270 H   0  0  0  0  0  0  0  0  0  0  0  0
   -6.8770   -1.6300   -3.1420 H   0  0  0  0  0  0  0  0  0  0  0  0
   -7.5840   -3.3220   -1.1190 H   0  0  0  0  0  0  0  0  0  0  0  0
   -5.8260   -3.3450   -1.0920 H   0  0  0  0  0  0  0  0  0  0  0  0
   -8.2490   -6.1460   -1.2710 H   0  0  0  0  0  0  0  0  0  0  0  0
   -7.2280   -5.0450   -0.4040 H   0  0  0  0  0  0  0  0  0  0  0  0
   -7.0250   -8.0920   -0.5880 H   0  0  0  0  0  0  0  0  0  0  0  0
   -6.7650   -7.0700    0.8120 H   0  0  0  0  0  0  0  0  0  0  0  0
   -3.7690   -7.1700   -2.6110 H   0  0  0  0  0  0  0  0  0  0  0  0
   -4.8430   -8.5800   -2.4890 H   0  0  0  0  0  0  0  0  0  0  0  0
   -6.6770   -7.4950   -3.3040 H   0  0  0  0  0  0  0  0  0  0  0  0
   -5.4780   -6.3890   -3.9640 H   0  0  0  0  0  0  0  0  0  0  0  0
  1  2  1  0
  2  3  2  0
  2  4  1  0
  4  5  1  0
  5  6  1  0
  6  7  2  0
  6  8  1  0
  8  9  1  0
  9 10  1  0
 10 11  1  0
 11 12  1  0
 12 13  1  0
 13  8  1  0
  1 14  1  0
  1 15  1  0
  1 16  1  0
  4 17  1  0
  5 18  1  0
  5 19  1  0
  9 20  1  0
  9 21  1  0
 10 22  1  0
 10 23  1  0
 12 24  1  0
 12 25  1  0
 13 26  1  0
 13 27  1  0
A    1
 C1 
A    2
 C2 
A    3
 O1 
A    4
 N1 
A    5
 C3 
A    6
 C4 
A    7
 O2 
A    8
 N2 
A    9
 C5 
A   10
 C6 
A   11
 S1 
A   12
 C7 
A   13
 C8 
A   14
 H1 
A   15
 H2 
A   16
 H3 
A   17
 H4 
A   18
 H5 
A   19
 H6 
A   20
 H7 
A   21
 H8 
A   22
 H9 
A   23
 H10
A   24
 H11
A   25
 H12
A   26
 H13
A   27
 H14
M  END
>  <ref_pdb>  (154) 
x0147_0A

>  <ref_mols>  (154) 
x1071_0AS6,x1052_1AS1

>  <original SMILES>  (154) 
[H]N(C(=O)C([H])([H])[H])C([H])([H])C(=O)N1C([H])([H])C([H])([H])SC([H])([H])C1([H])[H]

>  <index>  (154) 
6287

>  <∆∆G>  (154) 
-7.237074

>  <comRMSD>  (154) 
0.790677

>  <N_constrained_atoms>  (154) 
15.0

>  <N_unconstrained_atoms>  (154) 
0.0

>  <LE>  (154) 
0.482472

>  <percent_hybrid>  (154) 
36.0

>  <max_hit_Tanimoto>  (154) 
0.312757

>  <largest_ring>  (154) 
6

>  <N_interactions_kept>  (154) 
0.0

>  <N_interactions_lost>  (154) 
3.0

>  <interaction_uniqueness_metric>  (154) 
0.095854

>  <N_HA>  (154) 
13

>  <N_rotatable_bonds>  (154) 
3

>  <N_interactions>  (154) 
4

>  <N_PAINS>  (154) 
0

>  <UFF_Gibbs>  (154) 
33.592408

>  <strain_per_HA>  (154) 
2.584012

>  <ad_hoc_penalty>  (154) 
-24.331198

>  <cluster>  (154) 
5847

>  <ranked>  (154) 
188.0

>  <merger_rank>  (154) 
2

>  <hydroph_interaction:LEU:127>  (154) 
0

>  <hbond:GLY:128>  (154) 
1

>  <hydroph_interaction:ALA:144>  (154) 
0

>  <hbond:GLY:164>  (154) 
1

>  <hbond:HIS:40>  (154) 
0

>  <pistack:HIS:40>  (154) 
0

>  <hydroph_interaction:LEU:125>  (154) 
0

>  <hydroph_interaction:PHE:170>  (154) 
1

>  <hydroph_interaction:HIS:40>  (154) 
0

>  <pication:HIS:40>  (154) 
0

>  <hbond:THR:142>  (154) 
0

>  <hbond:HIS:161>  (154) 
0

>  <hbond:GLY:166>  (154) 
0

>  <hbond:VAL:162>  (154) 
0

>  <hydroph_interaction:ASN:165>  (154) 
1

>  <hbond:ASN:126>  (154) 
0

>  <hbond:ARG:143>  (154) 
0

>  <hbond:GLU:71>  (154) 
0

>  <saltbridge:HIS:161>  (154) 
0

>  <hbond:ALA:144>  (154) 
0

>  <hbond:GLY:145>  (154) 
0

>  <hbond:GLN:146>  (154) 
0

>  <hbond:CYS:147>  (154) 
0

>  <halogenbond:ASN:126>  (154) 
0

>  <saltbridge:HIS:40>  (154) 
0

>  <hbond:LEU:127>  (154) 
0

>  <hbond:THR:130>  (154) 
0

>  <hydroph_interaction:GLU:71>  (154) 
0

>  <hydroph_interaction:THR:130>  (154) 
0

>  <saltbridge:ARG:143>  (154) 
0

>  <saltbridge:GLU:71>  (154) 
0

>  <hbond:GLY:129>  (154) 
0

>  <halogenbond:CYS:147>  (154) 
0

>  <hydroph_interaction:THR:39>  (154) 
0

>  <hbond:ASN:69>  (154) 
0

>  <hydroph_interaction:THR:132>  (154) 
0

>  <hbond:TYR:122>  (154) 
0

>  <hydroph_interaction:PHE:109>  (154) 
0

>  <hydroph_interaction:PHE:140>  (154) 
0

>  <hbond:PRO:141>  (154) 
0

$$$$
Z1050957708-x1329-0A
     RDKit          3D

 48 49  0  0  0  0  0  0  0  0999 V2000
   -4.0540   -7.2700    1.5130 C   0  0  0  0  0  0  0  0  0  0  0  0
   -5.3300   -7.4090    0.8840 O   0  0  0  0  0  0  0  0  0  0  0  0
   -5.4080   -8.5320   -0.0050 C   0  0  0  0  0  0  0  0  0  0  0  0
   -5.3430   -9.7020    0.3540 O   0  0  0  0  0  0  0  0  0  0  0  0
   -5.5600   -8.1250   -1.3410 C   0  0  1  0  0  0  0  0  0  0  0  0
   -6.3470   -9.0380   -2.0540 C   0  0  0  0  0  0  0  0  0  0  0  0
   -6.6350   -8.6470   -3.3510 C   0  0  0  0  0  0  0  0  0  0  0  0
   -7.3300   -7.3050   -3.4640 C   0  0  0  0  0  0  0  0  0  0  0  0
   -6.7870   -6.3220   -2.6660 N   0  0  0  0  0  0  0  0  0  0  0  0
   -7.1380   -4.9180   -2.9370 C   0  0  0  0  0  0  0  0  0  0  0  0
   -6.5040   -4.1080   -3.6390 O   0  0  0  0  0  0  0  0  0  0  0  0
   -8.4510   -4.3880   -2.3300 C   0  0  0  0  0  0  0  0  0  0  0  0
   -9.6710   -3.6800   -3.0140 C   0  0  0  0  0  0  0  0  0  0  0  0
   -9.6120   -3.9710   -4.5080 C   0  0  0  0  0  0  0  0  0  0  0  0
  -10.8650   -4.0740   -5.0570 N   0  0  0  0  0  0  0  0  0  0  0  0
  -10.9010   -4.1720   -6.5160 C   0  0  0  0  0  0  0  0  0  0  0  0
  -12.0000   -4.1710   -7.3170 O   0  0  0  0  0  0  0  0  0  0  0  0
   -9.5730   -4.2680   -7.2470 C   0  0  0  0  0  0  0  0  0  0  0  0
   -8.6790   -5.4880   -7.1860 C   0  0  0  0  0  0  0  0  0  0  0  0
   -7.4730   -5.5640   -7.8670 C   0  0  0  0  0  0  0  0  0  0  0  0
   -7.0600   -4.5010   -8.6260 C   0  0  0  0  0  0  0  0  0  0  0  0
   -7.9730   -3.2920   -8.6610 C   0  0  0  0  0  0  0  0  0  0  0  0
   -9.1640   -3.1870   -8.0050 C   0  0  0  0  0  0  0  0  0  0  0  0
   -6.2610   -6.7450   -1.3370 C   0  0  0  0  0  0  0  0  0  0  0  0
   -3.5990   -8.2600    1.6040 H   0  0  0  0  0  0  0  0  0  0  0  0
   -3.3840   -6.6360    0.9230 H   0  0  0  0  0  0  0  0  0  0  0  0
   -4.1620   -6.8440    2.5180 H   0  0  0  0  0  0  0  0  0  0  0  0
   -4.6170   -7.9170   -1.8380 H   0  0  0  0  0  0  0  0  0  0  0  0
   -7.1780   -9.4230   -1.4710 H   0  0  0  0  0  0  0  0  0  0  0  0
   -5.7080   -9.9240   -2.1540 H   0  0  0  0  0  0  0  0  0  0  0  0
   -7.2740   -9.4140   -3.8060 H   0  0  0  0  0  0  0  0  0  0  0  0
   -5.7050   -8.6210   -3.9350 H   0  0  0  0  0  0  0  0  0  0  0  0
   -7.2940   -6.9870   -4.5150 H   0  0  0  0  0  0  0  0  0  0  0  0
   -8.3970   -7.4090   -3.2230 H   0  0  0  0  0  0  0  0  0  0  0  0
   -8.1530   -3.7060   -1.5230 H   0  0  0  0  0  0  0  0  0  0  0  0
   -8.8690   -5.2690   -1.8250 H   0  0  0  0  0  0  0  0  0  0  0  0
  -10.6190   -4.0400   -2.5950 H   0  0  0  0  0  0  0  0  0  0  0  0
   -9.6400   -2.5980   -2.8320 H   0  0  0  0  0  0  0  0  0  0  0  0
   -9.0450   -3.1950   -5.0350 H   0  0  0  0  0  0  0  0  0  0  0  0
   -9.1070   -4.9250   -4.7010 H   0  0  0  0  0  0  0  0  0  0  0  0
  -11.6420   -4.4380   -4.5110 H   0  0  0  0  0  0  0  0  0  0  0  0
   -8.9810   -6.3560   -6.5900 H   0  0  0  0  0  0  0  0  0  0  0  0
   -6.8560   -6.4670   -7.8000 H   0  0  0  0  0  0  0  0  0  0  0  0
   -6.1140   -4.6090   -9.1400 H   0  0  0  0  0  0  0  0  0  0  0  0
   -7.7100   -2.4250   -9.2290 H   0  0  0  0  0  0  0  0  0  0  0  0
   -9.7540   -2.2720   -8.0940 H   0  0  0  0  0  0  0  0  0  0  0  0
   -5.5870   -5.9780   -0.9430 H   0  0  0  0  0  0  0  0  0  0  0  0
   -7.1180   -6.7760   -0.6680 H   0  0  0  0  0  0  0  0  0  0  0  0
  1  2  1  0
  2  3  1  0
  3  4  2  0
  3  5  1  0
  5  6  1  0
  6  7  1  0
  7  8  1  0
  8  9  1  0
  9 10  1  0
 10 11  2  0
 10 12  1  0
 12 13  1  0
 13 14  1  0
 14 15  1  0
 15 16  1  0
 16 17  2  0
 16 18  1  0
 18 19  2  0
 19 20  1  0
 20 21  2  0
 21 22  1  0
 22 23  2  0
  9 24  1  0
 24  5  1  0
 23 18  1  0
  1 25  1  0
  1 26  1  0
  1 27  1  0
  5 28  1  6
  6 29  1  0
  6 30  1  0
  7 31  1  0
  7 32  1  0
  8 33  1  0
  8 34  1  0
 12 35  1  0
 12 36  1  0
 13 37  1  0
 13 38  1  0
 14 39  1  0
 14 40  1  0
 15 41  1  0
 19 42  1  0
 20 43  1  0
 21 44  1  0
 22 45  1  0
 23 46  1  0
 24 47  1  0
 24 48  1  0
A    1
 C1 
A    2
 O1 
A    3
 C2 
A    4
 O2 
A    5
 C3 
A    6
 C4 
A    7
 C5 
A    8
 C6 
A    9
 N1 
A   10
 C7 
A   11
 O3 
A   12
 C8 
A   13
 C9 
A   14
 C10
A   15
 N2 
A   16
 C11
A   17
 O4 
A   18
 C12
A   19
 C13
A   20
 C14
A   21
 C15
A   22
 C16
A   23
 C17
A   24
 C18
A   25
 H1 
A   26
 H2 
A   27
 H3 
A   28
 H4 
A   29
 H5 
A   30
 H6 
A   31
 H7 
A   32
 H8 
A   33
 H9 
A   34
 H10
A   35
 H11
A   36
 H12
A   37
 H13
A   38
 H14
A   39
 H15
A   40
 H16
A   41
 H17
A   42
 H18
A   43
 H19
A   44
 H20
A   45
 H21
A   46
 H22
A   47
 H23
A   48
 H24
M  END
>  <ref_pdb>  (155) 
x0147_0A

>  <ref_mols>  (155) 
x1329_0A,x0980_0BS4

>  <original SMILES>  (155) 
[H]c1c([H])c([H])c(C(=O)N([H])C([H])([H])C([H])([H])C([H])([H])C(=O)N2C([H])([H])C([H])([H])C([H])([H])[C@]([H])(C(=O)OC([H])([H])[H])C2([H])[H])c([H])c1[H]

>  <index>  (155) 
8237

>  <∆∆G>  (155) 
-7.702734

>  <comRMSD>  (155) 
0.597812

>  <N_constrained_atoms>  (155) 
23.0

>  <N_unconstrained_atoms>  (155) 
2.0

>  <LE>  (155) 
0.308109

>  <percent_hybrid>  (155) 
40.0

>  <max_hit_Tanimoto>  (155) 
0.24878

>  <largest_ring>  (155) 
6

>  <N_interactions_kept>  (155) 
1.5

>  <N_interactions_lost>  (155) 
1.0

>  <interaction_uniqueness_metric>  (155) 
0.063897

>  <N_HA>  (155) 
24

>  <N_rotatable_bonds>  (155) 
7

>  <N_interactions>  (155) 
2

>  <N_PAINS>  (155) 
0

>  <UFF_Gibbs>  (155) 
137.309699

>  <strain_per_HA>  (155) 
5.721214

>  <ad_hoc_penalty>  (155) 
-24.31918

>  <cluster>  (155) 
551

>  <ranked>  (155) 
189.0

>  <merger_rank>  (155) 
3

>  <hydroph_interaction:LEU:127>  (155) 
0

>  <hbond:GLY:128>  (155) 
0

>  <hydroph_interaction:ALA:144>  (155) 
0

>  <hbond:GLY:164>  (155) 
1

>  <hbond:HIS:40>  (155) 
0

>  <pistack:HIS:40>  (155) 
0

>  <hydroph_interaction:LEU:125>  (155) 
0

>  <hydroph_interaction:PHE:170>  (155) 
0

>  <hydroph_interaction:HIS:40>  (155) 
0

>  <pication:HIS:40>  (155) 
0

>  <hbond:THR:142>  (155) 
0

>  <hbond:HIS:161>  (155) 
0

>  <hbond:GLY:166>  (155) 
0

>  <hbond:VAL:162>  (155) 
0

>  <hydroph_interaction:ASN:165>  (155) 
0

>  <hbond:ASN:126>  (155) 
0

>  <hbond:ARG:143>  (155) 
0

>  <hbond:GLU:71>  (155) 
0

>  <saltbridge:HIS:161>  (155) 
0

>  <hbond:ALA:144>  (155) 
0

>  <hbond:GLY:145>  (155) 
0

>  <hbond:GLN:146>  (155) 
0

>  <hbond:CYS:147>  (155) 
0

>  <halogenbond:ASN:126>  (155) 
0

>  <saltbridge:HIS:40>  (155) 
1

>  <hbond:LEU:127>  (155) 
0

>  <hbond:THR:130>  (155) 
0

>  <hydroph_interaction:GLU:71>  (155) 
0

>  <hydroph_interaction:THR:130>  (155) 
0

>  <saltbridge:ARG:143>  (155) 
0

>  <saltbridge:GLU:71>  (155) 
0

>  <hbond:GLY:129>  (155) 
0

>  <halogenbond:CYS:147>  (155) 
0

>  <hydroph_interaction:THR:39>  (155) 
0

>  <hbond:ASN:69>  (155) 
0

>  <hydroph_interaction:THR:132>  (155) 
0

>  <hbond:TYR:122>  (155) 
0

>  <hydroph_interaction:PHE:109>  (155) 
0

>  <hydroph_interaction:PHE:140>  (155) 
0

>  <hbond:PRO:141>  (155) 
0

$$$$
PV-002316565510-x1084-0AS1
     RDKit          3D

 25 25  0  0  0  0  0  0  0  0999 V2000
   -6.4880   -7.0020   -4.7970 C   0  0  0  0  0  0  0  0  0  0  0  0
   -7.1340   -6.1170   -3.7630 C   0  0  0  0  0  0  0  0  0  0  0  0
   -7.3140   -6.4950   -2.6050 O   0  0  0  0  0  0  0  0  0  0  0  0
   -7.5080   -4.8680   -4.2310 N   0  0  0  0  0  0  0  0  0  0  0  0
   -8.9030   -4.4260   -4.1430 C   0  0  0  0  0  0  0  0  0  0  0  0
   -9.7080   -4.5660   -5.4520 C   0  0  0  0  0  0  0  0  0  0  0  0
   -8.8520   -4.5060   -6.6880 C   0  0  0  0  0  0  0  0  0  0  0  0
   -8.8110   -3.3730   -7.4960 C   0  0  0  0  0  0  0  0  0  0  0  0
   -8.0020   -3.3600   -8.6130 C   0  0  0  0  0  0  0  0  0  0  0  0
   -7.2290   -4.4610   -8.9460 C   0  0  0  0  0  0  0  0  0  0  0  0
   -7.2630   -5.5910   -8.1560 C   0  0  0  0  0  0  0  0  0  0  0  0
   -8.0730   -5.6150   -7.0300 C   0  0  0  0  0  0  0  0  0  0  0  0
   -5.4240   -7.1110   -4.5620 H   0  0  0  0  0  0  0  0  0  0  0  0
   -6.5880   -6.5960   -5.8040 H   0  0  0  0  0  0  0  0  0  0  0  0
   -6.9680   -7.9810   -4.7820 H   0  0  0  0  0  0  0  0  0  0  0  0
   -6.8020   -4.1470   -4.1940 H   0  0  0  0  0  0  0  0  0  0  0  0
   -9.3670   -5.0200   -3.3450 H   0  0  0  0  0  0  0  0  0  0  0  0
   -8.9110   -3.3810   -3.8080 H   0  0  0  0  0  0  0  0  0  0  0  0
  -10.2730   -5.5070   -5.4440 H   0  0  0  0  0  0  0  0  0  0  0  0
  -10.4650   -3.7730   -5.5060 H   0  0  0  0  0  0  0  0  0  0  0  0
   -9.4050   -2.4940   -7.2590 H   0  0  0  0  0  0  0  0  0  0  0  0
   -7.9820   -2.4730   -9.2220 H   0  0  0  0  0  0  0  0  0  0  0  0
   -6.6040   -4.4340   -9.8240 H   0  0  0  0  0  0  0  0  0  0  0  0
   -6.6580   -6.4570   -8.4160 H   0  0  0  0  0  0  0  0  0  0  0  0
   -8.0950   -6.5100   -6.4140 H   0  0  0  0  0  0  0  0  0  0  0  0
  1  2  1  0
  2  3  2  0
  2  4  1  0
  4  5  1  0
  5  6  1  0
  6  7  1  0
  7  8  2  0
  8  9  1  0
  9 10  2  0
 10 11  1  0
 11 12  2  0
 12  7  1  0
  1 13  1  0
  1 14  1  0
  1 15  1  0
  4 16  1  0
  5 17  1  0
  5 18  1  0
  6 19  1  0
  6 20  1  0
  8 21  1  0
  9 22  1  0
 10 23  1  0
 11 24  1  0
 12 25  1  0
A    1
 C1 
A    2
 C2 
A    3
 O1 
A    4
 N1 
A    5
 C3 
A    6
 C4 
A    7
 C5 
A    8
 C6 
A    9
 C7 
A   10
 C8 
A   11
 C9 
A   12
 C10
A   13
 H1 
A   14
 H2 
A   15
 H3 
A   16
 H4 
A   17
 H5 
A   18
 H6 
A   19
 H7 
A   20
 H8 
A   21
 H9 
A   22
 H10
A   23
 H11
A   24
 H12
A   25
 H13
M  END
>  <ref_pdb>  (156) 
x0147_0A

>  <ref_mols>  (156) 
x1084_0AS1,x0980_0BS5

>  <original SMILES>  (156) 
[H]c1c([H])c([H])c(C([H])([H])C([H])([H])N([H])C(=O)C([H])([H])[H])c([H])c1[H]

>  <index>  (156) 
15387

>  <∆∆G>  (156) 
-5.556155

>  <comRMSD>  (156) 
0.713243

>  <N_constrained_atoms>  (156) 
10.0

>  <N_unconstrained_atoms>  (156) 
2.0

>  <LE>  (156) 
0.463013

>  <percent_hybrid>  (156) 
40.0

>  <max_hit_Tanimoto>  (156) 
0.065789

>  <largest_ring>  (156) 
6

>  <N_interactions_kept>  (156) 
0.0

>  <N_interactions_lost>  (156) 
0.0

>  <interaction_uniqueness_metric>  (156) 
0.014663

>  <N_HA>  (156) 
12

>  <N_rotatable_bonds>  (156) 
4

>  <N_interactions>  (156) 
2

>  <N_PAINS>  (156) 
0

>  <UFF_Gibbs>  (156) 
75.866437

>  <strain_per_HA>  (156) 
6.32215

>  <ad_hoc_penalty>  (156) 
-24.317678

>  <cluster>  (156) 
3497

>  <ranked>  (156) 
190.0

>  <merger_rank>  (156) 
2

>  <hydroph_interaction:LEU:127>  (156) 
0

>  <hbond:GLY:128>  (156) 
0

>  <hydroph_interaction:ALA:144>  (156) 
0

>  <hbond:GLY:164>  (156) 
2

>  <hbond:HIS:40>  (156) 
0

>  <pistack:HIS:40>  (156) 
0

>  <hydroph_interaction:LEU:125>  (156) 
0

>  <hydroph_interaction:PHE:170>  (156) 
0

>  <hydroph_interaction:HIS:40>  (156) 
0

>  <pication:HIS:40>  (156) 
0

>  <hbond:THR:142>  (156) 
0

>  <hbond:HIS:161>  (156) 
0

>  <hbond:GLY:166>  (156) 
0

>  <hbond:VAL:162>  (156) 
0

>  <hydroph_interaction:ASN:165>  (156) 
0

>  <hbond:ASN:126>  (156) 
0

>  <hbond:ARG:143>  (156) 
0

>  <hbond:GLU:71>  (156) 
0

>  <saltbridge:HIS:161>  (156) 
0

>  <hbond:ALA:144>  (156) 
0

>  <hbond:GLY:145>  (156) 
0

>  <hbond:GLN:146>  (156) 
0

>  <hbond:CYS:147>  (156) 
0

>  <halogenbond:ASN:126>  (156) 
0

>  <saltbridge:HIS:40>  (156) 
0

>  <hbond:LEU:127>  (156) 
0

>  <hbond:THR:130>  (156) 
0

>  <hydroph_interaction:GLU:71>  (156) 
0

>  <hydroph_interaction:THR:130>  (156) 
0

>  <saltbridge:ARG:143>  (156) 
0

>  <saltbridge:GLU:71>  (156) 
0

>  <hbond:GLY:129>  (156) 
0

>  <halogenbond:CYS:147>  (156) 
0

>  <hydroph_interaction:THR:39>  (156) 
0

>  <hbond:ASN:69>  (156) 
0

>  <hydroph_interaction:THR:132>  (156) 
0

>  <hbond:TYR:122>  (156) 
0

>  <hydroph_interaction:PHE:109>  (156) 
0

>  <hydroph_interaction:PHE:140>  (156) 
0

>  <hbond:PRO:141>  (156) 
0

$$$$
Z5324887223-x2149-0AS6
     RDKit          3D

 40 40  0  0  0  0  0  0  0  0999 V2000
   -9.2680   -2.6860   -7.6040 C   0  0  0  0  0  0  0  0  0  0  0  0
   -9.4350   -4.1400   -7.1940 C   0  0  0  0  0  0  0  0  0  0  0  0
   -8.2010   -4.8840   -6.6690 C   0  0  0  0  0  0  0  0  0  0  0  0
   -7.6550   -4.1790   -5.4620 N   0  0  0  0  0  0  0  0  0  0  0  0
   -7.0640   -4.6480   -4.3020 C   0  0  0  0  0  0  0  0  0  0  0  0
   -6.5420   -6.3320   -3.8330 S   0  0  0  0  0  0  0  0  0  0  0  0
   -6.8230   -3.6810   -3.3650 N   0  0  0  0  0  0  0  0  0  0  0  0
   -6.9150   -3.7750   -1.9190 C   0  0  0  0  0  0  0  0  0  0  0  0
   -7.7540   -2.6270   -1.3490 C   0  0  0  0  0  0  0  0  0  0  0  0
   -7.2890   -1.3480   -1.8550 C   0  0  0  0  0  0  0  0  0  0  0  0
   -6.7740   -0.4230   -0.9410 C   0  0  0  0  0  0  0  0  0  0  0  0
   -6.0970   -0.7190    0.0250 O   0  0  0  0  0  0  0  0  0  0  0  0
   -7.1300    0.8430   -1.2740 O   0  0  0  0  0  0  0  0  0  0  0  0
   -6.0390    1.7550   -1.1810 C   0  0  0  0  0  0  0  0  0  0  0  0
   -8.6020   -6.2990   -6.2620 C   0  0  0  0  0  0  0  0  0  0  0  0
   -7.3640   -7.0490   -6.5710 C   0  0  0  0  0  0  0  0  0  0  0  0
   -6.8230   -6.4400   -7.7380 N   0  0  0  0  0  0  0  0  0  0  0  0
   -7.2070   -5.1330   -7.8470 C   0  0  0  0  0  0  0  0  0  0  0  0
   -6.7560   -4.3000   -8.8440 O   0  0  0  0  0  0  0  0  0  0  0  0
  -10.0950   -2.3820   -8.2540 H   0  0  0  0  0  0  0  0  0  0  0  0
   -9.2710   -2.0260   -6.7350 H   0  0  0  0  0  0  0  0  0  0  0  0
   -8.3360   -2.5420   -8.1550 H   0  0  0  0  0  0  0  0  0  0  0  0
   -9.8510   -4.6930   -8.0420 H   0  0  0  0  0  0  0  0  0  0  0  0
  -10.1910   -4.1800   -6.4020 H   0  0  0  0  0  0  0  0  0  0  0  0
   -7.7120   -3.1520   -5.4140 H   0  0  0  0  0  0  0  0  0  0  0  0
   -6.9630   -2.7430   -3.7570 H   0  0  0  0  0  0  0  0  0  0  0  0
   -5.9060   -3.9140   -1.5290 H   0  0  0  0  0  0  0  0  0  0  0  0
   -7.4230   -4.7260   -1.7280 H   0  0  0  0  0  0  0  0  0  0  0  0
   -7.6480   -2.5800   -0.2710 H   0  0  0  0  0  0  0  0  0  0  0  0
   -8.8060   -2.8770   -1.5320 H   0  0  0  0  0  0  0  0  0  0  0  0
   -8.0850   -0.9720   -2.5070 H   0  0  0  0  0  0  0  0  0  0  0  0
   -6.4600   -1.5310   -2.5480 H   0  0  0  0  0  0  0  0  0  0  0  0
   -5.3750    1.6470   -2.0440 H   0  0  0  0  0  0  0  0  0  0  0  0
   -6.4430    2.7710   -1.1790 H   0  0  0  0  0  0  0  0  0  0  0  0
   -5.4950    1.6040   -0.2500 H   0  0  0  0  0  0  0  0  0  0  0  0
   -9.4890   -6.5580   -6.8130 H   0  0  0  0  0  0  0  0  0  0  0  0
   -8.9020   -6.2900   -5.2210 H   0  0  0  0  0  0  0  0  0  0  0  0
   -7.6050   -8.0990   -6.7690 H   0  0  0  0  0  0  0  0  0  0  0  0
   -6.6130   -6.9960   -5.7810 H   0  0  0  0  0  0  0  0  0  0  0  0
   -6.0360   -6.7910   -8.2700 H   0  0  0  0  0  0  0  0  0  0  0  0
  1  2  1  0
  2  3  1  0
  3  4  1  0
  4  5  1  0
  5  6  2  0
  5  7  1  0
  7  8  1  0
  8  9  1  0
  9 10  1  0
 10 11  1  0
 11 12  2  0
 11 13  1  0
 13 14  1  0
  3 15  1  0
 15 16  1  0
 16 17  1  0
 17 18  1  0
 18 19  2  0
 18  3  1  0
  1 20  1  0
  1 21  1  0
  1 22  1  0
  2 23  1  0
  2 24  1  0
  4 25  1  0
  7 26  1  0
  8 27  1  0
  8 28  1  0
  9 29  1  0
  9 30  1  0
 10 31  1  0
 10 32  1  0
 14 33  1  0
 14 34  1  0
 14 35  1  0
 15 36  1  0
 15 37  1  0
 16 38  1  0
 16 39  1  0
 17 40  1  0
A    1
 C1 
A    2
 C2 
A    3
 C3 
A    4
 N1 
A    5
 C4 
A    6
 S1 
A    7
 N2 
A    8
 C5 
A    9
 C6 
A   10
 C7 
A   11
 C8 
A   12
 O1 
A   13
 O2 
A   14
 C9 
A   15
 C10
A   16
 C11
A   17
 N3 
A   18
 C12
A   19
 O3 
A   20
 H1 
A   21
 H2 
A   22
 H3 
A   23
 H4 
A   24
 H5 
A   25
 H6 
A   26
 H7 
A   27
 H8 
A   28
 H9 
A   29
 H10
A   30
 H11
A   31
 H12
A   32
 H13
A   33
 H14
A   34
 H15
A   35
 H16
A   36
 H17
A   37
 H18
A   38
 H19
A   39
 H20
A   40
 H21
M  END
>  <ref_pdb>  (157) 
x0147_0A

>  <ref_mols>  (157) 
x2149_0AS6,x1052_1AS4

>  <original SMILES>  (157) 
[H]N(C(=S)N([H])C1(C([H])([H])C([H])([H])[H])C(=O)N([H])C([H])([H])C1([H])[H])C([H])([H])C([H])([H])C([H])([H])C(=O)OC([H])([H])[H]

>  <index>  (157) 
3221

>  <∆∆G>  (157) 
-8.835842

>  <comRMSD>  (157) 
0.429665

>  <N_constrained_atoms>  (157) 
16.0

>  <N_unconstrained_atoms>  (157) 
3.0

>  <LE>  (157) 
0.465044

>  <percent_hybrid>  (157) 
50.0

>  <max_hit_Tanimoto>  (157) 
0.300654

>  <largest_ring>  (157) 
5

>  <N_interactions_kept>  (157) 
1.0

>  <N_interactions_lost>  (157) 
2.0

>  <interaction_uniqueness_metric>  (157) 
0.055098

>  <N_HA>  (157) 
19

>  <N_rotatable_bonds>  (157) 
8

>  <N_interactions>  (157) 
5

>  <N_PAINS>  (157) 
0

>  <UFF_Gibbs>  (157) 
180.776981

>  <strain_per_HA>  (157) 
9.514528

>  <ad_hoc_penalty>  (157) 
-24.317299

>  <cluster>  (157) 
2608

>  <ranked>  (157) 
191.0

>  <merger_rank>  (157) 
1

>  <hydroph_interaction:LEU:127>  (157) 
0

>  <hbond:GLY:128>  (157) 
1

>  <hydroph_interaction:ALA:144>  (157) 
1

>  <hbond:GLY:164>  (157) 
3

>  <hbond:HIS:40>  (157) 
0

>  <pistack:HIS:40>  (157) 
0

>  <hydroph_interaction:LEU:125>  (157) 
0

>  <hydroph_interaction:PHE:170>  (157) 
0

>  <hydroph_interaction:HIS:40>  (157) 
0

>  <pication:HIS:40>  (157) 
0

>  <hbond:THR:142>  (157) 
0

>  <hbond:HIS:161>  (157) 
0

>  <hbond:GLY:166>  (157) 
0

>  <hbond:VAL:162>  (157) 
0

>  <hydroph_interaction:ASN:165>  (157) 
0

>  <hbond:ASN:126>  (157) 
0

>  <hbond:ARG:143>  (157) 
0

>  <hbond:GLU:71>  (157) 
0

>  <saltbridge:HIS:161>  (157) 
0

>  <hbond:ALA:144>  (157) 
0

>  <hbond:GLY:145>  (157) 
0

>  <hbond:GLN:146>  (157) 
0

>  <hbond:CYS:147>  (157) 
0

>  <halogenbond:ASN:126>  (157) 
0

>  <saltbridge:HIS:40>  (157) 
0

>  <hbond:LEU:127>  (157) 
0

>  <hbond:THR:130>  (157) 
0

>  <hydroph_interaction:GLU:71>  (157) 
0

>  <hydroph_interaction:THR:130>  (157) 
0

>  <saltbridge:ARG:143>  (157) 
0

>  <saltbridge:GLU:71>  (157) 
0

>  <hbond:GLY:129>  (157) 
0

>  <halogenbond:CYS:147>  (157) 
0

>  <hydroph_interaction:THR:39>  (157) 
0

>  <hbond:ASN:69>  (157) 
0

>  <hydroph_interaction:THR:132>  (157) 
0

>  <hbond:TYR:122>  (157) 
0

>  <hydroph_interaction:PHE:109>  (157) 
0

>  <hydroph_interaction:PHE:140>  (157) 
0

>  <hbond:PRO:141>  (157) 
0

$$$$
Z1047717142-x1071-0AS2
     RDKit          3D

 36 36  0  0  0  0  0  0  0  0999 V2000
   -7.8260    0.5430   -1.4460 C   0  0  0  0  0  0  0  0  0  0  0  0
   -6.4460   -0.5970   -1.2260 S   0  0  0  0  0  6  0  0  0  0  0  0
   -5.2990   -0.0640   -1.9150 O   0  0  0  0  0  0  0  0  0  0  0  0
   -6.4080   -0.9340    0.1640 O   0  0  0  0  0  0  0  0  0  0  0  0
   -6.9660   -1.9350   -2.1080 N   0  0  0  0  0  0  0  0  0  0  0  0
   -6.0610   -3.1060   -2.1960 C   0  0  0  0  0  0  0  0  0  0  0  0
   -6.7200   -4.3900   -2.7200 C   0  0  0  0  0  0  0  0  0  0  0  0
   -7.4380   -4.0950   -3.9680 N   0  0  0  0  0  0  0  0  0  0  0  0
   -8.6120   -4.7790   -4.3090 C   0  0  0  0  0  0  0  0  0  0  0  0
   -8.7430   -6.4420   -4.4840 S   0  0  0  0  0  0  0  0  0  0  0  0
   -9.7190   -3.8410   -4.4960 N   0  0  0  0  0  0  0  0  0  0  0  0
  -10.8820   -4.2210   -5.1390 N   0  0  0  0  0  0  0  0  0  0  0  0
  -10.8470   -4.2800   -6.5160 C   0  0  0  0  0  0  0  0  0  0  0  0
  -11.8720   -4.1950   -7.2000 O   0  0  0  0  0  0  0  0  0  0  0  0
   -9.5190   -4.4330   -7.2290 C   0  0  0  0  0  0  0  0  0  0  0  0
   -9.1110   -3.2460   -8.0130 C   0  0  0  0  0  0  0  0  0  0  0  0
   -7.9470   -3.2220   -8.7170 C   0  0  0  0  0  0  0  0  0  0  0  0
   -7.1090   -4.3180   -8.7170 C   0  0  0  0  0  0  0  0  0  0  0  0
   -7.4840   -5.5430   -7.9290 C   0  0  0  0  0  0  0  0  0  0  0  0
   -8.6740   -5.5630   -7.2110 C   0  0  0  0  0  0  0  0  0  0  0  0
   -8.4980    0.1900   -2.2320 H   0  0  0  0  0  0  0  0  0  0  0  0
   -7.4680    1.5410   -1.7100 H   0  0  0  0  0  0  0  0  0  0  0  0
   -8.3830    0.6320   -0.5070 H   0  0  0  0  0  0  0  0  0  0  0  0
   -7.3120   -1.6000   -3.0050 H   0  0  0  0  0  0  0  0  0  0  0  0
   -5.6460   -3.3180   -1.2190 H   0  0  0  0  0  0  0  0  0  0  0  0
   -5.2440   -2.8390   -2.8710 H   0  0  0  0  0  0  0  0  0  0  0  0
   -7.4230   -4.7910   -1.9820 H   0  0  0  0  0  0  0  0  0  0  0  0
   -5.9570   -5.1560   -2.8980 H   0  0  0  0  0  0  0  0  0  0  0  0
   -7.3940   -3.1170   -4.2630 H   0  0  0  0  0  0  0  0  0  0  0  0
   -9.5010   -2.8500   -4.6200 H   0  0  0  0  0  0  0  0  0  0  0  0
  -11.5030   -4.8220   -4.6010 H   0  0  0  0  0  0  0  0  0  0  0  0
   -9.7660   -2.3670   -8.0260 H   0  0  0  0  0  0  0  0  0  0  0  0
   -7.7950   -2.2860   -9.2330 H   0  0  0  0  0  0  0  0  0  0  0  0
   -6.1880   -4.2870   -9.2820 H   0  0  0  0  0  0  0  0  0  0  0  0
   -6.8140   -6.4110   -7.9300 H   0  0  0  0  0  0  0  0  0  0  0  0
   -8.8720   -6.4890   -6.6690 H   0  0  0  0  0  0  0  0  0  0  0  0
  1  2  1  0
  2  3  2  0
  2  4  2  0
  2  5  1  0
  5  6  1  0
  6  7  1  0
  7  8  1  0
  8  9  1  0
  9 10  2  0
  9 11  1  0
 11 12  1  0
 12 13  1  0
 13 14  2  0
 13 15  1  0
 15 16  2  0
 16 17  1  0
 17 18  2  0
 18 19  1  0
 19 20  2  0
 20 15  1  0
  1 21  1  0
  1 22  1  0
  1 23  1  0
  5 24  1  0
  6 25  1  0
  6 26  1  0
  7 27  1  0
  7 28  1  0
  8 29  1  0
 11 30  1  0
 12 31  1  0
 16 32  1  0
 17 33  1  0
 18 34  1  0
 19 35  1  0
 20 36  1  0
A    1
 C1 
A    2
 S1 
A    3
 O1 
A    4
 O2 
A    5
 N1 
A    6
 C2 
A    7
 C3 
A    8
 N2 
A    9
 C4 
A   10
 S2 
A   11
 N3 
A   12
 N4 
A   13
 C5 
A   14
 O3 
A   15
 C6 
A   16
 C7 
A   17
 C8 
A   18
 C9 
A   19
 C10
A   20
 C11
A   21
 H1 
A   22
 H2 
A   23
 H3 
A   24
 H4 
A   25
 H5 
A   26
 H6 
A   27
 H7 
A   28
 H8 
A   29
 H9 
A   30
 H10
A   31
 H11
A   32
 H12
A   33
 H13
A   34
 H14
A   35
 H15
A   36
 H16
M  END
>  <ref_pdb>  (158) 
x0147_0A

>  <ref_mols>  (158) 
x1071_0AS2,x0980_0BS4

>  <original SMILES>  (158) 
[H]c1c([H])c([H])c(C(=O)N([H])N([H])C(=S)N([H])C([H])([H])C([H])([H])N([H])S(=O)(=O)C([H])([H])[H])c([H])c1[H]

>  <index>  (158) 
11575

>  <∆∆G>  (158) 
-7.795813

>  <comRMSD>  (158) 
0.542432

>  <N_constrained_atoms>  (158) 
17.0

>  <N_unconstrained_atoms>  (158) 
3.0

>  <LE>  (158) 
0.389791

>  <percent_hybrid>  (158) 
48.0

>  <max_hit_Tanimoto>  (158) 
0.18136

>  <largest_ring>  (158) 
6

>  <N_interactions_kept>  (158) 
1.0

>  <N_interactions_lost>  (158) 
2.0

>  <interaction_uniqueness_metric>  (158) 
0.031429

>  <N_HA>  (158) 
20

>  <N_rotatable_bonds>  (158) 
6

>  <N_interactions>  (158) 
4

>  <N_PAINS>  (158) 
0

>  <UFF_Gibbs>  (158) 
105.42783

>  <strain_per_HA>  (158) 
5.271365

>  <ad_hoc_penalty>  (158) 
-24.267642

>  <cluster>  (158) 
1244

>  <ranked>  (158) 
193.0

>  <merger_rank>  (158) 
1

>  <hydroph_interaction:LEU:127>  (158) 
0

>  <hbond:GLY:128>  (158) 
1

>  <hydroph_interaction:ALA:144>  (158) 
0

>  <hbond:GLY:164>  (158) 
3

>  <hbond:HIS:40>  (158) 
0

>  <pistack:HIS:40>  (158) 
0

>  <hydroph_interaction:LEU:125>  (158) 
0

>  <hydroph_interaction:PHE:170>  (158) 
0

>  <hydroph_interaction:HIS:40>  (158) 
0

>  <pication:HIS:40>  (158) 
0

>  <hbond:THR:142>  (158) 
0

>  <hbond:HIS:161>  (158) 
0

>  <hbond:GLY:166>  (158) 
0

>  <hbond:VAL:162>  (158) 
0

>  <hydroph_interaction:ASN:165>  (158) 
0

>  <hbond:ASN:126>  (158) 
0

>  <hbond:ARG:143>  (158) 
0

>  <hbond:GLU:71>  (158) 
0

>  <saltbridge:HIS:161>  (158) 
0

>  <hbond:ALA:144>  (158) 
0

>  <hbond:GLY:145>  (158) 
0

>  <hbond:GLN:146>  (158) 
0

>  <hbond:CYS:147>  (158) 
0

>  <halogenbond:ASN:126>  (158) 
0

>  <saltbridge:HIS:40>  (158) 
0

>  <hbond:LEU:127>  (158) 
0

>  <hbond:THR:130>  (158) 
0

>  <hydroph_interaction:GLU:71>  (158) 
0

>  <hydroph_interaction:THR:130>  (158) 
0

>  <saltbridge:ARG:143>  (158) 
0

>  <saltbridge:GLU:71>  (158) 
0

>  <hbond:GLY:129>  (158) 
0

>  <halogenbond:CYS:147>  (158) 
0

>  <hydroph_interaction:THR:39>  (158) 
0

>  <hbond:ASN:69>  (158) 
0

>  <hydroph_interaction:THR:132>  (158) 
0

>  <hbond:TYR:122>  (158) 
0

>  <hydroph_interaction:PHE:109>  (158) 
0

>  <hydroph_interaction:PHE:140>  (158) 
0

>  <hbond:PRO:141>  (158) 
0

$$$$
Z2170211741-x2149-0AS2
     RDKit          3D

 33 34  0  0  0  0  0  0  0  0999 V2000
   -4.4310   -8.1460   -1.2910 C   0  0  0  0  0  0  0  0  0  0  0  0
   -5.5220   -7.1210   -1.1160 C   0  0  0  0  0  0  0  0  0  0  0  0
   -5.6750   -5.9380   -1.9870 C   0  0  0  0  0  0  0  0  0  0  0  0
   -6.8690   -5.2520   -1.4220 C   0  0  0  0  0  0  0  0  0  0  0  0
   -7.3780   -4.0130   -2.0050 N   0  0  0  0  0  0  0  0  0  0  0  0
   -7.0380   -3.8360   -3.4050 C   0  0  0  0  0  0  0  0  0  0  0  0
   -6.0190   -3.3720   -3.8550 O   0  0  0  0  0  0  0  0  0  0  0  0
   -8.1050   -4.3050   -4.4460 C   0  0  0  0  0  0  0  0  0  0  0  0
   -7.8940   -3.9820   -5.7970 N   0  0  0  0  0  0  0  0  0  0  0  0
   -8.2830   -4.8350   -6.9100 C   0  0  0  0  0  0  0  0  0  0  0  0
   -9.3040   -4.2570   -7.6600 C   0  0  0  0  0  0  0  0  0  0  0  0
   -8.5620   -6.2070   -6.3620 C   0  0  0  0  0  0  0  0  0  0  0  0
   -7.4170   -6.9530   -6.4670 C   0  0  0  0  0  0  0  0  0  0  0  0
   -6.7220   -6.2960   -7.5280 O   0  0  0  0  0  0  0  0  0  0  0  0
   -7.2180   -5.1840   -7.8040 C   0  0  0  0  0  0  0  0  0  0  0  0
   -6.8130   -4.5040   -8.7600 O   0  0  0  0  0  0  0  0  0  0  0  0
   -7.3470   -5.9470   -0.3680 N   0  0  0  0  0  0  0  0  0  0  0  0
   -6.5200   -7.0940   -0.1750 O   0  0  0  0  0  0  0  0  0  0  0  0
   -3.5330   -7.6880   -1.7220 H   0  0  0  0  0  0  0  0  0  0  0  0
   -4.1600   -8.6170   -0.3410 H   0  0  0  0  0  0  0  0  0  0  0  0
   -4.7610   -8.9350   -1.9740 H   0  0  0  0  0  0  0  0  0  0  0  0
   -5.1290   -5.5650   -2.8390 H   0  0  0  0  0  0  0  0  0  0  0  0
   -8.3240   -3.7480   -1.7200 H   0  0  0  0  0  0  0  0  0  0  0  0
   -8.1950   -5.3860   -4.3320 H   0  0  0  0  0  0  0  0  0  0  0  0
   -9.0650   -3.8800   -4.1390 H   0  0  0  0  0  0  0  0  0  0  0  0
   -8.2680   -3.0530   -5.9700 H   0  0  0  0  0  0  0  0  0  0  0  0
   -9.8530   -3.4390   -7.1980 H   0  0  0  0  0  0  0  0  0  0  0  0
   -9.0340   -3.8890   -8.6500 H   0  0  0  0  0  0  0  0  0  0  0  0
  -10.0520   -5.0370   -7.8380 H   0  0  0  0  0  0  0  0  0  0  0  0
   -9.3480   -6.6610   -6.9500 H   0  0  0  0  0  0  0  0  0  0  0  0
   -8.9210   -6.2210   -5.3270 H   0  0  0  0  0  0  0  0  0  0  0  0
   -6.8430   -6.8870   -5.5330 H   0  0  0  0  0  0  0  0  0  0  0  0
   -7.6220   -8.0000   -6.7090 H   0  0  0  0  0  0  0  0  0  0  0  0
  1  2  1  0
  2  3  2  0
  3  4  1  0
  4  5  1  0
  5  6  1  0
  6  7  2  0
  6  8  1  0
  8  9  1  0
  9 10  1  0
 10 11  1  0
 10 12  1  0
 12 13  1  0
 13 14  1  0
 14 15  1  0
 15 16  2  0
  4 17  2  0
 17 18  1  0
 18  2  1  0
 15 10  1  0
  1 19  1  0
  1 20  1  0
  1 21  1  0
  3 22  1  0
  5 23  1  0
  8 24  1  0
  8 25  1  0
  9 26  1  0
 11 27  1  0
 11 28  1  0
 11 29  1  0
 12 30  1  0
 12 31  1  0
 13 32  1  0
 13 33  1  0
A    1
 C1 
A    2
 C2 
A    3
 C3 
A    4
 C4 
A    5
 N1 
A    6
 C5 
A    7
 O1 
A    8
 C6 
A    9
 N2 
A   10
 C7 
A   11
 C8 
A   12
 C9 
A   13
 C10
A   14
 O2 
A   15
 C11
A   16
 O3 
A   17
 N3 
A   18
 O4 
A   19
 H1 
A   20
 H2 
A   21
 H3 
A   22
 H4 
A   23
 H5 
A   24
 H6 
A   25
 H7 
A   26
 H8 
A   27
 H9 
A   28
 H10
A   29
 H11
A   30
 H12
A   31
 H13
A   32
 H14
A   33
 H15
M  END
>  <ref_pdb>  (159) 
x0147_0A

>  <ref_mols>  (159) 
x2149_0AS2,x1052_1AS2

>  <original SMILES>  (159) 
[H]c1c(N([H])C(=O)C([H])([H])N([H])C2(C([H])([H])[H])C(=O)OC([H])([H])C2([H])[H])noc1C([H])([H])[H]

>  <index>  (159) 
10130

>  <∆∆G>  (159) 
-5.290073

>  <comRMSD>  (159) 
0.753775

>  <N_constrained_atoms>  (159) 
15.0

>  <N_unconstrained_atoms>  (159) 
3.0

>  <LE>  (159) 
0.293893

>  <percent_hybrid>  (159) 
47.0

>  <max_hit_Tanimoto>  (159) 
0.141791

>  <largest_ring>  (159) 
5

>  <N_interactions_kept>  (159) 
1.0

>  <N_interactions_lost>  (159) 
1.5

>  <interaction_uniqueness_metric>  (159) 
0.140609

>  <N_HA>  (159) 
18

>  <N_rotatable_bonds>  (159) 
6

>  <N_interactions>  (159) 
7

>  <N_PAINS>  (159) 
0

>  <UFF_Gibbs>  (159) 
250.648345

>  <strain_per_HA>  (159) 
13.924831

>  <ad_hoc_penalty>  (159) 
-24.229499

>  <cluster>  (159) 
4907

>  <ranked>  (159) 
195.0

>  <merger_rank>  (159) 
2

>  <hydroph_interaction:LEU:127>  (159) 
1

>  <hbond:GLY:128>  (159) 
1

>  <hydroph_interaction:ALA:144>  (159) 
1

>  <hbond:GLY:164>  (159) 
2

>  <hbond:HIS:40>  (159) 
0

>  <pistack:HIS:40>  (159) 
0

>  <hydroph_interaction:LEU:125>  (159) 
0

>  <hydroph_interaction:PHE:170>  (159) 
0

>  <hydroph_interaction:HIS:40>  (159) 
1

>  <pication:HIS:40>  (159) 
0

>  <hbond:THR:142>  (159) 
0

>  <hbond:HIS:161>  (159) 
0

>  <hbond:GLY:166>  (159) 
0

>  <hbond:VAL:162>  (159) 
0

>  <hydroph_interaction:ASN:165>  (159) 
0

>  <hbond:ASN:126>  (159) 
0

>  <hbond:ARG:143>  (159) 
0

>  <hbond:GLU:71>  (159) 
0

>  <saltbridge:HIS:161>  (159) 
1

>  <hbond:ALA:144>  (159) 
0

>  <hbond:GLY:145>  (159) 
0

>  <hbond:GLN:146>  (159) 
0

>  <hbond:CYS:147>  (159) 
0

>  <halogenbond:ASN:126>  (159) 
0

>  <saltbridge:HIS:40>  (159) 
0

>  <hbond:LEU:127>  (159) 
0

>  <hbond:THR:130>  (159) 
0

>  <hydroph_interaction:GLU:71>  (159) 
0

>  <hydroph_interaction:THR:130>  (159) 
0

>  <saltbridge:ARG:143>  (159) 
0

>  <saltbridge:GLU:71>  (159) 
0

>  <hbond:GLY:129>  (159) 
0

>  <halogenbond:CYS:147>  (159) 
0

>  <hydroph_interaction:THR:39>  (159) 
0

>  <hbond:ASN:69>  (159) 
0

>  <hydroph_interaction:THR:132>  (159) 
0

>  <hbond:TYR:122>  (159) 
0

>  <hydroph_interaction:PHE:109>  (159) 
0

>  <hydroph_interaction:PHE:140>  (159) 
0

>  <hbond:PRO:141>  (159) 
0

$$$$
Z1211401012-x0771-1AS1
     RDKit          3D

 38 40  0  0  0  0  0  0  0  0999 V2000
   -6.9240   -4.5160   -9.1060 C   0  0  0  0  0  0  0  0  0  0  0  0
   -8.0110   -4.5330   -8.0810 C   0  0  0  0  0  0  0  0  0  0  0  0
   -9.0310   -3.8550   -7.9880 O   0  0  0  0  0  0  0  0  0  0  0  0
   -7.7690   -5.5290   -6.9860 C   0  0  0  0  0  0  0  0  0  0  0  0
   -7.1030   -6.8040   -7.3780 C   0  0  0  0  0  0  0  0  0  0  0  0
   -6.8010   -7.8110   -6.4810 C   0  0  0  0  0  0  0  0  0  0  0  0
   -7.1100   -7.6730   -5.1310 C   0  0  0  0  0  0  0  0  0  0  0  0
   -6.8690   -8.5500   -4.1080 O   0  0  0  0  0  0  0  0  0  0  0  0
   -5.6200   -7.9610   -3.6550 C   0  0  0  0  0  0  0  0  0  0  0  0
   -5.2490   -8.1980   -2.1740 C   0  0  0  0  0  0  0  0  0  0  0  0
   -6.1640   -9.1110   -1.3130 C   0  0  0  0  0  0  0  0  0  0  0  0
   -5.7430   -9.3250    0.1510 C   0  0  0  0  0  0  0  0  0  0  0  0
   -4.4780   -8.5770    0.4750 C   0  0  0  0  0  0  0  0  0  0  0  0
   -3.8450   -8.6060    1.7960 C   0  0  0  0  0  0  0  0  0  0  0  0
   -2.6480   -7.8660    1.8020 C   0  0  0  0  0  0  0  0  0  0  0  0
   -2.6830   -7.3600    0.4760 C   0  0  0  0  0  0  0  0  0  0  0  0
   -3.7500   -7.8100   -0.3150 C   0  0  0  0  0  0  0  0  0  0  0  0
   -4.0910   -7.5880   -1.6450 C   0  0  0  0  0  0  0  0  0  0  0  0
   -7.7450   -6.4940   -4.6980 C   0  0  0  0  0  0  0  0  0  0  0  0
   -8.0960   -5.3670   -5.6570 C   0  0  0  0  0  0  0  0  0  0  0  0
   -6.3520   -5.4490   -9.0810 H   0  0  0  0  0  0  0  0  0  0  0  0
   -6.2390   -3.7020   -8.8950 H   0  0  0  0  0  0  0  0  0  0  0  0
   -7.3160   -4.3980  -10.0980 H   0  0  0  0  0  0  0  0  0  0  0  0
   -6.8300   -6.9680   -8.4300 H   0  0  0  0  0  0  0  0  0  0  0  0
   -6.3090   -8.7290   -6.8240 H   0  0  0  0  0  0  0  0  0  0  0  0
   -5.6800   -6.8740   -3.8060 H   0  0  0  0  0  0  0  0  0  0  0  0
   -4.8030   -8.3430   -4.2800 H   0  0  0  0  0  0  0  0  0  0  0  0
   -7.0630   -9.5840   -1.7230 H   0  0  0  0  0  0  0  0  0  0  0  0
   -6.2360   -9.9250    0.9250 H   0  0  0  0  0  0  0  0  0  0  0  0
   -3.6260   -9.6500    2.0440 H   0  0  0  0  0  0  0  0  0  0  0  0
   -4.5210   -8.2070    2.5590 H   0  0  0  0  0  0  0  0  0  0  0  0
   -1.7530   -8.3810    2.1330 H   0  0  0  0  0  0  0  0  0  0  0  0
   -2.7430   -7.0410    2.4980 H   0  0  0  0  0  0  0  0  0  0  0  0
   -2.7770   -6.2760    0.5510 H   0  0  0  0  0  0  0  0  0  0  0  0
   -1.7840   -7.5260   -0.1080 H   0  0  0  0  0  0  0  0  0  0  0  0
   -3.4140   -6.9390   -2.2060 H   0  0  0  0  0  0  0  0  0  0  0  0
   -7.9900   -6.3860   -3.6440 H   0  0  0  0  0  0  0  0  0  0  0  0
   -8.5830   -4.4750   -5.2770 H   0  0  0  0  0  0  0  0  0  0  0  0
  1  2  1  0
  2  3  2  0
  2  4  1  0
  4  5  2  0
  5  6  1  0
  6  7  2  0
  7  8  1  0
  8  9  1  0
  9 10  1  0
 10 11  2  0
 11 12  1  0
 12 13  2  0
 13 14  1  0
 14 15  1  0
 15 16  1  0
 16 17  1  0
 17 18  2  0
  7 19  1  0
 19 20  2  0
 20  4  1  0
 18 10  1  0
 17 13  1  0
  1 21  1  0
  1 22  1  0
  1 23  1  0
  5 24  1  0
  6 25  1  0
  9 26  1  0
  9 27  1  0
 11 28  1  0
 12 29  1  0
 14 30  1  0
 14 31  1  0
 15 32  1  0
 15 33  1  0
 16 34  1  0
 16 35  1  0
 18 36  1  0
 19 37  1  0
 20 38  1  0
A    1
 C1 
A    2
 C2 
A    3
 O1 
A    4
 C3 
A    5
 C4 
A    6
 C5 
A    7
 C6 
A    8
 O2 
A    9
 C7 
A   10
 C8 
A   11
 C9 
A   12
 C10
A   13
 C11
A   14
 C12
A   15
 C13
A   16
 C14
A   17
 C15
A   18
 C16
A   19
 C17
A   20
 C18
A   21
 H1 
A   22
 H2 
A   23
 H3 
A   24
 H4 
A   25
 H5 
A   26
 H6 
A   27
 H7 
A   28
 H8 
A   29
 H9 
A   30
 H10
A   31
 H11
A   32
 H12
A   33
 H13
A   34
 H14
A   35
 H15
A   36
 H16
A   37
 H17
A   38
 H18
M  END
>  <ref_pdb>  (160) 
x0147_0A

>  <ref_mols>  (160) 
x0771_1AS1,x1140_0AS2

>  <original SMILES>  (160) 
[H]c1c([H])c(C(=O)C([H])([H])[H])c([H])c([H])c1OC([H])([H])c1c([H])c([H])c2c(c1[H])C([H])([H])C([H])([H])C2([H])[H]

>  <index>  (160) 
16771

>  <∆∆G>  (160) 
-7.581412

>  <comRMSD>  (160) 
0.484975

>  <N_constrained_atoms>  (160) 
19.0

>  <N_unconstrained_atoms>  (160) 
1.0

>  <LE>  (160) 
0.379071

>  <percent_hybrid>  (160) 
48.0

>  <max_hit_Tanimoto>  (160) 
0.235294

>  <largest_ring>  (160) 
6

>  <N_interactions_kept>  (160) 
2.5

>  <N_interactions_lost>  (160) 
1.0

>  <interaction_uniqueness_metric>  (160) 
0.032151

>  <N_HA>  (160) 
20

>  <N_rotatable_bonds>  (160) 
5

>  <N_interactions>  (160) 
2

>  <N_PAINS>  (160) 
0

>  <UFF_Gibbs>  (160) 
176.738762

>  <strain_per_HA>  (160) 
8.836894

>  <ad_hoc_penalty>  (160) 
-24.198477

>  <cluster>  (160) 
1027

>  <ranked>  (160) 
196.0

>  <merger_rank>  (160) 
4

>  <hydroph_interaction:LEU:127>  (160) 
0

>  <hbond:GLY:128>  (160) 
0

>  <hydroph_interaction:ALA:144>  (160) 
0

>  <hbond:GLY:164>  (160) 
0

>  <hbond:HIS:40>  (160) 
0

>  <pistack:HIS:40>  (160) 
1

>  <hydroph_interaction:LEU:125>  (160) 
0

>  <hydroph_interaction:PHE:170>  (160) 
0

>  <hydroph_interaction:HIS:40>  (160) 
1

>  <pication:HIS:40>  (160) 
0

>  <hbond:THR:142>  (160) 
0

>  <hbond:HIS:161>  (160) 
0

>  <hbond:GLY:166>  (160) 
0

>  <hbond:VAL:162>  (160) 
0

>  <hydroph_interaction:ASN:165>  (160) 
0

>  <hbond:ASN:126>  (160) 
0

>  <hbond:ARG:143>  (160) 
0

>  <hbond:GLU:71>  (160) 
0

>  <saltbridge:HIS:161>  (160) 
0

>  <hbond:ALA:144>  (160) 
0

>  <hbond:GLY:145>  (160) 
0

>  <hbond:GLN:146>  (160) 
0

>  <hbond:CYS:147>  (160) 
0

>  <halogenbond:ASN:126>  (160) 
0

>  <saltbridge:HIS:40>  (160) 
0

>  <hbond:LEU:127>  (160) 
0

>  <hbond:THR:130>  (160) 
0

>  <hydroph_interaction:GLU:71>  (160) 
0

>  <hydroph_interaction:THR:130>  (160) 
0

>  <saltbridge:ARG:143>  (160) 
0

>  <saltbridge:GLU:71>  (160) 
0

>  <hbond:GLY:129>  (160) 
0

>  <halogenbond:CYS:147>  (160) 
0

>  <hydroph_interaction:THR:39>  (160) 
0

>  <hbond:ASN:69>  (160) 
0

>  <hydroph_interaction:THR:132>  (160) 
0

>  <hbond:TYR:122>  (160) 
0

>  <hydroph_interaction:PHE:109>  (160) 
0

>  <hydroph_interaction:PHE:140>  (160) 
0

>  <hbond:PRO:141>  (160) 
0

$$$$
Z3777535315-x2149-0AS6
     RDKit          3D

 43 45  0  0  0  0  0  0  0  0999 V2000
   -6.5500   -6.8710   -8.4200 C   0  0  0  0  0  0  0  0  0  0  0  0
   -7.0490   -5.9220   -7.4990 N   0  0  0  0  0  0  0  0  0  0  0  0
   -7.3510   -4.7420   -8.0620 C   0  0  0  0  0  0  0  0  0  0  0  0
   -6.6810   -4.0500   -9.0970 O   0  0  0  0  0  0  0  0  0  0  0  0
   -8.6060   -4.2140   -7.4340 C   0  0  0  0  0  0  0  0  0  0  0  0
   -9.1210   -5.4110   -6.6430 C   0  0  0  0  0  0  0  0  0  0  0  0
   -7.8160   -6.1460   -6.3490 C   0  0  0  0  0  0  0  0  0  0  0  0
   -7.1500   -5.4850   -5.1580 C   0  0  0  0  0  0  0  0  0  0  0  0
   -7.8560   -5.4450   -3.9830 N   0  0  0  0  0  0  0  0  0  0  0  0
   -7.6050   -6.3910   -3.0670 C   0  0  0  0  0  0  0  0  0  0  0  0
   -8.4500   -6.8770   -2.3590 O   0  0  0  0  0  0  0  0  0  0  0  0
   -6.2760   -6.6990   -3.1100 N   0  0  0  0  0  0  0  0  0  0  0  0
   -5.8490   -8.0710   -3.1090 C   0  0  0  0  0  0  0  0  0  0  0  0
   -5.3700   -8.3030   -1.8320 C   0  0  0  0  0  0  0  0  0  0  0  0
   -6.0160   -9.2120   -0.9830 C   0  0  0  0  0  0  0  0  0  0  0  0
   -5.5010   -9.4120    0.3060 C   0  0  0  0  0  0  0  0  0  0  0  0
   -4.3710   -8.6870    0.6680 C   0  0  0  0  0  0  0  0  0  0  0  0
   -3.7360   -8.7560    1.8780 O   0  0  0  0  0  0  0  0  0  0  0  0
   -2.4970   -8.0370    1.6400 C   0  0  0  0  0  0  0  0  0  0  0  0
   -2.6240   -7.2300    0.5070 C   0  0  0  0  0  0  0  0  0  0  0  0
   -3.7670   -7.8110   -0.1770 C   0  0  0  0  0  0  0  0  0  0  0  0
   -4.2410   -7.5970   -1.4350 C   0  0  0  0  0  0  0  0  0  0  0  0
   -6.9890   -6.6780   -9.3830 H   0  0  0  0  0  0  0  0  0  0  0  0
   -6.8180   -7.8740   -8.1070 H   0  0  0  0  0  0  0  0  0  0  0  0
   -5.4690   -6.7670   -8.5080 H   0  0  0  0  0  0  0  0  0  0  0  0
   -8.3490   -3.3780   -6.7750 H   0  0  0  0  0  0  0  0  0  0  0  0
   -9.3170   -3.8890   -8.1980 H   0  0  0  0  0  0  0  0  0  0  0  0
   -9.6680   -5.1200   -5.7420 H   0  0  0  0  0  0  0  0  0  0  0  0
   -9.7860   -6.0090   -7.2720 H   0  0  0  0  0  0  0  0  0  0  0  0
   -7.9720   -7.2240   -6.2070 H   0  0  0  0  0  0  0  0  0  0  0  0
   -6.2050   -5.9960   -4.9490 H   0  0  0  0  0  0  0  0  0  0  0  0
   -6.9160   -4.4500   -5.3950 H   0  0  0  0  0  0  0  0  0  0  0  0
   -8.8420   -5.2230   -4.0500 H   0  0  0  0  0  0  0  0  0  0  0  0
   -5.6780   -6.0510   -2.6200 H   0  0  0  0  0  0  0  0  0  0  0  0
   -6.7220   -8.7020   -3.3140 H   0  0  0  0  0  0  0  0  0  0  0  0
   -5.1610   -8.2190   -3.9420 H   0  0  0  0  0  0  0  0  0  0  0  0
   -6.8940   -9.7540   -1.3060 H   0  0  0  0  0  0  0  0  0  0  0  0
   -5.8790  -10.0730    1.0750 H   0  0  0  0  0  0  0  0  0  0  0  0
   -2.2870   -7.4280    2.5270 H   0  0  0  0  0  0  0  0  0  0  0  0
   -1.6730   -8.7500    1.5240 H   0  0  0  0  0  0  0  0  0  0  0  0
   -2.8140   -6.2070    0.8320 H   0  0  0  0  0  0  0  0  0  0  0  0
   -1.7850   -7.2830   -0.1580 H   0  0  0  0  0  0  0  0  0  0  0  0
   -3.7490   -6.8940   -2.1030 H   0  0  0  0  0  0  0  0  0  0  0  0
  1  2  1  0
  2  3  1  0
  3  4  2  0
  3  5  1  0
  5  6  1  0
  6  7  1  0
  7  8  1  0
  8  9  1  0
  9 10  1  0
 10 11  2  0
 10 12  1  0
 12 13  1  0
 13 14  1  0
 14 15  2  0
 15 16  1  0
 16 17  2  0
 17 18  1  0
 18 19  1  0
 19 20  1  0
 20 21  1  0
 21 22  2  0
  7  2  1  0
 22 14  1  0
 21 17  1  0
  1 23  1  0
  1 24  1  0
  1 25  1  0
  5 26  1  0
  5 27  1  0
  6 28  1  0
  6 29  1  0
  7 30  1  0
  8 31  1  0
  8 32  1  0
  9 33  1  0
 12 34  1  0
 13 35  1  0
 13 36  1  0
 15 37  1  0
 16 38  1  0
 19 39  1  0
 19 40  1  0
 20 41  1  0
 20 42  1  0
 22 43  1  0
A    1
 C1 
A    2
 N1 
A    3
 C2 
A    4
 O1 
A    5
 C3 
A    6
 C4 
A    7
 C5 
A    8
 C6 
A    9
 N2 
A   10
 C7 
A   11
 O2 
A   12
 N3 
A   13
 C8 
A   14
 C9 
A   15
 C10
A   16
 C11
A   17
 C12
A   18
 O3 
A   19
 C13
A   20
 C14
A   21
 C15
A   22
 C16
A   23
 H1 
A   24
 H2 
A   25
 H3 
A   26
 H4 
A   27
 H5 
A   28
 H6 
A   29
 H7 
A   30
 H8 
A   31
 H9 
A   32
 H10
A   33
 H11
A   34
 H12
A   35
 H13
A   36
 H14
A   37
 H15
A   38
 H16
A   39
 H17
A   40
 H18
A   41
 H19
A   42
 H20
A   43
 H21
M  END
>  <ref_pdb>  (161) 
x0147_0A

>  <ref_mols>  (161) 
x2149_0AS6,x1140_0A

>  <original SMILES>  (161) 
[H]c1c([H])c(C([H])([H])N([H])C(=O)N([H])C([H])([H])C2([H])N(C([H])([H])[H])C(=O)C([H])([H])C2([H])[H])c([H])c2c1OC([H])([H])C2([H])[H]

>  <index>  (161) 
1034

>  <∆∆G>  (161) 
-6.904847

>  <comRMSD>  (161) 
0.916606

>  <N_constrained_atoms>  (161) 
22.0

>  <N_unconstrained_atoms>  (161) 
2.0

>  <LE>  (161) 
0.287702

>  <percent_hybrid>  (161) 
32.0

>  <max_hit_Tanimoto>  (161) 
0.266423

>  <largest_ring>  (161) 
6

>  <N_interactions_kept>  (161) 
3.5

>  <N_interactions_lost>  (161) 
1.0

>  <interaction_uniqueness_metric>  (161) 
0.043193

>  <N_HA>  (161) 
22

>  <N_rotatable_bonds>  (161) 
5

>  <N_interactions>  (161) 
2

>  <N_PAINS>  (161) 
0

>  <UFF_Gibbs>  (161) 
154.039021

>  <strain_per_HA>  (161) 
7.001742

>  <ad_hoc_penalty>  (161) 
-24.152781

>  <cluster>  (161) 
7094

>  <ranked>  (161) 
198.0

>  <merger_rank>  (161) 
3

>  <hydroph_interaction:LEU:127>  (161) 
0

>  <hbond:GLY:128>  (161) 
0

>  <hydroph_interaction:ALA:144>  (161) 
0

>  <hbond:GLY:164>  (161) 
0

>  <hbond:HIS:40>  (161) 
0

>  <pistack:HIS:40>  (161) 
1

>  <hydroph_interaction:LEU:125>  (161) 
0

>  <hydroph_interaction:PHE:170>  (161) 
0

>  <hydroph_interaction:HIS:40>  (161) 
0

>  <pication:HIS:40>  (161) 
0

>  <hbond:THR:142>  (161) 
0

>  <hbond:HIS:161>  (161) 
0

>  <hbond:GLY:166>  (161) 
0

>  <hbond:VAL:162>  (161) 
1

>  <hydroph_interaction:ASN:165>  (161) 
0

>  <hbond:ASN:126>  (161) 
0

>  <hbond:ARG:143>  (161) 
0

>  <hbond:GLU:71>  (161) 
0

>  <saltbridge:HIS:161>  (161) 
0

>  <hbond:ALA:144>  (161) 
0

>  <hbond:GLY:145>  (161) 
0

>  <hbond:GLN:146>  (161) 
0

>  <hbond:CYS:147>  (161) 
0

>  <halogenbond:ASN:126>  (161) 
0

>  <saltbridge:HIS:40>  (161) 
0

>  <hbond:LEU:127>  (161) 
0

>  <hbond:THR:130>  (161) 
0

>  <hydroph_interaction:GLU:71>  (161) 
0

>  <hydroph_interaction:THR:130>  (161) 
0

>  <saltbridge:ARG:143>  (161) 
0

>  <saltbridge:GLU:71>  (161) 
0

>  <hbond:GLY:129>  (161) 
0

>  <halogenbond:CYS:147>  (161) 
0

>  <hydroph_interaction:THR:39>  (161) 
0

>  <hbond:ASN:69>  (161) 
0

>  <hydroph_interaction:THR:132>  (161) 
0

>  <hbond:TYR:122>  (161) 
0

>  <hydroph_interaction:PHE:109>  (161) 
0

>  <hydroph_interaction:PHE:140>  (161) 
0

>  <hbond:PRO:141>  (161) 
0

$$$$
Z1260734436-x1084-0A
     RDKit          3D

 40 41  0  0  0  0  0  0  0  0999 V2000
   -2.8900   -7.5680    2.5480 C   0  0  0  0  0  0  0  0  0  0  0  0
   -3.6270   -8.7210    1.9120 C   0  0  0  0  0  0  0  0  0  0  0  0
   -4.0610   -8.2610    0.5410 C   0  0  0  0  0  0  0  0  0  0  0  0
   -3.0140   -7.8000   -0.4460 C   0  0  0  0  0  0  0  0  0  0  0  0
   -3.5240   -7.3420   -1.7910 C   0  0  0  0  0  0  0  0  0  0  0  0
   -4.9740   -7.3500   -2.0820 C   0  0  0  0  0  0  0  0  0  0  0  0
   -5.4510   -6.9050   -3.3170 C   0  0  0  0  0  0  0  0  0  0  0  0
   -6.7430   -6.3880   -3.2360 C   0  0  0  0  0  0  0  0  0  0  0  0
   -7.6530   -7.0200   -2.7110 O   0  0  0  0  0  0  0  0  0  0  0  0
   -6.9580   -5.1320   -3.7570 N   0  0  0  0  0  0  0  0  0  0  0  0
   -8.2910   -4.8090   -4.2240 C   0  0  0  0  0  0  0  0  0  0  0  0
   -8.7010   -5.7220   -5.2010 C   0  0  0  0  0  0  0  0  0  0  0  0
   -8.2570   -5.1970   -6.5620 C   0  0  0  0  0  0  0  0  0  0  0  0
   -8.9000   -3.9320   -7.0490 C   0  0  0  0  0  0  0  0  0  0  0  0
   -8.4710   -3.4170   -8.3370 C   0  0  0  0  0  0  0  0  0  0  0  0
   -7.5020   -4.1390   -9.0180 C   0  0  0  0  0  0  0  0  0  0  0  0
   -6.9050   -5.2890   -8.5930 N   0  0  0  0  0  0  0  0  0  0  0  0
   -7.2970   -5.7850   -7.3870 C   0  0  0  0  0  0  0  0  0  0  0  0
   -5.8520   -7.8090   -1.0830 C   0  0  0  0  0  0  0  0  0  0  0  0
   -5.4090   -8.2470    0.1750 C   0  0  0  0  0  0  0  0  0  0  0  0
   -2.2130   -7.9290    3.3290 H   0  0  0  0  0  0  0  0  0  0  0  0
   -2.2750   -7.0390    1.8130 H   0  0  0  0  0  0  0  0  0  0  0  0
   -3.5960   -6.8560    2.9840 H   0  0  0  0  0  0  0  0  0  0  0  0
   -2.9800   -9.6000    1.8440 H   0  0  0  0  0  0  0  0  0  0  0  0
   -4.5260   -9.0050    2.4710 H   0  0  0  0  0  0  0  0  0  0  0  0
   -1.9550   -7.8050   -0.1840 H   0  0  0  0  0  0  0  0  0  0  0  0
   -2.8240   -7.0030   -2.5520 H   0  0  0  0  0  0  0  0  0  0  0  0
   -4.8270   -6.0440   -3.5720 H   0  0  0  0  0  0  0  0  0  0  0  0
   -5.3100   -7.6060   -4.1370 H   0  0  0  0  0  0  0  0  0  0  0  0
   -6.4040   -4.3750   -3.3740 H   0  0  0  0  0  0  0  0  0  0  0  0
   -8.8920   -4.7020   -3.3260 H   0  0  0  0  0  0  0  0  0  0  0  0
   -8.2370   -3.8090   -4.6710 H   0  0  0  0  0  0  0  0  0  0  0  0
   -8.2680   -6.7130   -5.0140 H   0  0  0  0  0  0  0  0  0  0  0  0
   -9.7890   -5.8600   -5.1900 H   0  0  0  0  0  0  0  0  0  0  0  0
   -9.6610   -3.4240   -6.4430 H   0  0  0  0  0  0  0  0  0  0  0  0
   -8.9530   -2.4930   -8.6680 H   0  0  0  0  0  0  0  0  0  0  0  0
   -7.1480   -3.8400   -9.9550 H   0  0  0  0  0  0  0  0  0  0  0  0
   -6.7910   -6.7020   -7.0970 H   0  0  0  0  0  0  0  0  0  0  0  0
   -6.9210   -7.8270   -1.2750 H   0  0  0  0  0  0  0  0  0  0  0  0
   -6.1560   -8.5830    0.8930 H   0  0  0  0  0  0  0  0  0  0  0  0
  1  2  1  0
  2  3  1  0
  3  4  2  0
  4  5  1  0
  5  6  2  0
  6  7  1  0
  7  8  1  0
  8  9  2  0
  8 10  1  0
 10 11  1  0
 11 12  1  0
 12 13  1  0
 13 14  2  0
 14 15  1  0
 15 16  2  0
 16 17  1  0
 17 18  2  0
  6 19  1  0
 19 20  2  0
 20  3  1  0
 18 13  1  0
  1 21  1  0
  1 22  1  0
  1 23  1  0
  2 24  1  0
  2 25  1  0
  4 26  1  0
  5 27  1  0
  7 28  1  0
  7 29  1  0
 10 30  1  0
 11 31  1  0
 11 32  1  0
 12 33  1  0
 12 34  1  0
 14 35  1  0
 15 36  1  0
 16 37  1  0
 18 38  1  0
 19 39  1  0
 20 40  1  0
A    1
 C1 
A    2
 C2 
A    3
 C3 
A    4
 C4 
A    5
 C5 
A    6
 C6 
A    7
 C7 
A    8
 C8 
A    9
 O1 
A   10
 N1 
A   11
 C9 
A   12
 C10
A   13
 C11
A   14
 C12
A   15
 C13
A   16
 C14
A   17
 N2 
A   18
 C15
A   19
 C16
A   20
 C17
A   21
 H1 
A   22
 H2 
A   23
 H3 
A   24
 H4 
A   25
 H5 
A   26
 H6 
A   27
 H7 
A   28
 H8 
A   29
 H9 
A   30
 H10
A   31
 H11
A   32
 H12
A   33
 H13
A   34
 H14
A   35
 H15
A   36
 H16
A   37
 H17
A   38
 H18
A   39
 H19
A   40
 H20
M  END
>  <ref_pdb>  (162) 
x0147_0A

>  <ref_mols>  (162) 
x1084_0A,x0980_0BS5

>  <original SMILES>  (162) 
[H]c1nc([H])c(C([H])([H])C([H])([H])N([H])C(=O)C([H])([H])c2c([H])c([H])c(C([H])([H])C([H])([H])[H])c([H])c2[H])c([H])c1[H]

>  <index>  (162) 
1581

>  <∆∆G>  (162) 
-6.407054

>  <comRMSD>  (162) 
0.624887

>  <N_constrained_atoms>  (162) 
19.0

>  <N_unconstrained_atoms>  (162) 
2.0

>  <LE>  (162) 
0.305098

>  <percent_hybrid>  (162) 
32.0

>  <max_hit_Tanimoto>  (162) 
0.145497

>  <largest_ring>  (162) 
6

>  <N_interactions_kept>  (162) 
2.0

>  <N_interactions_lost>  (162) 
1.0

>  <interaction_uniqueness_metric>  (162) 
0.040097

>  <N_HA>  (162) 
20

>  <N_rotatable_bonds>  (162) 
7

>  <N_interactions>  (162) 
4

>  <N_PAINS>  (162) 
0

>  <UFF_Gibbs>  (162) 
136.872007

>  <strain_per_HA>  (162) 
6.843566

>  <ad_hoc_penalty>  (162) 
-24.139132

>  <cluster>  (162) 
2722

>  <ranked>  (162) 
199.0

>  <merger_rank>  (162) 
4

>  <hydroph_interaction:LEU:127>  (162) 
1

>  <hbond:GLY:128>  (162) 
0

>  <hydroph_interaction:ALA:144>  (162) 
0

>  <hbond:GLY:164>  (162) 
2

>  <hbond:HIS:40>  (162) 
0

>  <pistack:HIS:40>  (162) 
0

>  <hydroph_interaction:LEU:125>  (162) 
0

>  <hydroph_interaction:PHE:170>  (162) 
0

>  <hydroph_interaction:HIS:40>  (162) 
1

>  <pication:HIS:40>  (162) 
0

>  <hbond:THR:142>  (162) 
0

>  <hbond:HIS:161>  (162) 
0

>  <hbond:GLY:166>  (162) 
0

>  <hbond:VAL:162>  (162) 
0

>  <hydroph_interaction:ASN:165>  (162) 
0

>  <hbond:ASN:126>  (162) 
0

>  <hbond:ARG:143>  (162) 
0

>  <hbond:GLU:71>  (162) 
0

>  <saltbridge:HIS:161>  (162) 
0

>  <hbond:ALA:144>  (162) 
0

>  <hbond:GLY:145>  (162) 
0

>  <hbond:GLN:146>  (162) 
0

>  <hbond:CYS:147>  (162) 
0

>  <halogenbond:ASN:126>  (162) 
0

>  <saltbridge:HIS:40>  (162) 
0

>  <hbond:LEU:127>  (162) 
0

>  <hbond:THR:130>  (162) 
0

>  <hydroph_interaction:GLU:71>  (162) 
0

>  <hydroph_interaction:THR:130>  (162) 
0

>  <saltbridge:ARG:143>  (162) 
0

>  <saltbridge:GLU:71>  (162) 
0

>  <hbond:GLY:129>  (162) 
0

>  <halogenbond:CYS:147>  (162) 
0

>  <hydroph_interaction:THR:39>  (162) 
0

>  <hbond:ASN:69>  (162) 
0

>  <hydroph_interaction:THR:132>  (162) 
0

>  <hbond:TYR:122>  (162) 
0

>  <hydroph_interaction:PHE:109>  (162) 
0

>  <hydroph_interaction:PHE:140>  (162) 
0

>  <hbond:PRO:141>  (162) 
0

$$$$
Z1885074939-x1071-0AS5
     RDKit          3D

 31 31  0  0  0  0  0  0  0  0999 V2000
   -5.1290    0.0690   -2.2400 C   0  0  0  0  0  0  0  0  0  0  0  0
   -6.5560    0.4860   -2.0950 C   0  0  0  0  0  0  0  0  0  0  0  0
   -7.2600   -0.1940   -1.0150 C   0  0  0  0  0  0  0  0  0  0  0  0
   -6.5660   -0.2140    0.3060 C   0  0  0  0  0  0  0  0  0  0  0  0
   -8.4510    0.5240   -0.7470 O   0  0  0  0  0  0  0  0  0  0  0  0
   -7.6730   -1.6430   -1.4380 C   0  0  0  0  0  0  0  0  0  0  0  0
   -6.6580   -2.4980   -1.4220 N   0  0  0  0  0  0  0  0  0  0  0  0
   -6.5760   -3.7000   -2.2520 C   0  0  0  0  0  0  0  0  0  0  0  0
   -6.3680   -3.6980   -3.4680 O   0  0  0  0  0  0  0  0  0  0  0  0
   -6.7530   -4.8920   -1.4590 C   0  0  0  0  0  0  0  0  0  0  0  0
   -7.2830   -5.5710   -0.6340 N   0  0  0  0  0  0  0  0  0  0  0  0
   -6.8000   -7.0900   -0.2180 S   0  0  0  0  0  0  0  0  0  0  0  0
   -5.5840   -6.9740   -1.3420 C   0  0  0  0  0  0  0  0  0  0  0  0
   -4.5890   -7.9130   -1.6910 C   0  0  0  0  0  0  0  0  0  0  0  0
   -5.6510   -5.7530   -1.9550 C   0  0  0  0  0  0  0  0  0  0  0  0
   -5.0010   -0.6170   -3.0850 H   0  0  0  0  0  0  0  0  0  0  0  0
   -4.7760   -0.4020   -1.3270 H   0  0  0  0  0  0  0  0  0  0  0  0
   -4.5180    0.9320   -2.4190 H   0  0  0  0  0  0  0  0  0  0  0  0
   -6.6050    1.5550   -1.8610 H   0  0  0  0  0  0  0  0  0  0  0  0
   -7.0920    0.3040   -3.0190 H   0  0  0  0  0  0  0  0  0  0  0  0
   -7.0770   -0.9490    0.9380 H   0  0  0  0  0  0  0  0  0  0  0  0
   -5.5200   -0.4650    0.3500 H   0  0  0  0  0  0  0  0  0  0  0  0
   -6.6820    0.7620    0.7840 H   0  0  0  0  0  0  0  0  0  0  0  0
   -9.0820    0.2970   -1.4560 H   0  0  0  0  0  0  0  0  0  0  0  0
   -8.1190   -1.5990   -2.4420 H   0  0  0  0  0  0  0  0  0  0  0  0
   -8.4540   -2.0340   -0.7810 H   0  0  0  0  0  0  0  0  0  0  0  0
   -5.8980   -2.2900   -0.7750 H   0  0  0  0  0  0  0  0  0  0  0  0
   -4.2110   -7.8760   -2.7180 H   0  0  0  0  0  0  0  0  0  0  0  0
   -3.6900   -7.9250   -1.0860 H   0  0  0  0  0  0  0  0  0  0  0  0
   -5.0500   -8.9060   -1.6010 H   0  0  0  0  0  0  0  0  0  0  0  0
   -4.9420   -5.4590   -2.7350 H   0  0  0  0  0  0  0  0  0  0  0  0
  1  2  1  0
  2  3  1  0
  3  4  1  0
  3  5  1  0
  3  6  1  0
  6  7  1  0
  7  8  1  0
  8  9  2  0
  8 10  1  0
 10 11  2  0
 11 12  1  0
 12 13  1  0
 13 14  1  0
 13 15  2  0
 15 10  1  0
  1 16  1  0
  1 17  1  0
  1 18  1  0
  2 19  1  0
  2 20  1  0
  4 21  1  0
  4 22  1  0
  4 23  1  0
  5 24  1  0
  6 25  1  0
  6 26  1  0
  7 27  1  0
 14 28  1  0
 14 29  1  0
 14 30  1  0
 15 31  1  0
A    1
 C1 
A    2
 C2 
A    3
 C3 
A    4
 C4 
A    5
 O1 
A    6
 C5 
A    7
 N1 
A    8
 C6 
A    9
 O2 
A   10
 C7 
A   11
 N2 
A   12
 S1 
A   13
 C8 
A   14
 C9 
A   15
 C10
A   16
 H1 
A   17
 H2 
A   18
 H3 
A   19
 H4 
A   20
 H5 
A   21
 H6 
A   22
 H7 
A   23
 H8 
A   24
 H9 
A   25
 H10
A   26
 H11
A   27
 H12
A   28
 H13
A   29
 H14
A   30
 H15
A   31
 H16
M  END
>  <ref_pdb>  (163) 
x0147_0A

>  <ref_mols>  (163) 
x1071_0AS5,x1052_1A

>  <original SMILES>  (163) 
[H]OC(C([H])([H])[H])(C([H])([H])N([H])C(=O)c1nsc(C([H])([H])[H])c1[H])C([H])([H])C([H])([H])[H]

>  <index>  (163) 
11835

>  <∆∆G>  (163) 
-7.476907

>  <comRMSD>  (163) 
0.97629

>  <N_constrained_atoms>  (163) 
17.0

>  <N_unconstrained_atoms>  (163) 
1.0

>  <LE>  (163) 
0.415384

>  <percent_hybrid>  (163) 
19.0

>  <max_hit_Tanimoto>  (163) 
0.309201

>  <largest_ring>  (163) 
5

>  <N_interactions_kept>  (163) 
1.0

>  <N_interactions_lost>  (163) 
2.5

>  <interaction_uniqueness_metric>  (163) 
0.138

>  <N_HA>  (163) 
15

>  <N_rotatable_bonds>  (163) 
8

>  <N_interactions>  (163) 
7

>  <N_PAINS>  (163) 
0

>  <UFF_Gibbs>  (163) 
158.475668

>  <strain_per_HA>  (163) 
10.564974

>  <ad_hoc_penalty>  (163) 
-24.138762

>  <cluster>  (163) 
4432

>  <ranked>  (163) 
200.0

>  <merger_rank>  (163) 
1

>  <hydroph_interaction:LEU:127>  (163) 
2

>  <hbond:GLY:128>  (163) 
1

>  <hydroph_interaction:ALA:144>  (163) 
0

>  <hbond:GLY:164>  (163) 
1

>  <hbond:HIS:40>  (163) 
0

>  <pistack:HIS:40>  (163) 
0

>  <hydroph_interaction:LEU:125>  (163) 
1

>  <hydroph_interaction:PHE:170>  (163) 
1

>  <hydroph_interaction:HIS:40>  (163) 
0

>  <pication:HIS:40>  (163) 
0

>  <hbond:THR:142>  (163) 
0

>  <hbond:HIS:161>  (163) 
0

>  <hbond:GLY:166>  (163) 
0

>  <hbond:VAL:162>  (163) 
0

>  <hydroph_interaction:ASN:165>  (163) 
1

>  <hbond:ASN:126>  (163) 
0

>  <hbond:ARG:143>  (163) 
0

>  <hbond:GLU:71>  (163) 
0

>  <saltbridge:HIS:161>  (163) 
0

>  <hbond:ALA:144>  (163) 
0

>  <hbond:GLY:145>  (163) 
0

>  <hbond:GLN:146>  (163) 
0

>  <hbond:CYS:147>  (163) 
0

>  <halogenbond:ASN:126>  (163) 
0

>  <saltbridge:HIS:40>  (163) 
0

>  <hbond:LEU:127>  (163) 
0

>  <hbond:THR:130>  (163) 
0

>  <hydroph_interaction:GLU:71>  (163) 
0

>  <hydroph_interaction:THR:130>  (163) 
0

>  <saltbridge:ARG:143>  (163) 
0

>  <saltbridge:GLU:71>  (163) 
0

>  <hbond:GLY:129>  (163) 
0

>  <halogenbond:CYS:147>  (163) 
0

>  <hydroph_interaction:THR:39>  (163) 
0

>  <hbond:ASN:69>  (163) 
0

>  <hydroph_interaction:THR:132>  (163) 
0

>  <hbond:TYR:122>  (163) 
0

>  <hydroph_interaction:PHE:109>  (163) 
0

>  <hydroph_interaction:PHE:140>  (163) 
0

>  <hbond:PRO:141>  (163) 
0

$$$$
