x1052_0A§2
     RDKit          3D

 14 14  0  0  0  0  0  0  0  0999 V2000
   -8.9340   16.8010  -32.6350 N   0  0  0  0  0  0  0  0  0  0  0  0
  -10.7170   19.2530  -28.9520 C   0  0  0  0  0  0  0  0  0  0  0  0
   -9.5900   18.8570  -29.7700 O   0  0  0  0  0  0  0  0  0  0  0  0
   -9.8680   18.2240  -30.8990 C   0  0  0  0  0  0  0  0  0  0  0  0
   -8.7920   15.9030  -35.2540 N   0  0  0  0  0  0  0  0  0  0  0  0
  -10.8540   18.3850  -31.5170 O   0  0  0  0  0  0  0  0  0  0  0  0
   -8.7560   17.2950  -31.2850 C   0  0  0  0  0  0  0  0  0  0  0  0
   -9.2950   14.6660  -31.9880 O   0  0  0  0  0  0  0  0  0  0  0  0
   -9.1810   15.5110  -32.8840 C   0  0  0  0  0  0  0  0  0  0  0  0
   -9.0790   15.2200  -36.4650 O   0  0  0  0  0  0  0  0  0  0  0  0
   -9.3040   15.1370  -34.3130 C   0  0  0  0  0  0  0  0  0  0  0  0
   -9.9160   13.9860  -34.8470 C   0  0  0  0  0  0  0  0  0  0  0  0
   -9.7420   14.0850  -36.1740 C   0  0  0  0  0  0  0  0  0  0  0  0
  -10.0760   13.2130  -37.3290 C   0  0  0  0  0  0  0  0  0  0  0  0
  1  7  1  0
  1  9  1  0
  2  3  1  0
  3  4  1  0
  4  6  2  0
  4  7  1  0
  5 10  1  0
  5 11  2  0
  8  9  2  0
  9 11  1  0
 10 13  1  0
 11 12  1  0
 12 13  2  0
 13 14  1  0
A    1
 N  
A    2
 C  
A    3
 O  
A    4
 C1 
A    5
 N1 
A    6
 O1 
A    7
 C2 
A    8
 O2 
A    9
 C3 
A   10
 O3 
A   11
 C4 
A   12
 C5 
A   13
 C6 
A   14
 C7 
M  END
>  <XChem_code>  (1) 
D68EV3CPROA-x1052

>  <Occupancy>  (1) 
[0.7, 0.7, 0.7, 0.7, 0.7, 0.7, 0.7, 0.7, 0.7, 0.7, 0.7, 0.7, 0.7, 0.7]

>  <TempFactor>  (1) 
[35.38, 39.32, 40.62, 32.41, 41.61, 27.04, 35.25, 35.17, 39.06, 43.83, 40.83, 44.55, 43.47, 43.64]

>  <RealCrystalName>  (1) 
D68EV3CPROA-x1052

>  <smiles>  (1) 
COC(=O)CNC(=O)c1cc(C)on1

>  <new_smiles>  (1) 
COC(=O)CNC(=O)c1cc(C)on1

>  <alternate_name>  (1) 
Z375990520

>  <site_name>  (1) 
5

>  <pdb_entry>  (1) 
nan

>  <mol>  (1) 
<rdkit.Chem.rdchem.Mol object at 0x164f2b060>

>  <single_smiles>  (1) 
COC(=O)CNC(=O)c1cc(C)on1

>  <base_name>  (1) 
D68EV3CPROA-x1052_0A

>  <lig_resn>  (1) 
LIG

>  <lig_resi>  (1) 
201

>  <lig_chain>  (1) 
A

>  <lig_segi>  (1) 


>  <lig_alt>  (1) 


>  <polymer_chain>  (1) 
A

$$$$
x1453_0B§2
     RDKit          3D

 11 11  0  0  0  0  0  0  0  0999 V2000
    1.2850    4.5440  -33.7140 C   0  0  0  0  0  0  0  0  0  0  0  0
   -1.7520    3.0630  -34.9710 O   0  0  0  0  0  0  0  0  0  0  0  0
    0.3540    3.6000  -34.0840 C   0  0  0  0  0  0  0  0  0  0  0  0
   -3.3150    4.9320  -35.4840 O   0  0  0  0  0  0  0  0  0  0  0  0
   -0.8480    4.0130  -34.6310 C   0  0  0  0  0  0  0  0  0  0  0  0
   -2.4160    6.8710  -36.1550 O   0  0  0  0  0  0  0  0  0  0  0  0
   -1.1170    5.3810  -34.8180 C   0  0  0  0  0  0  0  0  0  0  0  0
   -2.3380    5.8030  -35.5540 C   0  0  0  0  0  0  0  0  0  0  0  0
   -0.1430    6.3050  -34.4400 C   0  0  0  0  0  0  0  0  0  0  0  0
    1.0570    5.8920  -33.8850 C   0  0  0  0  0  0  0  0  0  0  0  0
    2.9210    3.9690  -32.9450 Br  0  0  0  0  0  0  0  0  0  0  0  0
  1  3  2  0
  1 10  1  0
  1 11  1  0
  2  5  1  0
  3  5  1  0
  4  8  2  0
  5  7  2  0
  6  8  1  0
  7  8  1  0
  7  9  1  0
  9 10  2  0
A    1
 C  
A    2
 O  
A    3
 C1 
A    4
 O1 
A    5
 C2 
A    6
 O2 
A    7
 C3 
A    8
 C4 
A    9
 C5 
A   10
 C6 
A   11
BR  
M  END
>  <XChem_code>  (2) 
D68EV3CPROA-x1453

>  <Occupancy>  (2) 
[0.44, 0.44, 0.44, 0.44, 0.44, 0.44, 0.44, 0.44, 0.44, 0.44, 0.44]

>  <TempFactor>  (2) 
[43.72, 43.31, 44.8, 42.43, 43.46, 42.52, 43.85, 43.88, 44.27, 44.16, 45.33]

>  <RealCrystalName>  (2) 
D68EV3CPROA-x1453

>  <smiles>  (2) 
BrC1=CC(O)=C(C(O)=O)C=C1

>  <new_smiles>  (2) 
BrC1=CC(O)=C(C(O)=O)C=C1

>  <alternate_name>  (2) 
NCL-00024667

>  <site_name>  (2) 
1

>  <pdb_entry>  (2) 
nan

>  <mol>  (2) 
<rdkit.Chem.rdchem.Mol object at 0x165034120>

>  <single_smiles>  (2) 
O=C(O)c1ccc(Br)cc1O

>  <base_name>  (2) 
D68EV3CPROA-x1453_0B

>  <lig_resn>  (2) 
LIG

>  <lig_resi>  (2) 
201

>  <lig_chain>  (2) 
B

>  <lig_segi>  (2) 


>  <lig_alt>  (2) 


>  <polymer_chain>  (2) 
B

$$$$
x1498_0A§1
     RDKit          3D

  7  7  0  0  0  0  0  0  0  0999 V2000
   -5.6760   11.4090  -29.8020 N   0  0  0  0  0  0  0  0  0  0  0  0
   -6.5010   10.3800  -30.1470 C   0  0  0  0  0  0  0  0  0  0  0  0
   -7.1160    9.7560  -29.1800 O   0  0  0  0  0  0  0  0  0  0  0  0
   -6.7610   10.0140  -31.4690 C   0  0  0  0  0  0  0  0  0  0  0  0
   -6.1610   10.7590  -32.4710 C   0  0  0  0  0  0  0  0  0  0  0  0
   -5.3260   11.8150  -32.1470 C   0  0  0  0  0  0  0  0  0  0  0  0
   -5.1130   12.0970  -30.8080 C   0  0  0  0  0  0  0  0  0  0  0  0
  1  2  2  0
  1  7  1  0
  2  3  1  0
  2  4  1  0
  4  5  2  0
  5  6  1  0
  6  7  2  0
A    1
 N  
A    2
 C  
A    3
 O  
A    4
 C1 
A    5
 C2 
A    6
 C3 
A    7
 C4 
M  END
>  <XChem_code>  (3) 
D68EV3CPROA-x1498

>  <Occupancy>  (3) 
[0.88, 0.88, 0.88, 0.88, 0.88, 0.88, 0.88]

>  <TempFactor>  (3) 
[42.68, 37.56, 35.8, 40.47, 43.12, 43.66, 44.2]

>  <RealCrystalName>  (3) 
D68EV3CPROA-x1498

>  <smiles>  (3) 
OC=1C=CC=CN1

>  <new_smiles>  (3) 
OC=1C=CC=CN1

>  <alternate_name>  (3) 
Z1741982125

>  <site_name>  (3) 
1

>  <pdb_entry>  (3) 
nan

>  <mol>  (3) 
<rdkit.Chem.rdchem.Mol object at 0x1650343c0>

>  <single_smiles>  (3) 
Oc1ccccn1

>  <base_name>  (3) 
D68EV3CPROA-x1498_0A

>  <lig_resn>  (3) 
LIG

>  <lig_resi>  (3) 
201

>  <lig_chain>  (3) 
A

>  <lig_segi>  (3) 


>  <lig_alt>  (3) 


>  <polymer_chain>  (3) 
A

$$$$
x0232_0B§3
     RDKit          3D

 13 14  0  0  0  0  0  0  0  0999 V2000
    2.0030    4.8220  -32.3020 N   0  0  0  0  0  0  0  0  0  0  0  0
    0.0760    5.1100  -34.2320 C   0  0  0  0  0  0  0  0  0  0  0  0
    0.7970    6.9380  -32.5550 O   0  0  0  0  0  0  0  0  0  0  0  0
   -1.1390    5.7700  -34.3670 C   0  0  0  0  0  0  0  0  0  0  0  0
   -2.9540    3.2010  -36.3700 N   0  0  0  0  0  0  0  0  0  0  0  0
    2.4110    6.2190  -34.2630 O   0  0  0  0  0  0  0  0  0  0  0  0
   -0.8250    1.7340  -36.2960 S   0  0  0  0  0  0  0  0  0  0  0  0
   -2.1630    5.1900  -35.0990 C   0  0  0  0  0  0  0  0  0  0  0  0
   -1.9920    3.9270  -35.6610 C   0  0  0  0  0  0  0  0  0  0  0  0
   -2.4670    2.0680  -36.7390 C   0  0  0  0  0  0  0  0  0  0  0  0
   -0.7600    3.2830  -35.5140 C   0  0  0  0  0  0  0  0  0  0  0  0
    0.2850    3.8670  -34.8120 C   0  0  0  0  0  0  0  0  0  0  0  0
    1.3820    5.8830  -33.3260 S   0  0  1  0  0  0  0  0  0  0  0  0
 13  1  1  1
  2  4  2  0
  2 12  1  0
  2 13  1  0
  3 13  2  0
  4  8  1  0
  5  9  1  0
  5 10  2  0
  6 13  2  0
  7 10  1  0
  7 11  1  0
  8  9  2  0
  9 11  1  0
 11 12  2  0
A    1
 N  
A    2
 C  
A    3
 O  
A    4
 C1 
A    5
 N1 
A    6
 O1 
A    7
 S1 
A    8
 C2 
A    9
 C3 
A   10
 C4 
A   11
 C5 
A   12
 C6 
A   13
 S  
M  END
>  <XChem_code>  (4) 
D68EV3CPROA-x0232

>  <Occupancy>  (4) 
[0.64, 0.64, 0.64, 0.64, 0.64, 0.64, 0.64, 0.64, 0.64, 0.64, 0.64, 0.64, 0.64]

>  <TempFactor>  (4) 
[48.88, 49.78, 50.91, 49.09, 53.61, 52.54, 57.54, 51.16, 52.47, 54.77, 51.84, 50.42, 48.86]

>  <RealCrystalName>  (4) 
D68EV3CPROA-x0232

>  <smiles>  (4) 
NS(=O)(=O)c1ccc2ncsc2c1

>  <new_smiles>  (4) 
NS(=O)(=O)c1ccc2ncsc2c1

>  <alternate_name>  (4) 
Z1269184613

>  <site_name>  (4) 
4

>  <pdb_entry>  (4) 
nan

>  <mol>  (4) 
<rdkit.Chem.rdchem.Mol object at 0x162e33a70>

>  <single_smiles>  (4) 
NS(=O)(=O)c1ccc2ncsc2c1

>  <base_name>  (4) 
D68EV3CPROA-x0232_0B

>  <lig_resn>  (4) 
LIG

>  <lig_resi>  (4) 
201

>  <lig_chain>  (4) 
B

>  <lig_segi>  (4) 


>  <lig_alt>  (4) 


>  <polymer_chain>  (4) 
B

$$$$
x0771_1A§1
     RDKit          3D

 12 13  0  0  0  0  0  0  0  0999 V2000
   -5.6790   11.9310  -29.3990 N   0  0  0  0  0  0  0  0  0  0  0  0
   -6.3840   10.8960  -29.8420 C   0  0  0  0  0  0  0  0  0  0  0  0
   -6.9430   10.0880  -29.0820 O   0  0  0  0  0  0  0  0  0  0  0  0
   -6.5020   10.7170  -31.3270 C   0  0  0  0  0  0  0  0  0  0  0  0
   -6.7520   10.0160  -35.4110 N   0  0  0  0  0  0  0  0  0  0  0  0
   -6.5570   11.8360  -32.1720 C   0  0  0  0  0  0  0  0  0  0  0  0
   -6.6430   11.6880  -33.5490 C   0  0  0  0  0  0  0  0  0  0  0  0
   -6.6470   10.3990  -34.0790 C   0  0  0  0  0  0  0  0  0  0  0  0
   -6.3200    8.6230  -35.5550 C   0  0  0  0  0  0  0  0  0  0  0  0
   -6.4470    8.0560  -34.1300 C   0  0  0  0  0  0  0  0  0  0  0  0
   -6.5640    9.2800  -33.2630 C   0  0  0  0  0  0  0  0  0  0  0  0
   -6.5210    9.4400  -31.8850 C   0  0  0  0  0  0  0  0  0  0  0  0
  1  2  1  0
  2  3  2  0
  2  4  1  0
  4  6  2  0
  4 12  1  0
  5  8  1  0
  5  9  1  0
  6  7  1  0
  7  8  2  0
  8 11  1  0
  9 10  1  0
 10 11  1  0
 11 12  2  0
A    1
 N  
A    2
 C  
A    3
 O  
A    4
 C1 
A    5
 N1 
A    6
 C2 
A    7
 C3 
A    8
 C4 
A    9
 C5 
A   10
 C6 
A   11
 C7 
A   12
 C8 
M  END
>  <XChem_code>  (5) 
D68EV3CPROA-x0771

>  <Occupancy>  (5) 
[0.64, 0.64, 0.64, 0.64, 0.64, 0.64, 0.64, 0.64, 0.64, 0.64, 0.64, 0.64]

>  <TempFactor>  (5) 
[49.02, 50.98, 46.17, 54.1, 60.3, 56.33, 58.38, 60.28, 61.4, 60.15, 59.84, 57.61]

>  <RealCrystalName>  (5) 
D68EV3CPROA-x0771

>  <smiles>  (5) 
Cl.NC(=O)c1ccc2NCCc2c1

>  <new_smiles>  (5) 
Cl.NC(=O)c1ccc2NCCc2c1

>  <alternate_name>  (5) 
Z1696091761

>  <site_name>  (5) 
3

>  <pdb_entry>  (5) 
nan

>  <mol>  (5) 
<rdkit.Chem.rdchem.Mol object at 0x162e329d0>

>  <single_smiles>  (5) 
NC(=O)c1ccc2c(c1)CCN2

>  <base_name>  (5) 
D68EV3CPROA-x0771_1A

>  <lig_resn>  (5) 
LIG

>  <lig_resi>  (5) 
301

>  <lig_chain>  (5) 
A

>  <lig_segi>  (5) 


>  <lig_alt>  (5) 


>  <polymer_chain>  (5) 
A

$$$$
x0980_0B§1
     RDKit          3D

 17 18  0  0  0  0  0  0  0  0999 V2000
   -4.3660   13.8820  -31.0770 N   0  0  0  0  0  0  0  0  0  0  0  0
   -2.8990   13.8130  -33.5730 C   0  0  0  0  0  0  0  0  0  0  0  0
   -2.8790   12.5190  -30.0510 O   0  0  0  0  0  0  0  0  0  0  0  0
   -2.7490   14.9250  -32.5660 C   0  0  0  0  0  0  0  0  0  0  0  0
   -7.1710    9.9370  -29.6620 N   0  0  0  0  0  0  0  0  0  0  0  0
   -1.8480   15.9640  -32.7910 C   0  0  0  0  0  0  0  0  0  0  0  0
   -1.6300   16.9590  -31.8560 C   0  0  0  0  0  0  0  0  0  0  0  0
   -2.3440   16.9140  -30.6860 C   0  0  0  0  0  0  0  0  0  0  0  0
   -3.2680   15.9380  -30.4090 C   0  0  0  0  0  0  0  0  0  0  0  0
   -3.4680   14.9320  -31.3550 C   0  0  0  0  0  0  0  0  0  0  0  0
   -4.0230   12.7490  -30.4300 C   0  0  0  0  0  0  0  0  0  0  0  0
   -5.1320   11.7810  -30.1740 C   0  0  0  0  0  0  0  0  0  0  0  0
   -5.8670   11.2200  -31.2140 C   0  0  0  0  0  0  0  0  0  0  0  0
   -6.8630   10.3130  -30.9100 C   0  0  0  0  0  0  0  0  0  0  0  0
   -6.4560   10.4850  -28.6720 C   0  0  0  0  0  0  0  0  0  0  0  0
   -5.4400   11.4000  -28.8740 C   0  0  0  0  0  0  0  0  0  0  0  0
   -2.1100   17.8670  -29.7410 F   0  0  0  0  0  0  0  0  0  0  0  0
  1 10  1  0
  1 11  1  0
  2  4  1  0
  3 11  2  0
  4  6  2  0
  4 10  1  0
  5 14  2  0
  5 15  1  0
  6  7  1  0
  7  8  2  0
  8  9  1  0
  8 17  1  0
  9 10  2  0
 11 12  1  0
 12 13  2  0
 12 16  1  0
 13 14  1  0
 15 16  2  0
A    1
 N  
A    2
 C  
A    3
 O  
A    4
 C1 
A    5
 N1 
A    6
 C2 
A    7
 C3 
A    8
 C4 
A    9
 C5 
A   10
 C6 
A   11
 C7 
A   12
 C8 
A   13
 C9 
A   14
 C10
A   15
 C11
A   16
 C12
A   17
 F  
M  END
>  <XChem_code>  (6) 
D68EV3CPROA-x0980

>  <Occupancy>  (6) 
[0.62, 0.62, 0.62, 0.62, 0.62, 0.62, 0.62, 0.62, 0.62, 0.62, 0.62, 0.62, 0.62, 0.62, 0.62, 0.62, 0.62]

>  <TempFactor>  (6) 
[63.79, 74.68, 53.61, 73.53, 45.77, 75.37, 78.48, 80.64, 76.38, 71.86, 57.46, 53.08, 49.42, 49.52, 51.16, 51.21, 87.9]

>  <RealCrystalName>  (6) 
D68EV3CPROA-x0980

>  <smiles>  (6) 
Cc1ccc(F)cc1NC(=O)c2ccncc2

>  <new_smiles>  (6) 
Cc1ccc(F)cc1NC(=O)c2ccncc2

>  <alternate_name>  (6) 
Z30904160

>  <site_name>  (6) 
1

>  <pdb_entry>  (6) 
nan

>  <mol>  (6) 
<rdkit.Chem.rdchem.Mol object at 0x164f2af10>

>  <single_smiles>  (6) 
Cc1ccc(F)cc1NC(=O)c1ccncc1

>  <base_name>  (6) 
D68EV3CPROA-x0980_0B

>  <lig_resn>  (6) 
LIG

>  <lig_resi>  (6) 
201

>  <lig_chain>  (6) 
B

>  <lig_segi>  (6) 


>  <lig_alt>  (6) 


>  <polymer_chain>  (6) 
B

$$$$
x0147_0A§1
     RDKit          3D

  9 10  0  0  0  0  0  0  0  0999 V2000
   -7.2300    9.6790  -30.3200 N   0  0  0  0  0  0  0  0  0  0  0  0
   -6.6340   10.0970  -31.4020 C   0  0  0  0  0  0  0  0  0  0  0  0
   -5.8950   11.3220  -29.7400 C   0  0  0  0  0  0  0  0  0  0  0  0
   -6.7690   10.4490  -29.2520 N   0  0  0  0  0  0  0  0  0  0  0  0
   -5.0960   12.3520  -29.1780 C   0  0  0  0  0  0  0  0  0  0  0  0
   -4.2700   13.0910  -29.8760 N   0  0  0  0  0  0  0  0  0  0  0  0
   -4.1850   12.8380  -31.2230 C   0  0  0  0  0  0  0  0  0  0  0  0
   -5.7810   11.1200  -31.1120 N   0  0  0  0  0  0  0  0  0  0  0  0
   -4.9040   11.8930  -31.8620 C   0  0  0  0  0  0  0  0  0  0  0  0
  1  2  2  0
  1  4  1  0
  2  8  1  0
  3  4  2  0
  3  5  1  0
  3  8  1  0
  5  6  2  0
  6  7  1  0
  7  9  2  0
  8  9  1  0
A    1
 N  
A    2
 C  
A    3
 C1 
A    4
 N1 
A    5
 C2 
A    6
 N2 
A    7
 C3 
A    8
 N3 
A    9
 C4 
M  END
>  <XChem_code>  (7) 
D68EV3CPROA-x0147

>  <Occupancy>  (7) 
[0.66, 0.66, 0.66, 0.66, 0.66, 0.66, 0.66, 0.66, 0.66]

>  <TempFactor>  (7) 
[40.37, 43.04, 42.99, 41.58, 44.34, 44.94, 44.77, 45.02, 45.86]

>  <RealCrystalName>  (7) 
D68EV3CPROA-x0147

>  <smiles>  (7) 
c1nnc2cnccn12

>  <new_smiles>  (7) 
c1nnc2cnccn12

>  <alternate_name>  (7) 
Z1182328459

>  <site_name>  (7) 
1

>  <pdb_entry>  (7) 
nan

>  <mol>  (7) 
<rdkit.Chem.rdchem.Mol object at 0x16324cc10>

>  <single_smiles>  (7) 
c1cn2cnnc2cn1

>  <base_name>  (7) 
D68EV3CPROA-x0147_0A

>  <lig_resn>  (7) 
LIG

>  <lig_resi>  (7) 
201

>  <lig_chain>  (7) 
A

>  <lig_segi>  (7) 


>  <lig_alt>  (7) 


>  <polymer_chain>  (7) 
A

$$$$
x1285_0B§2
     RDKit          3D

 13 14  0  0  0  0  0  0  0  0999 V2000
  -10.6520   19.6760  -30.1380 N   0  0  0  0  0  0  0  0  0  0  0  0
   -9.9820   17.1800  -31.2410 C   0  0  1  0  0  0  0  0  0  0  0  0
  -10.9250   16.5330  -30.3940 O   0  0  0  0  0  0  0  0  0  0  0  0
  -10.6930   18.1730  -32.1210 C   0  0  0  0  0  0  0  0  0  0  0  0
  -11.4430   19.1980  -31.2830 C   0  0  0  0  0  0  0  0  0  0  0  0
  -10.8780   21.1100  -29.9290 C   0  0  0  0  0  0  0  0  0  0  0  0
  -11.3020   21.5050  -28.5370 C   0  0  0  0  0  0  0  0  0  0  0  0
  -11.2000   22.8270  -27.9980 C   0  0  0  0  0  0  0  0  0  0  0  0
  -11.6850   22.9370  -26.7200 C   0  0  0  0  0  0  0  0  0  0  0  0
  -11.8630   20.6350  -27.6410 C   0  0  0  0  0  0  0  0  0  0  0  0
   -9.2200   19.3860  -30.3540 C   0  0  0  0  0  0  0  0  0  0  0  0
   -8.9480   17.8850  -30.4010 C   0  0  0  0  0  0  0  0  0  0  0  0
  -12.2700   21.3910  -26.1670 S   0  0  0  0  0  0  0  0  0  0  0  0
  1  5  1  0
  1  6  1  0
  1 11  1  0
  2  3  1  1
  2  4  1  0
  2 12  1  0
  4  5  1  0
  6  7  1  0
  7  8  1  0
  7 10  2  0
  8  9  2  0
  9 13  1  0
 10 13  1  0
 11 12  1  0
A    1
 N  
A    2
 C  
A    3
 O  
A    4
 C1 
A    5
 C2 
A    6
 C3 
A    7
 C4 
A    8
 C5 
A    9
 C6 
A   10
 C7 
A   11
 C8 
A   12
 C9 
A   13
 S  
M  END
>  <XChem_code>  (8) 
D68EV3CPROA-x1285

>  <Occupancy>  (8) 
[0.98, 0.98, 0.98, 0.98, 0.98, 0.98, 0.98, 0.98, 0.98, 0.98, 0.98, 0.98, 0.98]

>  <TempFactor>  (8) 
[62.92, 53.85, 55.84, 55.42, 59.07, 67.89, 75.42, 75.35, 79.39, 78.53, 58.69, 54.38, 86.51]

>  <RealCrystalName>  (8) 
D68EV3CPROA-x1285

>  <smiles>  (8) 
OC1CCN(Cc2ccsc2)CC1

>  <new_smiles>  (8) 
OC1CCN(Cc2ccsc2)CC1

>  <alternate_name>  (8) 
Z905434478

>  <site_name>  (8) 
5

>  <pdb_entry>  (8) 
nan

>  <mol>  (8) 
<rdkit.Chem.rdchem.Mol object at 0x164f2bae0>

>  <single_smiles>  (8) 
OC1CCN(Cc2ccsc2)CC1

>  <base_name>  (8) 
D68EV3CPROA-x1285_0B

>  <lig_resn>  (8) 
LIG

>  <lig_resi>  (8) 
301

>  <lig_chain>  (8) 
B

>  <lig_segi>  (8) 


>  <lig_alt>  (8) 


>  <polymer_chain>  (8) 
B

$$$$
x1498_1B§1
     RDKit          3D

  7  7  0  0  0  0  0  0  0  0999 V2000
   -5.6770   11.4110  -29.8030 N   0  0  0  0  0  0  0  0  0  0  0  0
   -6.5030   10.3810  -30.1480 C   0  0  0  0  0  0  0  0  0  0  0  0
   -7.1170    9.7570  -29.1810 O   0  0  0  0  0  0  0  0  0  0  0  0
   -6.7630   10.0140  -31.4690 C   0  0  0  0  0  0  0  0  0  0  0  0
   -6.1620   10.7610  -32.4710 C   0  0  0  0  0  0  0  0  0  0  0  0
   -5.3280   11.8160  -32.1480 C   0  0  0  0  0  0  0  0  0  0  0  0
   -5.1140   12.0970  -30.8080 C   0  0  0  0  0  0  0  0  0  0  0  0
  1  2  2  0
  1  7  1  0
  2  3  1  0
  2  4  1  0
  4  5  2  0
  5  6  1  0
  6  7  2  0
A    1
 N  
A    2
 C  
A    3
 O  
A    4
 C1 
A    5
 C2 
A    6
 C3 
A    7
 C4 
M  END
>  <XChem_code>  (9) 
D68EV3CPROA-x1498

>  <Occupancy>  (9) 
[0.88, 0.88, 0.88, 0.88, 0.88, 0.88, 0.88]

>  <TempFactor>  (9) 
[42.68, 37.56, 35.8, 40.47, 43.12, 43.66, 44.2]

>  <RealCrystalName>  (9) 
D68EV3CPROA-x1498

>  <smiles>  (9) 
OC=1C=CC=CN1

>  <new_smiles>  (9) 
OC=1C=CC=CN1

>  <alternate_name>  (9) 
Z1741982125

>  <site_name>  (9) 
5

>  <pdb_entry>  (9) 
nan

>  <mol>  (9) 
<rdkit.Chem.rdchem.Mol object at 0x1650344a0>

>  <single_smiles>  (9) 
Oc1ccccn1

>  <base_name>  (9) 
D68EV3CPROA-x1498_1B

>  <lig_resn>  (9) 
LIG

>  <lig_resi>  (9) 
201

>  <lig_chain>  (9) 
A

>  <lig_segi>  (9) 


>  <lig_alt>  (9) 


>  <polymer_chain>  (9) 
A

$$$$
x1594_0A§1
     RDKit          3D

 10 11  0  0  0  0  0  0  0  0999 V2000
   -6.8740    9.8340  -32.5350 N   0  0  0  0  0  0  0  0  0  0  0  0
   -6.6660   10.2800  -31.2910 C   0  0  0  0  0  0  0  0  0  0  0  0
   -5.8820   11.4760  -29.6270 C   0  0  0  0  0  0  0  0  0  0  0  0
   -7.1990    9.8070  -30.1740 N   0  0  0  0  0  0  0  0  0  0  0  0
   -5.0830   12.4690  -29.0140 C   0  0  0  0  0  0  0  0  0  0  0  0
   -6.7030   10.5680  -29.1130 N   0  0  0  0  0  0  0  0  0  0  0  0
   -4.2680   13.2420  -29.7830 C   0  0  0  0  0  0  0  0  0  0  0  0
   -5.8120   11.3450  -31.0120 N   0  0  0  0  0  0  0  0  0  0  0  0
   -4.2110   13.0710  -31.1840 C   0  0  0  0  0  0  0  0  0  0  0  0
   -4.9820   12.1370  -31.7840 C   0  0  0  0  0  0  0  0  0  0  0  0
  1  2  1  0
  2  4  2  0
  2  8  1  0
  3  5  1  0
  3  6  2  0
  3  8  1  0
  4  6  1  0
  5  7  2  0
  7  9  1  0
  8 10  1  0
  9 10  2  0
A    1
 N  
A    2
 C  
A    3
 C1 
A    4
 N1 
A    5
 C2 
A    6
 N2 
A    7
 C3 
A    8
 N3 
A    9
 C4 
A   10
 C5 
M  END
>  <XChem_code>  (10) 
D68EV3CPROA-x1594

>  <Occupancy>  (10) 
[0.66, 0.66, 0.66, 0.66, 0.66, 0.66, 0.66, 0.66, 0.66, 0.66]

>  <TempFactor>  (10) 
[32.44, 31.86, 32.44, 29.37, 32.27, 30.89, 34.56, 32.15, 34.73, 34.07]

>  <RealCrystalName>  (10) 
D68EV3CPROA-x1594

>  <smiles>  (10) 
NC1=NN=C2C=CC=CN12

>  <new_smiles>  (10) 
NC1=NN=C2C=CC=CN12

>  <alternate_name>  (10) 
Z362020366

>  <site_name>  (10) 
1

>  <pdb_entry>  (10) 
nan

>  <mol>  (10) 
<rdkit.Chem.rdchem.Mol object at 0x165034b30>

>  <single_smiles>  (10) 
Nc1nnc2ccccn12

>  <base_name>  (10) 
D68EV3CPROA-x1594_0A

>  <lig_resn>  (10) 
LIG

>  <lig_resi>  (10) 
201

>  <lig_chain>  (10) 
A

>  <lig_segi>  (10) 


>  <lig_alt>  (10) 


>  <polymer_chain>  (10) 
A

$$$$
x1537_0A§1
     RDKit          3D

  6  6  0  0  0  0  0  0  0  0999 V2000
   -6.1610   11.4540  -31.1560 N   0  0  0  0  0  0  0  0  0  0  0  0
   -5.0770   12.6190  -29.2410 C   0  0  0  0  0  0  0  0  0  0  0  0
   -6.0060   11.6350  -29.8650 C   0  0  0  0  0  0  0  0  0  0  0  0
   -7.0430   10.4260  -31.2910 N   0  0  0  0  0  0  0  0  0  0  0  0
   -7.4280    9.9910  -30.1340 N   0  0  0  0  0  0  0  0  0  0  0  0
   -6.7910   10.7450  -29.2200 N   0  0  0  0  0  0  0  0  0  0  0  0
  1  3  2  0
  1  4  1  0
  2  3  1  0
  3  6  1  0
  4  5  2  0
  5  6  1  0
A    1
 N  
A    2
 C  
A    3
 C1 
A    4
 N1 
A    5
 N2 
A    6
 N3 
M  END
>  <XChem_code>  (11) 
D68EV3CPROA-x1537

>  <Occupancy>  (11) 
[0.67, 0.67, 0.67, 0.67, 0.67, 0.67]

>  <TempFactor>  (11) 
[19.84, 19.74, 18.86, 19.5, 17.53, 18.3]

>  <RealCrystalName>  (11) 
D68EV3CPROA-x1537

>  <smiles>  (11) 
CC1=NN=NN1

>  <new_smiles>  (11) 
CC1=NN=NN1

>  <alternate_name>  (11) 
Z56761437

>  <site_name>  (11) 
1

>  <pdb_entry>  (11) 
nan

>  <mol>  (11) 
<rdkit.Chem.rdchem.Mol object at 0x1650345f0>

>  <single_smiles>  (11) 
Cc1nnn[nH]1

>  <base_name>  (11) 
D68EV3CPROA-x1537_0A

>  <lig_resn>  (11) 
LIG

>  <lig_resi>  (11) 
201

>  <lig_chain>  (11) 
A

>  <lig_segi>  (11) 


>  <lig_alt>  (11) 


>  <polymer_chain>  (11) 
A

$$$$
x1604_0A§1
     RDKit          3D

 15 16  0  0  0  0  0  0  0  0999 V2000
   -2.2250   15.0480  -29.0690 C   0  0  0  0  0  0  0  0  0  0  0  0
   -2.5240   13.6820  -31.0050 O   0  0  0  0  0  0  0  0  0  0  0  0
   -3.2430   14.3520  -29.9410 C   0  0  2  0  0  0  0  0  0  0  0  0
   -2.7250   12.4690  -32.8290 O   0  0  0  0  0  0  0  0  0  0  0  0
   -4.2730   15.2990  -30.5210 C   0  0  0  0  0  0  0  0  0  0  0  0
   -7.3450   10.1200  -29.0680 O   0  0  0  0  0  0  0  0  0  0  0  0
   -3.1620   12.7220  -31.7330 C   0  0  0  0  0  0  0  0  0  0  0  0
   -3.9100   13.3750  -29.1090 O   0  0  0  0  0  0  0  0  0  0  0  0
   -4.3010   12.0730  -31.0890 C   0  0  0  0  0  0  0  0  0  0  0  0
   -5.0350   11.0750  -31.7270 C   0  0  0  0  0  0  0  0  0  0  0  0
   -6.0580   10.4410  -31.0390 C   0  0  0  0  0  0  0  0  0  0  0  0
   -6.3750   10.7900  -29.7310 C   0  0  0  0  0  0  0  0  0  0  0  0
   -5.6600   11.8040  -29.1130 C   0  0  0  0  0  0  0  0  0  0  0  0
   -4.6330   12.4240  -29.7900 C   0  0  0  0  0  0  0  0  0  0  0  0
   -7.0310    9.0590  -31.8950 Br  0  0  0  0  0  0  0  0  0  0  0  0
  3  1  1  1
  2  3  1  0
  2  7  1  0
  3  5  1  0
  3  8  1  0
  4  7  2  0
  6 12  1  0
  7  9  1  0
  8 14  1  0
  9 10  2  0
  9 14  1  0
 10 11  1  0
 11 12  2  0
 11 15  1  0
 12 13  1  0
 13 14  2  0
A    1
 C  
A    2
 O  
A    3
 C1 
A    4
 O1 
A    5
 C2 
A    6
 O2 
A    7
 C3 
A    8
 O3 
A    9
 C4 
A   10
 C5 
A   11
 C6 
A   12
 C7 
A   13
 C8 
A   14
 C9 
A   15
BR  
M  END
>  <XChem_code>  (12) 
D68EV3CPROA-x1604

>  <Occupancy>  (12) 
[0.7, 0.7, 0.7, 0.7, 0.7, 0.7, 0.7, 0.7, 0.7, 0.7, 0.7, 0.7, 0.7, 0.7, 0.7]

>  <TempFactor>  (12) 
[72.3, 77.66, 74.79, 71.79, 72.05, 62.52, 75.7, 75.21, 75.25, 76.05, 72.74, 67.77, 70.53, 72.83, 84.1]

>  <RealCrystalName>  (12) 
D68EV3CPROA-x1604

>  <smiles>  (12) 
CC1(C)OC(=O)C=2C=C(Br)C(O)=CC2O1

>  <new_smiles>  (12) 
CC1(C)OC(=O)C=2C=C(Br)C(O)=CC2O1

>  <alternate_name>  (12) 
Z1509711879

>  <site_name>  (12) 
1

>  <pdb_entry>  (12) 
nan

>  <mol>  (12) 
<rdkit.Chem.rdchem.Mol object at 0x165034c10>

>  <single_smiles>  (12) 
CC1(C)OC(=O)c2cc(Br)c(O)cc2O1

>  <base_name>  (12) 
D68EV3CPROA-x1604_0A

>  <lig_resn>  (12) 
LIG

>  <lig_resi>  (12) 
201

>  <lig_chain>  (12) 
A

>  <lig_segi>  (12) 


>  <lig_alt>  (12) 


>  <polymer_chain>  (12) 
A

$$$$
x1498_0B§1
     RDKit          3D

  7  7  0  0  0  0  0  0  0  0999 V2000
   -5.6770   11.4110  -29.8030 N   0  0  0  0  0  0  0  0  0  0  0  0
   -6.5030   10.3810  -30.1480 C   0  0  0  0  0  0  0  0  0  0  0  0
   -7.1170    9.7570  -29.1810 O   0  0  0  0  0  0  0  0  0  0  0  0
   -6.7630   10.0140  -31.4690 C   0  0  0  0  0  0  0  0  0  0  0  0
   -6.1620   10.7610  -32.4710 C   0  0  0  0  0  0  0  0  0  0  0  0
   -5.3280   11.8160  -32.1480 C   0  0  0  0  0  0  0  0  0  0  0  0
   -5.1140   12.0970  -30.8080 C   0  0  0  0  0  0  0  0  0  0  0  0
  1  2  2  0
  1  7  1  0
  2  3  1  0
  2  4  1  0
  4  5  2  0
  5  6  1  0
  6  7  2  0
A    1
 N  
A    2
 C  
A    3
 O  
A    4
 C1 
A    5
 C2 
A    6
 C3 
A    7
 C4 
M  END
>  <XChem_code>  (13) 
D68EV3CPROA-x1498

>  <Occupancy>  (13) 
[0.88, 0.88, 0.88, 0.88, 0.88, 0.88, 0.88]

>  <TempFactor>  (13) 
[42.68, 37.56, 35.8, 40.47, 43.12, 43.66, 44.2]

>  <RealCrystalName>  (13) 
D68EV3CPROA-x1498

>  <smiles>  (13) 
OC=1C=CC=CN1

>  <new_smiles>  (13) 
OC=1C=CC=CN1

>  <alternate_name>  (13) 
Z1741982125

>  <site_name>  (13) 
5

>  <pdb_entry>  (13) 
nan

>  <mol>  (13) 
<rdkit.Chem.rdchem.Mol object at 0x165034430>

>  <single_smiles>  (13) 
Oc1ccccn1

>  <base_name>  (13) 
D68EV3CPROA-x1498_0B

>  <lig_resn>  (13) 
LIG

>  <lig_resi>  (13) 
201

>  <lig_chain>  (13) 
A

>  <lig_segi>  (13) 


>  <lig_alt>  (13) 


>  <polymer_chain>  (13) 
A

$$$$
x0789_0A§1
     RDKit          3D

 14 15  0  0  0  0  0  0  0  0999 V2000
   -5.0840   12.5720  -31.8370 N   0  0  0  0  0  0  0  0  0  0  0  0
   -2.2140   12.6440  -32.8890 C   0  0  0  0  0  0  0  0  0  0  0  0
   -3.2670   15.7120  -32.3610 O   0  0  0  0  0  0  0  0  0  0  0  0
   -3.0400   13.7050  -33.6190 C   0  0  2  0  0  0  0  0  0  0  0  0
   -6.3400   10.6340  -29.0490 N   0  0  0  0  0  0  0  0  0  0  0  0
   -4.5700   14.3130  -30.4410 O   0  0  0  0  0  0  0  0  0  0  0  0
   -2.1950   14.7940  -34.2650 C   0  0  0  0  0  0  0  0  0  0  0  0
   -6.8740    9.8470  -29.9140 N   0  0  0  0  0  0  0  0  0  0  0  0
   -2.0740   15.8090  -33.1560 C   0  0  0  0  0  0  0  0  0  0  0  0
   -4.0140   14.5500  -32.7700 C   0  0  1  0  0  0  0  0  0  0  0  0
   -4.5740   13.8060  -31.5620 C   0  0  0  0  0  0  0  0  0  0  0  0
   -5.6560   11.7000  -30.9130 C   0  0  0  0  0  0  0  0  0  0  0  0
   -5.6500   11.6820  -29.5590 C   0  0  0  0  0  0  0  0  0  0  0  0
   -6.5580   10.3550  -31.4830 S   0  0  0  0  0  0  0  0  0  0  0  0
  1 11  1  0
  1 12  1  0
  4  2  1  1
  3  9  1  0
  3 10  1  0
  4  7  1  0
  4 10  1  0
  5  8  2  0
  5 13  1  0
  6 11  2  0
  7  9  1  0
  8 14  1  0
 10 11  1  1
 12 13  2  0
 12 14  1  0
A    1
 N  
A    2
 C  
A    3
 O  
A    4
 C1 
A    5
 N1 
A    6
 O1 
A    7
 C2 
A    8
 N2 
A    9
 C3 
A   10
 C4 
A   11
 C5 
A   12
 C6 
A   13
 C7 
A   14
 S  
M  END
>  <XChem_code>  (14) 
D68EV3CPROA-x0789

>  <Occupancy>  (14) 
[0.7, 0.7, 0.7, 0.7, 0.7, 0.7, 0.7, 0.7, 0.7, 0.7, 0.7, 0.7, 0.7, 0.7]

>  <TempFactor>  (14) 
[56.59, 66.21, 67.77, 68.43, 44.39, 60.91, 69.25, 42.57, 69.8, 66.66, 61.67, 48.87, 42.82, 49.48]

>  <RealCrystalName>  (14) 
D68EV3CPROA-x0789

>  <smiles>  (14) 
CC1CCOC1C(=O)Nc2cnns2

>  <new_smiles>  (14) 
CC1CCOC1C(=O)Nc2cnns2

>  <alternate_name>  (14) 
Z1827602749

>  <site_name>  (14) 
1

>  <pdb_entry>  (14) 
nan

>  <mol>  (14) 
<rdkit.Chem.rdchem.Mol object at 0x162e32730>

>  <single_smiles>  (14) 
CC1CCOC1C(=O)Nc1cnns1

>  <base_name>  (14) 
D68EV3CPROA-x0789_0A

>  <lig_resn>  (14) 
LIG

>  <lig_resi>  (14) 
201

>  <lig_chain>  (14) 
A

>  <lig_segi>  (14) 


>  <lig_alt>  (14) 


>  <polymer_chain>  (14) 
A

$$$$
x1285_1B§2
     RDKit          3D

 13 14  0  0  0  0  0  0  0  0999 V2000
  -10.6520   19.6760  -30.1380 N   0  0  0  0  0  0  0  0  0  0  0  0
   -9.9820   17.1800  -31.2410 C   0  0  1  0  0  0  0  0  0  0  0  0
  -10.9250   16.5330  -30.3940 O   0  0  0  0  0  0  0  0  0  0  0  0
  -10.6930   18.1730  -32.1210 C   0  0  0  0  0  0  0  0  0  0  0  0
  -11.4430   19.1980  -31.2830 C   0  0  0  0  0  0  0  0  0  0  0  0
  -10.8780   21.1100  -29.9290 C   0  0  0  0  0  0  0  0  0  0  0  0
  -11.3020   21.5050  -28.5370 C   0  0  0  0  0  0  0  0  0  0  0  0
  -11.2000   22.8270  -27.9980 C   0  0  0  0  0  0  0  0  0  0  0  0
  -11.6850   22.9370  -26.7200 C   0  0  0  0  0  0  0  0  0  0  0  0
  -11.8630   20.6350  -27.6410 C   0  0  0  0  0  0  0  0  0  0  0  0
   -9.2200   19.3860  -30.3540 C   0  0  0  0  0  0  0  0  0  0  0  0
   -8.9480   17.8850  -30.4010 C   0  0  0  0  0  0  0  0  0  0  0  0
  -12.2700   21.3910  -26.1670 S   0  0  0  0  0  0  0  0  0  0  0  0
  1  5  1  0
  1  6  1  0
  1 11  1  0
  2  3  1  1
  2  4  1  0
  2 12  1  0
  4  5  1  0
  6  7  1  0
  7  8  1  0
  7 10  2  0
  8  9  2  0
  9 13  1  0
 10 13  1  0
 11 12  1  0
A    1
 N  
A    2
 C  
A    3
 O  
A    4
 C1 
A    5
 C2 
A    6
 C3 
A    7
 C4 
A    8
 C5 
A    9
 C6 
A   10
 C7 
A   11
 C8 
A   12
 C9 
A   13
 S  
M  END
>  <XChem_code>  (15) 
D68EV3CPROA-x1285

>  <Occupancy>  (15) 
[0.98, 0.98, 0.98, 0.98, 0.98, 0.98, 0.98, 0.98, 0.98, 0.98, 0.98, 0.98, 0.98]

>  <TempFactor>  (15) 
[62.92, 53.85, 55.84, 55.42, 59.07, 67.89, 75.42, 75.35, 79.39, 78.53, 58.69, 54.38, 86.51]

>  <RealCrystalName>  (15) 
D68EV3CPROA-x1285

>  <smiles>  (15) 
OC1CCN(Cc2ccsc2)CC1

>  <new_smiles>  (15) 
OC1CCN(Cc2ccsc2)CC1

>  <alternate_name>  (15) 
Z905434478

>  <site_name>  (15) 
2

>  <pdb_entry>  (15) 
nan

>  <mol>  (15) 
<rdkit.Chem.rdchem.Mol object at 0x164f2bb50>

>  <single_smiles>  (15) 
OC1CCN(Cc2ccsc2)CC1

>  <base_name>  (15) 
D68EV3CPROA-x1285_1B

>  <lig_resn>  (15) 
LIG

>  <lig_resi>  (15) 
301

>  <lig_chain>  (15) 
B

>  <lig_segi>  (15) 


>  <lig_alt>  (15) 


>  <polymer_chain>  (15) 
B

$$$$
x1305_0B§1
     RDKit          3D

 13 14  0  0  0  0  0  0  0  0999 V2000
  -13.2820   14.1010  -38.5020 N   0  0  0  0  0  0  0  0  0  0  0  0
  -14.6500   13.0400  -40.8950 C   0  0  0  0  0  0  0  0  0  0  0  0
  -13.3650   16.1330  -39.3370 O   0  0  0  0  0  0  0  0  0  0  0  0
  -14.7440   14.4950  -40.4990 C   0  0  1  0  0  0  0  0  0  0  0  0
  -12.4120   16.1650  -38.2940 N   0  0  0  0  0  0  0  0  0  0  0  0
  -16.1590   14.8330  -40.1060 C   0  0  0  0  0  0  0  0  0  0  0  0
  -10.4200   13.5300  -37.3880 N   0  0  0  0  0  0  0  0  0  0  0  0
  -13.8120   14.8680  -39.3940 C   0  0  0  0  0  0  0  0  0  0  0  0
  -12.4080   14.9380  -37.8620 C   0  0  0  0  0  0  0  0  0  0  0  0
  -11.4670   14.3920  -36.8230 C   0  0  2  0  0  0  0  0  0  0  0  0
  -10.6800   15.4890  -36.0930 C   0  0  0  0  0  0  0  0  0  0  0  0
   -9.4290   15.6740  -36.9460 C   0  0  0  0  0  0  0  0  0  0  0  0
   -9.1590   14.2890  -37.5220 C   0  0  0  0  0  0  0  0  0  0  0  0
  1  8  2  0
  1  9  1  0
  4  2  1  1
  3  5  1  0
  3  8  1  0
  4  6  1  0
  4  8  1  0
  5  9  2  0
  7 10  1  0
  7 13  1  0
 10  9  1  6
 10 11  1  0
 11 12  1  0
 12 13  1  0
A    1
 N  
A    2
 C  
A    3
 O  
A    4
 C1 
A    5
 N1 
A    6
 C2 
A    7
 N2 
A    8
 C3 
A    9
 C4 
A   10
 C5 
A   11
 C6 
A   12
 C7 
A   13
 C8 
M  END
>  <XChem_code>  (16) 
D68EV3CPROA-x1305

>  <Occupancy>  (16) 
[0.4, 0.4, 0.4, 0.4, 0.4, 0.4, 0.4, 0.4, 0.4, 0.4, 0.4, 0.4, 0.4]

>  <TempFactor>  (16) 
[35.95, 35.27, 35.89, 35.43, 37.1, 34.72, 40.22, 36.12, 37.53, 39.88, 41.17, 41.72, 42.18]

>  <RealCrystalName>  (16) 
D68EV3CPROA-x1305

>  <smiles>  (16) 
CC(C)c1nc(no1)C2CCCN2

>  <new_smiles>  (16) 
CC(C)c1nc(no1)C2CCCN2

>  <alternate_name>  (16) 
Z979742720

>  <site_name>  (16) 
1

>  <pdb_entry>  (16) 
nan

>  <mol>  (16) 
<rdkit.Chem.rdchem.Mol object at 0x164f2bc30>

>  <single_smiles>  (16) 
CC(C)c1nc(C2CCCN2)no1

>  <base_name>  (16) 
D68EV3CPROA-x1305_0B

>  <lig_resn>  (16) 
LIG

>  <lig_resi>  (16) 
201

>  <lig_chain>  (16) 
B

>  <lig_segi>  (16) 


>  <lig_alt>  (16) 


>  <polymer_chain>  (16) 
B

$$$$
x0232_1B§3
     RDKit          3D

 13 14  0  0  0  0  0  0  0  0999 V2000
    2.0030    4.8220  -32.3020 N   0  0  0  0  0  0  0  0  0  0  0  0
    0.0760    5.1100  -34.2320 C   0  0  0  0  0  0  0  0  0  0  0  0
    0.7970    6.9380  -32.5550 O   0  0  0  0  0  0  0  0  0  0  0  0
   -1.1390    5.7700  -34.3670 C   0  0  0  0  0  0  0  0  0  0  0  0
   -2.9540    3.2010  -36.3700 N   0  0  0  0  0  0  0  0  0  0  0  0
    2.4110    6.2190  -34.2630 O   0  0  0  0  0  0  0  0  0  0  0  0
   -0.8250    1.7340  -36.2960 S   0  0  0  0  0  0  0  0  0  0  0  0
   -2.1630    5.1900  -35.0990 C   0  0  0  0  0  0  0  0  0  0  0  0
   -1.9920    3.9270  -35.6610 C   0  0  0  0  0  0  0  0  0  0  0  0
   -2.4670    2.0680  -36.7390 C   0  0  0  0  0  0  0  0  0  0  0  0
   -0.7600    3.2830  -35.5140 C   0  0  0  0  0  0  0  0  0  0  0  0
    0.2850    3.8670  -34.8120 C   0  0  0  0  0  0  0  0  0  0  0  0
    1.3820    5.8830  -33.3260 S   0  0  1  0  0  0  0  0  0  0  0  0
 13  1  1  1
  2  4  2  0
  2 12  1  0
  2 13  1  0
  3 13  2  0
  4  8  1  0
  5  9  1  0
  5 10  2  0
  6 13  2  0
  7 10  1  0
  7 11  1  0
  8  9  2  0
  9 11  1  0
 11 12  2  0
A    1
 N  
A    2
 C  
A    3
 O  
A    4
 C1 
A    5
 N1 
A    6
 O1 
A    7
 S1 
A    8
 C2 
A    9
 C3 
A   10
 C4 
A   11
 C5 
A   12
 C6 
A   13
 S  
M  END
>  <XChem_code>  (17) 
D68EV3CPROA-x0232

>  <Occupancy>  (17) 
[0.64, 0.64, 0.64, 0.64, 0.64, 0.64, 0.64, 0.64, 0.64, 0.64, 0.64, 0.64, 0.64]

>  <TempFactor>  (17) 
[48.88, 49.78, 50.91, 49.09, 53.61, 52.54, 57.54, 51.16, 52.47, 54.77, 51.84, 50.42, 48.86]

>  <RealCrystalName>  (17) 
D68EV3CPROA-x0232

>  <smiles>  (17) 
NS(=O)(=O)c1ccc2ncsc2c1

>  <new_smiles>  (17) 
NS(=O)(=O)c1ccc2ncsc2c1

>  <alternate_name>  (17) 
Z1269184613

>  <site_name>  (17) 
1

>  <pdb_entry>  (17) 
nan

>  <mol>  (17) 
<rdkit.Chem.rdchem.Mol object at 0x162e33a00>

>  <single_smiles>  (17) 
NS(=O)(=O)c1ccc2ncsc2c1

>  <base_name>  (17) 
D68EV3CPROA-x0232_1B

>  <lig_resn>  (17) 
LIG

>  <lig_resi>  (17) 
201

>  <lig_chain>  (17) 
B

>  <lig_segi>  (17) 


>  <lig_alt>  (17) 


>  <polymer_chain>  (17) 
B

$$$$
x0771_0A§1
     RDKit          3D

 12 13  0  0  0  0  0  0  0  0999 V2000
   -5.6790   11.9310  -29.3990 N   0  0  0  0  0  0  0  0  0  0  0  0
   -6.3840   10.8960  -29.8420 C   0  0  0  0  0  0  0  0  0  0  0  0
   -6.9430   10.0880  -29.0820 O   0  0  0  0  0  0  0  0  0  0  0  0
   -6.5020   10.7170  -31.3270 C   0  0  0  0  0  0  0  0  0  0  0  0
   -6.7520   10.0160  -35.4110 N   0  0  0  0  0  0  0  0  0  0  0  0
   -6.5570   11.8360  -32.1720 C   0  0  0  0  0  0  0  0  0  0  0  0
   -6.6430   11.6880  -33.5490 C   0  0  0  0  0  0  0  0  0  0  0  0
   -6.6470   10.3990  -34.0790 C   0  0  0  0  0  0  0  0  0  0  0  0
   -6.3200    8.6230  -35.5550 C   0  0  0  0  0  0  0  0  0  0  0  0
   -6.4470    8.0560  -34.1300 C   0  0  0  0  0  0  0  0  0  0  0  0
   -6.5640    9.2800  -33.2630 C   0  0  0  0  0  0  0  0  0  0  0  0
   -6.5210    9.4400  -31.8850 C   0  0  0  0  0  0  0  0  0  0  0  0
  1  2  1  0
  2  3  2  0
  2  4  1  0
  4  6  2  0
  4 12  1  0
  5  8  1  0
  5  9  1  0
  6  7  1  0
  7  8  2  0
  8 11  1  0
  9 10  1  0
 10 11  1  0
 11 12  2  0
A    1
 N  
A    2
 C  
A    3
 O  
A    4
 C1 
A    5
 N1 
A    6
 C2 
A    7
 C3 
A    8
 C4 
A    9
 C5 
A   10
 C6 
A   11
 C7 
A   12
 C8 
M  END
>  <XChem_code>  (18) 
D68EV3CPROA-x0771

>  <Occupancy>  (18) 
[0.64, 0.64, 0.64, 0.64, 0.64, 0.64, 0.64, 0.64, 0.64, 0.64, 0.64, 0.64]

>  <TempFactor>  (18) 
[49.02, 50.98, 46.17, 54.1, 60.3, 56.33, 58.38, 60.28, 61.4, 60.15, 59.84, 57.61]

>  <RealCrystalName>  (18) 
D68EV3CPROA-x0771

>  <smiles>  (18) 
Cl.NC(=O)c1ccc2NCCc2c1

>  <new_smiles>  (18) 
Cl.NC(=O)c1ccc2NCCc2c1

>  <alternate_name>  (18) 
Z1696091761

>  <site_name>  (18) 
1

>  <pdb_entry>  (18) 
nan

>  <mol>  (18) 
<rdkit.Chem.rdchem.Mol object at 0x162e32a40>

>  <single_smiles>  (18) 
NC(=O)c1ccc2c(c1)CCN2

>  <base_name>  (18) 
D68EV3CPROA-x0771_0A

>  <lig_resn>  (18) 
LIG

>  <lig_resi>  (18) 
301

>  <lig_chain>  (18) 
A

>  <lig_segi>  (18) 


>  <lig_alt>  (18) 


>  <polymer_chain>  (18) 
A

$$$$
x1083_0A§1
     RDKit          3D

 11 11  0  0  0  0  0  0  0  0999 V2000
  -11.0190   15.1770  -37.5360 N   0  0  0  0  0  0  0  0  0  0  0  0
   -9.1670   13.2040  -37.2360 C   0  0  0  0  0  0  0  0  0  0  0  0
  -10.1710   14.5990  -35.2970 O   0  0  0  0  0  0  0  0  0  0  0  0
  -10.7570   15.7650  -38.8640 C   0  0  0  0  0  0  0  0  0  0  0  0
   -8.7000   15.7280  -36.9110 O   0  0  0  0  0  0  0  0  0  0  0  0
  -12.0220   16.4240  -39.4010 C   0  0  0  0  0  0  0  0  0  0  0  0
  -14.3580   16.0450  -39.9370 O   0  0  0  0  0  0  0  0  0  0  0  0
  -13.1620   15.4330  -39.4530 C   0  0  2  0  0  0  0  0  0  0  0  0
  -13.3930   14.8470  -38.0810 C   0  0  0  0  0  0  0  0  0  0  0  0
  -12.1210   14.1950  -37.5610 C   0  0  0  0  0  0  0  0  0  0  0  0
   -9.7170   14.7620  -36.6420 S   0  0  2  0  0  0  0  0  0  0  0  0
  1  4  1  0
  1 10  1  0
  1 11  1  0
 11  2  1  6
  3 11  2  0
  4  6  1  0
  5 11  2  0
  6  8  1  0
  8  7  1  1
  8  9  1  0
  9 10  1  0
A    1
 N  
A    2
 C  
A    3
 O  
A    4
 C1 
A    5
 O1 
A    6
 C2 
A    7
 O2 
A    8
 C3 
A    9
 C4 
A   10
 C5 
A   11
 S  
M  END
>  <XChem_code>  (19) 
D68EV3CPROA-x1083

>  <Occupancy>  (19) 
[0.88, 0.88, 0.88, 0.88, 0.88, 0.88, 0.88, 0.88, 0.88, 0.88, 0.88]

>  <TempFactor>  (19) 
[71.89, 65.62, 69.14, 69.53, 73.16, 68.13, 65.29, 67.13, 67.96, 69.22, 68.91]

>  <RealCrystalName>  (19) 
D68EV3CPROA-x1083

>  <smiles>  (19) 
CS(=O)(=O)N1CCC(O)CC1

>  <new_smiles>  (19) 
CS(=O)(=O)N1CCC(O)CC1

>  <alternate_name>  (19) 
Z425757818

>  <site_name>  (19) 
1

>  <pdb_entry>  (19) 
nan

>  <mol>  (19) 
<rdkit.Chem.rdchem.Mol object at 0x164f2b300>

>  <single_smiles>  (19) 
CS(=O)(=O)N1CCC(O)CC1

>  <base_name>  (19) 
D68EV3CPROA-x1083_0A

>  <lig_resn>  (19) 
LIG

>  <lig_resi>  (19) 
201

>  <lig_chain>  (19) 
A

>  <lig_segi>  (19) 


>  <lig_alt>  (19) 


>  <polymer_chain>  (19) 
A

$$$$
x1454_0B§1
     RDKit          3D

 10 10  0  0  0  0  0  0  0  0999 V2000
  -13.1000   20.6900  -24.7880 N   0  0  0  0  0  0  0  0  0  0  0  0
  -13.5430   22.5390  -25.8060 C   0  0  0  0  0  0  0  0  0  0  0  0
  -13.1570   20.6920  -21.6490 O   0  0  0  0  0  0  0  0  0  0  0  0
  -13.6010   21.9170  -24.5990 C   0  0  0  0  0  0  0  0  0  0  0  0
  -12.7100   20.4830  -26.0700 N   0  0  0  0  0  0  0  0  0  0  0  0
  -12.9470   19.6370  -23.7880 C   0  0  0  0  0  0  0  0  0  0  0  0
  -13.8390   19.8640  -22.5850 C   0  0  0  0  0  0  0  0  0  0  0  0
  -13.6640   20.5860  -20.3230 C   0  0  0  0  0  0  0  0  0  0  0  0
  -12.9860   21.6190  -26.6900 C   0  0  0  0  0  0  0  0  0  0  0  0
  -14.1100   24.2940  -26.1670 Br  0  0  0  0  0  0  0  0  0  0  0  0
  1  4  1  0
  1  5  1  0
  1  6  1  0
  2  4  2  0
  2  9  1  0
  2 10  1  0
  3  7  1  0
  3  8  1  0
  5  9  2  0
  6  7  1  0
A    1
 N  
A    2
 C  
A    3
 O  
A    4
 C1 
A    5
 N1 
A    6
 C2 
A    7
 C3 
A    8
 C4 
A    9
 C5 
A   10
BR  
M  END
>  <XChem_code>  (20) 
D68EV3CPROA-x1454

>  <Occupancy>  (20) 
[0.56, 0.56, 0.56, 0.56, 0.56, 0.56, 0.56, 0.56, 0.56, 0.56]

>  <TempFactor>  (20) 
[64.49, 70.01, 58.28, 68.53, 65.68, 61.84, 60.11, 56.28, 67.78, 78.55]

>  <RealCrystalName>  (20) 
D68EV3CPROA-x1454

>  <smiles>  (20) 
BrC1=CN(CCOC)N=C1

>  <new_smiles>  (20) 
BrC1=CN(CCOC)N=C1

>  <alternate_name>  (20) 
NCL-00024673

>  <site_name>  (20) 
5

>  <pdb_entry>  (20) 
nan

>  <mol>  (20) 
<rdkit.Chem.rdchem.Mol object at 0x165034190>

>  <single_smiles>  (20) 
COCCn1cc(Br)cn1

>  <base_name>  (20) 
D68EV3CPROA-x1454_0B

>  <lig_resn>  (20) 
LIG

>  <lig_resi>  (20) 
201

>  <lig_chain>  (20) 
B

>  <lig_segi>  (20) 


>  <lig_alt>  (20) 


>  <polymer_chain>  (20) 
B

$$$$
x1247_0A§1
     RDKit          3D

 15 16  0  0  0  0  0  0  0  0999 V2000
  -10.5260   15.7430  -40.5350 N   0  0  0  0  0  0  0  0  0  0  0  0
   -6.9170   14.4620  -43.1680 C   0  0  0  0  0  0  0  0  0  0  0  0
  -12.5510   16.8430  -40.6540 O   0  0  0  0  0  0  0  0  0  0  0  0
   -8.2730   15.0850  -43.1210 C   0  0  0  0  0  0  0  0  0  0  0  0
  -11.8400   14.3240  -38.2560 N   0  0  0  0  0  0  0  0  0  0  0  0
   -8.9610   15.4340  -44.2800 C   0  0  0  0  0  0  0  0  0  0  0  0
   -8.7860   15.3070  -41.9030 N   0  0  0  0  0  0  0  0  0  0  0  0
  -10.1980   16.0390  -44.1710 C   0  0  0  0  0  0  0  0  0  0  0  0
  -10.7300   16.2860  -42.9200 C   0  0  0  0  0  0  0  0  0  0  0  0
   -9.9960   15.8680  -41.8180 C   0  0  0  0  0  0  0  0  0  0  0  0
  -11.7080   16.1850  -40.0490 C   0  0  0  0  0  0  0  0  0  0  0  0
  -11.9620   15.7230  -38.6590 C   0  0  1  0  0  0  0  0  0  0  0  0
  -13.0570   16.4330  -37.8990 C   0  0  0  0  0  0  0  0  0  0  0  0
  -13.9300   15.2810  -37.4610 C   0  0  0  0  0  0  0  0  0  0  0  0
  -12.9410   14.1170  -37.2950 C   0  0  0  0  0  0  0  0  0  0  0  0
  1 10  1  0
  1 11  1  0
  2  4  1  0
  3 11  2  0
  4  6  2  0
  4  7  1  0
  5 12  1  0
  5 15  1  0
  6  8  1  0
  7 10  2  0
  8  9  2  0
  9 10  1  0
 12 11  1  6
 12 13  1  0
 13 14  1  0
 14 15  1  0
A    1
 N  
A    2
 C  
A    3
 O  
A    4
 C1 
A    5
 N1 
A    6
 C2 
A    7
 N2 
A    8
 C3 
A    9
 C4 
A   10
 C5 
A   11
 C6 
A   12
 C7 
A   13
 C8 
A   14
 C9 
A   15
 C10
M  END
>  <XChem_code>  (21) 
D68EV3CPROA-x1247

>  <Occupancy>  (21) 
[0.86, 0.86, 0.86, 0.86, 0.86, 0.86, 0.86, 0.86, 0.86, 0.86, 0.86, 0.86, 0.86, 0.86, 0.86]

>  <TempFactor>  (21) 
[17.15, 19.7, 14.92, 19.7, 19.21, 19.17, 18.3, 19.2, 18.34, 17.39, 17.02, 17.11, 16.88, 17.4, 17.37]

>  <RealCrystalName>  (21) 
D68EV3CPROA-x1247

>  <smiles>  (21) 
Cc1cccc(NC(=O)[C@@H]2CCCN2)n1

>  <new_smiles>  (21) 
Cc1cccc(NC(=O)[C@@H]2CCCN2)n1

>  <alternate_name>  (21) 
Z760048004

>  <site_name>  (21) 
1

>  <pdb_entry>  (21) 
nan

>  <mol>  (21) 
<rdkit.Chem.rdchem.Mol object at 0x164f2b8b0>

>  <single_smiles>  (21) 
Cc1cccc(NC(=O)[C@@H]2CCCN2)n1

>  <base_name>  (21) 
D68EV3CPROA-x1247_0A

>  <lig_resn>  (21) 
LIG

>  <lig_resi>  (21) 
201

>  <lig_chain>  (21) 
A

>  <lig_segi>  (21) 


>  <lig_alt>  (21) 


>  <polymer_chain>  (21) 
A

$$$$
x1140_0A§1
     RDKit          3D

 16 17  0  0  0  0  0  0  0  0999 V2000
   -8.9730   12.5540  -34.4110 N   0  0  0  0  0  0  0  0  0  0  0  0
   -9.4550   15.9100  -34.4360 C   0  0  0  0  0  0  0  0  0  0  0  0
   -6.6410   13.2300  -33.9060 O   0  0  0  0  0  0  0  0  0  0  0  0
   -8.1620   15.1860  -34.7160 C   0  0  0  0  0  0  0  0  0  0  0  0
   -8.4880   13.9520  -32.4200 O   0  0  0  0  0  0  0  0  0  0  0  0
   -8.8040   12.1290  -35.8070 C   0  0  0  0  0  0  0  0  0  0  0  0
  -12.3780   15.1360  -38.9480 O   0  0  0  0  0  0  0  0  0  0  0  0
   -9.7270   12.9150  -36.7030 C   0  0  0  0  0  0  0  0  0  0  0  0
  -13.2430   13.9950  -37.1200 O   0  0  0  0  0  0  0  0  0  0  0  0
   -9.2490   13.4970  -37.8770 C   0  0  0  0  0  0  0  0  0  0  0  0
  -10.0660   14.2520  -38.7030 C   0  0  0  0  0  0  0  0  0  0  0  0
  -11.3900   14.3960  -38.3360 C   0  0  0  0  0  0  0  0  0  0  0  0
  -13.5590   14.9200  -38.1680 C   0  0  0  0  0  0  0  0  0  0  0  0
  -11.8830   13.8010  -37.2020 C   0  0  0  0  0  0  0  0  0  0  0  0
  -11.0690   13.0730  -36.3620 C   0  0  0  0  0  0  0  0  0  0  0  0
   -7.9880   13.6990  -33.7420 S   0  0  1  0  0  0  0  0  0  0  0  0
  1  6  1  0
  1 16  1  0
  2  4  1  0
  3 16  2  0
 16  4  1  6
  5 16  2  0
  6  8  1  0
  7 12  1  0
  7 13  1  0
  8 10  2  0
  8 15  1  0
  9 13  1  0
  9 14  1  0
 10 11  1  0
 11 12  2  0
 12 14  1  0
 14 15  2  0
A    1
 N  
A    2
 C  
A    3
 O  
A    4
 C1 
A    5
 O1 
A    6
 C2 
A    7
 O2 
A    8
 C3 
A    9
 O3 
A   10
 C4 
A   11
 C5 
A   12
 C6 
A   13
 C7 
A   14
 C8 
A   15
 C9 
A   16
 S  
M  END
>  <XChem_code>  (22) 
D68EV3CPROA-x1140

>  <Occupancy>  (22) 
[0.9, 0.9, 0.9, 0.9, 0.9, 0.9, 0.9, 0.9, 0.9, 0.9, 0.9, 0.9, 0.9, 0.9, 0.9, 0.9]

>  <TempFactor>  (22) 
[76.56, 80.45, 89.2, 82.82, 75.67, 71.09, 59.04, 66.24, 61.28, 64.65, 62.93, 62.44, 59.61, 62.66, 63.49, 87.18]

>  <RealCrystalName>  (22) 
D68EV3CPROA-x1140

>  <smiles>  (22) 
CCS(=O)(=O)NCc1ccc2OCOc2c1

>  <new_smiles>  (22) 
CCS(=O)(=O)NCc1ccc2OCOc2c1

>  <alternate_name>  (22) 
Z53860899

>  <site_name>  (22) 
1

>  <pdb_entry>  (22) 
nan

>  <mol>  (22) 
<rdkit.Chem.rdchem.Mol object at 0x164f2b680>

>  <single_smiles>  (22) 
CCS(=O)(=O)NCc1ccc2c(c1)OCO2

>  <base_name>  (22) 
D68EV3CPROA-x1140_0A

>  <lig_resn>  (22) 
LIG

>  <lig_resi>  (22) 
201

>  <lig_chain>  (22) 
A

>  <lig_segi>  (22) 


>  <lig_alt>  (22) 


>  <polymer_chain>  (22) 
A

$$$$
x1052_1A§2
     RDKit          3D

 14 14  0  0  0  0  0  0  0  0999 V2000
   -8.9340   16.8010  -32.6350 N   0  0  0  0  0  0  0  0  0  0  0  0
  -10.7170   19.2530  -28.9520 C   0  0  0  0  0  0  0  0  0  0  0  0
   -9.5900   18.8570  -29.7700 O   0  0  0  0  0  0  0  0  0  0  0  0
   -9.8680   18.2240  -30.8990 C   0  0  0  0  0  0  0  0  0  0  0  0
   -8.7920   15.9030  -35.2540 N   0  0  0  0  0  0  0  0  0  0  0  0
  -10.8540   18.3850  -31.5170 O   0  0  0  0  0  0  0  0  0  0  0  0
   -8.7560   17.2950  -31.2850 C   0  0  0  0  0  0  0  0  0  0  0  0
   -9.2950   14.6660  -31.9880 O   0  0  0  0  0  0  0  0  0  0  0  0
   -9.1810   15.5110  -32.8840 C   0  0  0  0  0  0  0  0  0  0  0  0
   -9.0790   15.2200  -36.4650 O   0  0  0  0  0  0  0  0  0  0  0  0
   -9.3040   15.1370  -34.3130 C   0  0  0  0  0  0  0  0  0  0  0  0
   -9.9160   13.9860  -34.8470 C   0  0  0  0  0  0  0  0  0  0  0  0
   -9.7420   14.0850  -36.1740 C   0  0  0  0  0  0  0  0  0  0  0  0
  -10.0760   13.2130  -37.3290 C   0  0  0  0  0  0  0  0  0  0  0  0
  1  7  1  0
  1  9  1  0
  2  3  1  0
  3  4  1  0
  4  6  2  0
  4  7  1  0
  5 10  1  0
  5 11  2  0
  8  9  2  0
  9 11  1  0
 10 13  1  0
 11 12  1  0
 12 13  2  0
 13 14  1  0
A    1
 N  
A    2
 C  
A    3
 O  
A    4
 C1 
A    5
 N1 
A    6
 O1 
A    7
 C2 
A    8
 O2 
A    9
 C3 
A   10
 O3 
A   11
 C4 
A   12
 C5 
A   13
 C6 
A   14
 C7 
M  END
>  <XChem_code>  (23) 
D68EV3CPROA-x1052

>  <Occupancy>  (23) 
[0.7, 0.7, 0.7, 0.7, 0.7, 0.7, 0.7, 0.7, 0.7, 0.7, 0.7, 0.7, 0.7, 0.7]

>  <TempFactor>  (23) 
[35.38, 39.32, 40.62, 32.41, 41.61, 27.04, 35.25, 35.17, 39.06, 43.83, 40.83, 44.55, 43.47, 43.64]

>  <RealCrystalName>  (23) 
D68EV3CPROA-x1052

>  <smiles>  (23) 
COC(=O)CNC(=O)c1cc(C)on1

>  <new_smiles>  (23) 
COC(=O)CNC(=O)c1cc(C)on1

>  <alternate_name>  (23) 
Z375990520

>  <site_name>  (23) 
1

>  <pdb_entry>  (23) 
nan

>  <mol>  (23) 
<rdkit.Chem.rdchem.Mol object at 0x164f2b0d0>

>  <single_smiles>  (23) 
COC(=O)CNC(=O)c1cc(C)on1

>  <base_name>  (23) 
D68EV3CPROA-x1052_1A

>  <lig_resn>  (23) 
LIG

>  <lig_resi>  (23) 
201

>  <lig_chain>  (23) 
A

>  <lig_segi>  (23) 


>  <lig_alt>  (23) 


>  <polymer_chain>  (23) 
A

$$$$
x1020_0A§1
     RDKit          3D

 13 13  0  0  0  0  0  0  0  0999 V2000
   -9.8390   15.6950  -41.5220 N   0  0  0  0  0  0  0  0  0  0  0  0
   -7.4360   15.9950  -43.1230 C   0  0  0  0  0  0  0  0  0  0  0  0
  -10.9260   16.4940  -43.3510 O   0  0  0  0  0  0  0  0  0  0  0  0
   -8.7640   15.4980  -43.6550 C   0  0  0  0  0  0  0  0  0  0  0  0
  -11.8530   13.9490  -42.0680 O   0  0  0  0  0  0  0  0  0  0  0  0
   -9.9410   15.9670  -42.8400 C   0  0  0  0  0  0  0  0  0  0  0  0
  -10.9170   15.6060  -40.6150 C   0  0  0  0  0  0  0  0  0  0  0  0
  -11.0270   16.4280  -39.5000 C   0  0  0  0  0  0  0  0  0  0  0  0
  -12.1190   16.2940  -38.6590 C   0  0  0  0  0  0  0  0  0  0  0  0
  -13.1090   15.3520  -38.9000 C   0  0  0  0  0  0  0  0  0  0  0  0
  -14.3030   15.2280  -37.9860 C   0  0  0  0  0  0  0  0  0  0  0  0
  -12.9860   14.5350  -40.0140 C   0  0  0  0  0  0  0  0  0  0  0  0
  -11.9070   14.6510  -40.8730 C   0  0  0  0  0  0  0  0  0  0  0  0
  1  6  1  0
  1  7  1  0
  2  4  1  0
  3  6  2  0
  4  6  1  0
  5 13  1  0
  7  8  2  0
  7 13  1  0
  8  9  1  0
  9 10  2  0
 10 11  1  0
 10 12  1  0
 12 13  2  0
A    1
 N  
A    2
 C  
A    3
 O  
A    4
 C1 
A    5
 O1 
A    6
 C2 
A    7
 C3 
A    8
 C4 
A    9
 C5 
A   10
 C6 
A   11
 C7 
A   12
 C8 
A   13
 C9 
M  END
>  <XChem_code>  (24) 
D68EV3CPROA-x1020

>  <Occupancy>  (24) 
[0.74, 0.74, 0.74, 0.74, 0.74, 0.74, 0.74, 0.74, 0.74, 0.74, 0.74, 0.74, 0.74]

>  <TempFactor>  (24) 
[38.7, 47.2, 41.94, 46.47, 36.63, 43.1, 33.8, 32.03, 32.2, 32.53, 29.65, 32.48, 33.92]

>  <RealCrystalName>  (24) 
D68EV3CPROA-x1020

>  <smiles>  (24) 
CCC(=O)Nc1ccc(C)cc1O

>  <new_smiles>  (24) 
CCC(=O)Nc1ccc(C)cc1O

>  <alternate_name>  (24) 
Z33452106

>  <site_name>  (24) 
1

>  <pdb_entry>  (24) 
nan

>  <mol>  (24) 
<rdkit.Chem.rdchem.Mol object at 0x164f2aff0>

>  <single_smiles>  (24) 
CCC(=O)Nc1ccc(C)cc1O

>  <base_name>  (24) 
D68EV3CPROA-x1020_0A

>  <lig_resn>  (24) 
LIG

>  <lig_resi>  (24) 
201

>  <lig_chain>  (24) 
A

>  <lig_segi>  (24) 


>  <lig_alt>  (24) 


>  <polymer_chain>  (24) 
A

$$$$
ZINC000000080837
     RDKit          3D

 10 11  0  0  0  0  0  0  0  0999 V2000
   -6.8740    9.8340  -32.5350 O   0  0  0  0  0  0  0  0  0  0  0  0
   -6.6660   10.2800  -31.2910 C   0  0  0  0  0  0  0  0  0  0  0  0
   -7.1990    9.8070  -30.1740 N   0  0  0  0  0  0  0  0  0  0  0  0
   -6.7030   10.5680  -29.1130 S   0  0  0  0  0  0  0  0  0  0  0  0
   -5.8820   11.4760  -29.6270 C   0  0  0  0  0  0  0  0  0  0  0  0
   -5.0830   12.4690  -29.0140 N   0  0  0  0  0  0  0  0  0  0  0  0
   -4.2680   13.2420  -29.7830 C   0  0  0  0  0  0  0  0  0  0  0  0
   -4.2110   13.0710  -31.1840 C   0  0  0  0  0  0  0  0  0  0  0  0
   -4.9820   12.1370  -31.7840 C   0  0  0  0  0  0  0  0  0  0  0  0
   -5.8120   11.3450  -31.0120 C   0  0  0  0  0  0  0  0  0  0  0  0
  1  2  1  0
  2  3  2  0
  3  4  1  0
  4  5  1  0
  5  6  2  0
  6  7  1  0
  7  8  2  0
  8  9  1  0
  9 10  2  0
 10  2  1  0
 10  5  1  0
M  END
>  <inspiration>  (25) 
x1594

$$$$
ZINC000000168472
     RDKit          3D

 10 11  0  0  0  0  0  0  0  0999 V2000
   -6.8740    9.8340  -32.5350 N   0  0  0  0  0  0  0  0  0  0  0  0
   -6.6660   10.2800  -31.2910 C   0  0  0  0  0  0  0  0  0  0  0  0
   -7.1990    9.8070  -30.1740 N   0  0  0  0  0  0  0  0  0  0  0  0
   -6.7030   10.5680  -29.1130 O   0  0  0  0  0  0  0  0  0  0  0  0
   -5.8820   11.4760  -29.6270 C   0  0  0  0  0  0  0  0  0  0  0  0
   -5.0830   12.4690  -29.0140 N   0  0  0  0  0  0  0  0  0  0  0  0
   -4.2680   13.2420  -29.7830 C   0  0  0  0  0  0  0  0  0  0  0  0
   -4.2110   13.0710  -31.1840 C   0  0  0  0  0  0  0  0  0  0  0  0
   -4.9820   12.1370  -31.7840 C   0  0  0  0  0  0  0  0  0  0  0  0
   -5.8120   11.3450  -31.0120 C   0  0  0  0  0  0  0  0  0  0  0  0
  1  2  1  0
  2  3  2  0
  3  4  1  0
  4  5  1  0
  5  6  2  0
  6  7  1  0
  7  8  2  0
  8  9  1  0
  9 10  2  0
 10  2  1  0
 10  5  1  0
M  END
>  <inspiration>  (26) 
x1594

$$$$
ZINC000012397068
     RDKit          3D

 11 12  0  0  0  0  0  0  0  0999 V2000
   -6.8740    9.8340  -32.5350 C   0  0  0  0  0  0  0  0  0  0  0  0
   -6.6660   10.2800  -31.2910 C   0  0  0  0  0  0  0  0  0  0  0  0
   -7.1990    9.8070  -30.1740 N   0  0  0  0  0  0  0  0  0  0  0  0
   -6.7030   10.5680  -29.1130 O   0  0  0  0  0  0  0  0  0  0  0  0
   -5.8820   11.4760  -29.6270 C   0  0  0  0  0  0  0  0  0  0  0  0
   -5.0830   12.4690  -29.0140 N   0  0  0  0  0  0  0  0  0  0  0  0
   -4.2680   13.2420  -29.7830 C   0  0  0  0  0  0  0  0  0  0  0  0
   -4.2110   13.0710  -31.1840 C   0  0  0  0  0  0  0  0  0  0  0  0
   -3.3348   13.8942  -31.9364 N   0  0  0  0  0  0  0  0  0  0  0  0
   -4.9820   12.1370  -31.7840 C   0  0  0  0  0  0  0  0  0  0  0  0
   -5.8120   11.3450  -31.0120 C   0  0  0  0  0  0  0  0  0  0  0  0
  1  2  1  0
  2  3  2  0
  3  4  1  0
  4  5  1  0
  5  6  2  0
  6  7  1  0
  7  8  2  0
  8  9  1  0
  8 10  1  0
 10 11  2  0
 11  2  1  0
 11  5  1  0
M  END
>  <inspiration>  (27) 
x1594

$$$$
ZINC000015042097
     RDKit          3D

 10 11  0  0  0  0  0  0  0  0999 V2000
   -6.8740    9.8340  -32.5350 C   0  0  0  0  0  0  0  0  0  0  0  0
   -6.6660   10.2800  -31.2910 C   0  0  0  0  0  0  0  0  0  0  0  0
   -7.1990    9.8070  -30.1740 N   0  0  0  0  0  0  0  0  0  0  0  0
   -6.7030   10.5680  -29.1130 S   0  0  0  0  0  0  0  0  0  0  0  0
   -5.8820   11.4760  -29.6270 C   0  0  0  0  0  0  0  0  0  0  0  0
   -5.0830   12.4690  -29.0140 N   0  0  0  0  0  0  0  0  0  0  0  0
   -4.2680   13.2420  -29.7830 C   0  0  0  0  0  0  0  0  0  0  0  0
   -4.2110   13.0710  -31.1840 C   0  0  0  0  0  0  0  0  0  0  0  0
   -4.9820   12.1370  -31.7840 C   0  0  0  0  0  0  0  0  0  0  0  0
   -5.8120   11.3450  -31.0120 C   0  0  0  0  0  0  0  0  0  0  0  0
  1  2  1  0
  2  3  2  0
  3  4  1  0
  4  5  1  0
  5  6  2  0
  6  7  1  0
  7  8  2  0
  8  9  1  0
  9 10  2  0
 10  2  1  0
 10  5  1  0
M  END
>  <inspiration>  (28) 
x1594

$$$$
ZINC000017061891
     RDKit          3D

 11 12  0  0  0  0  0  0  0  0999 V2000
   -6.8740    9.8340  -32.5350 C   0  0  0  0  0  0  0  0  0  0  0  0
   -6.6660   10.2800  -31.2910 C   0  0  0  0  0  0  0  0  0  0  0  0
   -7.1990    9.8070  -30.1740 N   0  0  0  0  0  0  0  0  0  0  0  0
   -6.7030   10.5680  -29.1130 O   0  0  0  0  0  0  0  0  0  0  0  0
   -5.8820   11.4760  -29.6270 C   0  0  0  0  0  0  0  0  0  0  0  0
   -5.0830   12.4690  -29.0140 N   0  0  0  0  0  0  0  0  0  0  0  0
   -4.2680   13.2420  -29.7830 C   0  0  0  0  0  0  0  0  0  0  0  0
   -4.2110   13.0710  -31.1840 N   0  0  0  0  0  0  0  0  0  0  0  0
   -4.9820   12.1370  -31.7840 C   0  0  0  0  0  0  0  0  0  0  0  0
   -4.9475   11.9822  -33.0632 O   0  0  0  0  0  0  0  0  0  0  0  0
   -5.8120   11.3450  -31.0120 C   0  0  0  0  0  0  0  0  0  0  0  0
  1  2  1  0
  2  3  2  0
  3  4  1  0
  4  5  1  0
  5  6  1  0
  6  7  2  0
  7  8  1  0
  8  9  1  0
  9 10  2  0
  9 11  1  0
 11  2  1  0
 11  5  2  0
M  END
>  <inspiration>  (29) 
x1594

$$$$
ZINC000001669068
     RDKit          3D

 10 11  0  0  0  0  0  0  0  0999 V2000
   -6.8740    9.8340  -32.5350 N   0  0  0  0  0  0  0  0  0  0  0  0
   -6.6660   10.2800  -31.2910 C   0  0  0  0  0  0  0  0  0  0  0  0
   -7.1990    9.8070  -30.1740 S   0  0  0  0  0  0  0  0  0  0  0  0
   -6.7030   10.5680  -29.1130 N   0  0  0  0  0  0  0  0  0  0  0  0
   -5.8820   11.4760  -29.6270 C   0  0  0  0  0  0  0  0  0  0  0  0
   -5.0830   12.4690  -29.0140 N   0  0  0  0  0  0  0  0  0  0  0  0
   -4.2680   13.2420  -29.7830 C   0  0  0  0  0  0  0  0  0  0  0  0
   -4.2110   13.0710  -31.1840 C   0  0  0  0  0  0  0  0  0  0  0  0
   -4.9820   12.1370  -31.7840 C   0  0  0  0  0  0  0  0  0  0  0  0
   -5.8120   11.3450  -31.0120 C   0  0  0  0  0  0  0  0  0  0  0  0
  1  2  1  0
  2  3  1  0
  3  4  1  0
  4  5  2  0
  5  6  1  0
  6  7  2  0
  7  8  1  0
  8  9  2  0
  9 10  1  0
 10  2  2  0
 10  5  1  0
M  END
>  <inspiration>  (30) 
x1594

$$$$
ZINC000001674121
     RDKit          3D

 11 12  0  0  0  0  0  0  0  0999 V2000
   -6.8740    9.8340  -32.5350 C   0  0  0  0  0  0  0  0  0  0  0  0
   -6.6660   10.2800  -31.2910 C   0  0  0  0  0  0  0  0  0  0  0  0
   -7.1990    9.8070  -30.1740 N   0  0  0  0  0  0  0  0  0  0  0  0
   -6.7030   10.5680  -29.1130 O   0  0  0  0  0  0  0  0  0  0  0  0
   -5.8820   11.4760  -29.6270 C   0  0  0  0  0  0  0  0  0  0  0  0
   -5.0830   12.4690  -29.0140 N   0  0  0  0  0  0  0  0  0  0  0  0
   -4.2680   13.2420  -29.7830 C   0  0  0  0  0  0  0  0  0  0  0  0
   -4.2110   13.0710  -31.1840 N   0  0  0  0  0  0  0  0  0  0  0  0
   -4.9820   12.1370  -31.7840 C   0  0  0  0  0  0  0  0  0  0  0  0
   -4.9285   11.9836  -33.1922 N   0  0  0  0  0  0  0  0  0  0  0  0
   -5.8120   11.3450  -31.0120 C   0  0  0  0  0  0  0  0  0  0  0  0
  1  2  1  0
  2  3  2  0
  3  4  1  0
  4  5  1  0
  5  6  2  0
  6  7  1  0
  7  8  2  0
  8  9  1  0
  9 10  1  0
  9 11  2  0
 11  2  1  0
 11  5  1  0
M  END
>  <inspiration>  (31) 
x1594

$$$$
ZINC000019779146
     RDKit          3D

 11 12  0  0  0  0  0  0  0  0999 V2000
   -3.4435   14.2612  -29.1416 C   0  0  0  0  0  0  0  0  0  0  0  0
   -4.2680   13.2420  -29.7830 C   0  0  0  0  0  0  0  0  0  0  0  0
   -4.2110   13.0710  -31.1840 C   0  0  0  0  0  0  0  0  0  0  0  0
   -4.9820   12.1370  -31.7840 C   0  0  0  0  0  0  0  0  0  0  0  0
   -5.8120   11.3450  -31.0120 C   0  0  0  0  0  0  0  0  0  0  0  0
   -6.6660   10.2800  -31.2910 C   0  0  0  0  0  0  0  0  0  0  0  0
   -6.8740    9.8340  -32.5350 N   0  0  0  0  0  0  0  0  0  0  0  0
   -7.1990    9.8070  -30.1740 N   0  0  0  0  0  0  0  0  0  0  0  0
   -6.7030   10.5680  -29.1130 O   0  0  0  0  0  0  0  0  0  0  0  0
   -5.8820   11.4760  -29.6270 C   0  0  0  0  0  0  0  0  0  0  0  0
   -5.0830   12.4690  -29.0140 N   0  0  0  0  0  0  0  0  0  0  0  0
  1  2  1  0
  2  3  2  0
  3  4  1  0
  4  5  2  0
  5  6  1  0
  6  7  1  0
  6  8  2  0
  8  9  1  0
  9 10  1  0
 10 11  2  0
 11  2  1  0
 10  5  1  0
M  END
>  <inspiration>  (32) 
x1594

$$$$
ZINC000224485041
     RDKit          3D

 10 11  0  0  0  0  0  0  0  0999 V2000
   -6.8740    9.8340  -32.5350 N   0  0  0  0  0  0  0  0  0  0  0  0
   -6.6660   10.2800  -31.2910 C   0  0  0  0  0  0  0  0  0  0  0  0
   -7.1990    9.8070  -30.1740 S   0  0  0  0  0  0  0  0  0  0  0  0
   -6.7030   10.5680  -29.1130 N   0  0  0  0  0  0  0  0  0  0  0  0
   -5.8820   11.4760  -29.6270 C   0  0  0  0  0  0  0  0  0  0  0  0
   -5.0830   12.4690  -29.0140 N   0  0  0  0  0  0  0  0  0  0  0  0
   -4.2680   13.2420  -29.7830 C   0  0  0  0  0  0  0  0  0  0  0  0
   -4.2110   13.0710  -31.1840 C   0  0  0  0  0  0  0  0  0  0  0  0
   -4.9820   12.1370  -31.7840 N   0  0  0  0  0  0  0  0  0  0  0  0
   -5.8120   11.3450  -31.0120 C   0  0  0  0  0  0  0  0  0  0  0  0
  1  2  1  0
  2  3  1  0
  3  4  1  0
  4  5  2  0
  5  6  1  0
  6  7  2  0
  7  8  1  0
  8  9  2  0
  9 10  1  0
 10  2  2  0
 10  5  1  0
M  END
>  <inspiration>  (33) 
x1594

$$$$
ZINC000238711097
     RDKit          3D

 11 12  0  0  0  0  0  0  0  0999 V2000
   -6.8740    9.8340  -32.5350 N   0  0  0  0  0  0  0  0  0  0  0  0
   -6.6660   10.2800  -31.2910 C   0  0  0  0  0  0  0  0  0  0  0  0
   -7.1990    9.8070  -30.1740 S   0  0  0  0  0  0  0  0  0  0  0  0
   -6.7030   10.5680  -29.1130 N   0  0  0  0  0  0  0  0  0  0  0  0
   -5.8820   11.4760  -29.6270 C   0  0  0  0  0  0  0  0  0  0  0  0
   -5.0830   12.4690  -29.0140 N   0  0  0  0  0  0  0  0  0  0  0  0
   -4.2680   13.2420  -29.7830 C   0  0  0  0  0  0  0  0  0  0  0  0
   -4.2110   13.0710  -31.1840 C   0  0  0  0  0  0  0  0  0  0  0  0
   -3.0536   14.1564  -32.1896 Br  0  0  0  0  0  0  0  0  0  0  0  0
   -4.9820   12.1370  -31.7840 C   0  0  0  0  0  0  0  0  0  0  0  0
   -5.8120   11.3450  -31.0120 C   0  0  0  0  0  0  0  0  0  0  0  0
  1  2  1  0
  2  3  1  0
  3  4  1  0
  4  5  2  0
  5  6  1  0
  6  7  2  0
  7  8  1  0
  8  9  1  0
  8 10  2  0
 10 11  1  0
 11  2  2  0
 11  5  1  0
M  END
>  <inspiration>  (34) 
x1594

$$$$
ZINC000025924635
     RDKit          3D

 10 11  0  0  0  0  0  0  0  0999 V2000
   -6.8740    9.8340  -32.5350 N   0  0  0  0  0  0  0  0  0  0  0  0
   -6.6660   10.2800  -31.2910 C   0  0  0  0  0  0  0  0  0  0  0  0
   -7.1990    9.8070  -30.1740 N   0  0  0  0  0  0  0  0  0  0  0  0
   -6.7030   10.5680  -29.1130 O   0  0  0  0  0  0  0  0  0  0  0  0
   -5.8820   11.4760  -29.6270 C   0  0  0  0  0  0  0  0  0  0  0  0
   -5.0830   12.4690  -29.0140 N   0  0  0  0  0  0  0  0  0  0  0  0
   -4.2680   13.2420  -29.7830 C   0  0  0  0  0  0  0  0  0  0  0  0
   -4.2110   13.0710  -31.1840 C   0  0  0  0  0  0  0  0  0  0  0  0
   -4.9820   12.1370  -31.7840 N   0  0  0  0  0  0  0  0  0  0  0  0
   -5.8120   11.3450  -31.0120 C   0  0  0  0  0  0  0  0  0  0  0  0
  1  2  1  0
  2  3  2  0
  3  4  1  0
  4  5  1  0
  5  6  2  0
  6  7  1  0
  7  8  2  0
  8  9  1  0
  9 10  2  0
 10  2  1  0
 10  5  1  0
M  END
>  <inspiration>  (35) 
x1594

$$$$
ZINC000026033116
     RDKit          3D

 10 11  0  0  0  0  0  0  0  0999 V2000
   -6.8740    9.8340  -32.5350 N   0  0  0  0  0  0  0  0  0  0  0  0
   -6.6660   10.2800  -31.2910 C   0  0  0  0  0  0  0  0  0  0  0  0
   -7.1990    9.8070  -30.1740 N   0  0  0  0  0  0  0  0  0  0  0  0
   -6.7030   10.5680  -29.1130 N   0  0  0  0  0  0  0  0  0  0  0  0
   -5.8820   11.4760  -29.6270 C   0  0  0  0  0  0  0  0  0  0  0  0
   -5.0830   12.4690  -29.0140 N   0  0  0  0  0  0  0  0  0  0  0  0
   -4.2680   13.2420  -29.7830 C   0  0  0  0  0  0  0  0  0  0  0  0
   -4.2110   13.0710  -31.1840 C   0  0  0  0  0  0  0  0  0  0  0  0
   -4.9820   12.1370  -31.7840 C   0  0  0  0  0  0  0  0  0  0  0  0
   -5.8120   11.3450  -31.0120 N   0  0  0  0  0  0  0  0  0  0  0  0
  1  2  1  0
  2  3  2  0
  3  4  1  0
  4  5  2  0
  5  6  1  0
  6  7  2  0
  7  8  1  0
  8  9  2  0
  9 10  1  0
 10  2  1  0
 10  5  1  0
M  END
>  <inspiration>  (36) 
x1594

$$$$
ZINC000002289036
     RDKit          3D

 10 11  0  0  0  0  0  0  0  0999 V2000
   -6.8740    9.8340  -32.5350 N   0  0  0  0  0  0  0  0  0  0  0  0
   -6.6660   10.2800  -31.2910 C   0  0  0  0  0  0  0  0  0  0  0  0
   -7.1990    9.8070  -30.1740 N   0  0  0  0  0  0  0  0  0  0  0  0
   -6.7030   10.5680  -29.1130 N   0  0  0  0  0  0  0  0  0  0  0  0
   -5.8820   11.4760  -29.6270 C   0  0  0  0  0  0  0  0  0  0  0  0
   -5.0830   12.4690  -29.0140 N   0  0  0  0  0  0  0  0  0  0  0  0
   -4.2680   13.2420  -29.7830 C   0  0  0  0  0  0  0  0  0  0  0  0
   -4.2110   13.0710  -31.1840 C   0  0  0  0  0  0  0  0  0  0  0  0
   -4.9820   12.1370  -31.7840 N   0  0  0  0  0  0  0  0  0  0  0  0
   -5.8120   11.3450  -31.0120 N   0  0  0  0  0  0  0  0  0  0  0  0
  1  2  1  0
  2  3  2  0
  3  4  1  0
  4  5  2  0
  5  6  1  0
  6  7  2  0
  7  8  1  0
  8  9  2  0
  9 10  1  0
 10  2  1  0
 10  5  1  0
M  END
>  <inspiration>  (37) 
x1594

$$$$
ZINC000003852685
     RDKit          3D

 10 11  0  0  0  0  0  0  0  0999 V2000
   -6.8740    9.8340  -32.5350 Br  0  0  0  0  0  0  0  0  0  0  0  0
   -6.6660   10.2800  -31.2910 C   0  0  0  0  0  0  0  0  0  0  0  0
   -7.1990    9.8070  -30.1740 N   0  0  0  0  0  0  0  0  0  0  0  0
   -6.7030   10.5680  -29.1130 O   0  0  0  0  0  0  0  0  0  0  0  0
   -5.8820   11.4760  -29.6270 C   0  0  0  0  0  0  0  0  0  0  0  0
   -5.0830   12.4690  -29.0140 N   0  0  0  0  0  0  0  0  0  0  0  0
   -4.2680   13.2420  -29.7830 C   0  0  0  0  0  0  0  0  0  0  0  0
   -4.2110   13.0710  -31.1840 C   0  0  0  0  0  0  0  0  0  0  0  0
   -4.9820   12.1370  -31.7840 C   0  0  0  0  0  0  0  0  0  0  0  0
   -5.8120   11.3450  -31.0120 C   0  0  0  0  0  0  0  0  0  0  0  0
  1  2  1  0
  2  3  2  0
  3  4  1  0
  4  5  1  0
  5  6  2  0
  6  7  1  0
  7  8  2  0
  8  9  1  0
  9 10  2  0
 10  2  1  0
 10  5  1  0
M  END
>  <inspiration>  (38) 
x1594

$$$$
ZINC000039191805
     RDKit          3D

 11 12  0  0  0  0  0  0  0  0999 V2000
   -6.8740    9.8340  -32.5350 C   0  0  0  0  0  0  0  0  0  0  0  0
   -6.6660   10.2800  -31.2910 C   0  0  0  0  0  0  0  0  0  0  0  0
   -7.1990    9.8070  -30.1740 N   0  0  0  0  0  0  0  0  0  0  0  0
   -6.7030   10.5680  -29.1130 S   0  0  0  0  0  0  0  0  0  0  0  0
   -5.8820   11.4760  -29.6270 C   0  0  0  0  0  0  0  0  0  0  0  0
   -5.0830   12.4690  -29.0140 N   0  0  0  0  0  0  0  0  0  0  0  0
   -4.2680   13.2420  -29.7830 C   0  0  0  0  0  0  0  0  0  0  0  0
   -4.2110   13.0710  -31.1840 N   0  0  0  0  0  0  0  0  0  0  0  0
   -4.9820   12.1370  -31.7840 C   0  0  0  0  0  0  0  0  0  0  0  0
   -4.9396   11.9909  -33.0627 O   0  0  0  0  0  0  0  0  0  0  0  0
   -5.8120   11.3450  -31.0120 C   0  0  0  0  0  0  0  0  0  0  0  0
  1  2  1  0
  2  3  2  0
  3  4  1  0
  4  5  1  0
  5  6  1  0
  6  7  2  0
  7  8  1  0
  8  9  1  0
  9 10  2  0
  9 11  1  0
 11  2  1  0
 11  5  2  0
M  END
>  <inspiration>  (39) 
x1594

$$$$
ZINC000045921422
     RDKit          3D

 11 12  0  0  0  0  0  0  0  0999 V2000
   -6.8740    9.8340  -32.5350 C   0  0  0  0  0  0  0  0  0  0  0  0
   -6.6660   10.2800  -31.2910 C   0  0  0  0  0  0  0  0  0  0  0  0
   -7.1990    9.8070  -30.1740 N   0  0  0  0  0  0  0  0  0  0  0  0
   -6.7030   10.5680  -29.1130 O   0  0  0  0  0  0  0  0  0  0  0  0
   -5.8820   11.4760  -29.6270 C   0  0  0  0  0  0  0  0  0  0  0  0
   -5.0830   12.4690  -29.0140 N   0  0  0  0  0  0  0  0  0  0  0  0
   -4.2680   13.2420  -29.7830 C   0  0  0  0  0  0  0  0  0  0  0  0
   -4.2110   13.0710  -31.1840 N   0  0  0  0  0  0  0  0  0  0  0  0
   -4.9820   12.1370  -31.7840 C   0  0  0  0  0  0  0  0  0  0  0  0
   -4.9210   11.9536  -33.4454 Cl  0  0  0  0  0  0  0  0  0  0  0  0
   -5.8120   11.3450  -31.0120 C   0  0  0  0  0  0  0  0  0  0  0  0
  1  2  1  0
  2  3  2  0
  3  4  1  0
  4  5  1  0
  5  6  2  0
  6  7  1  0
  7  8  2  0
  8  9  1  0
  9 10  1  0
  9 11  2  0
 11  2  1  0
 11  5  1  0
M  END
>  <inspiration>  (40) 
x1594

$$$$
ZINC000051951618
     RDKit          3D

 11 12  0  0  0  0  0  0  0  0999 V2000
   -8.2388   10.9350  -33.4464 Br  0  0  0  0  0  0  0  0  0  0  0  0
   -6.8740    9.8340  -32.5350 C   0  0  0  0  0  0  0  0  0  0  0  0
   -6.6660   10.2800  -31.2910 C   0  0  0  0  0  0  0  0  0  0  0  0
   -7.1990    9.8070  -30.1740 N   0  0  0  0  0  0  0  0  0  0  0  0
   -6.7030   10.5680  -29.1130 O   0  0  0  0  0  0  0  0  0  0  0  0
   -5.8820   11.4760  -29.6270 C   0  0  0  0  0  0  0  0  0  0  0  0
   -5.0830   12.4690  -29.0140 N   0  0  0  0  0  0  0  0  0  0  0  0
   -4.2680   13.2420  -29.7830 C   0  0  0  0  0  0  0  0  0  0  0  0
   -4.2110   13.0710  -31.1840 C   0  0  0  0  0  0  0  0  0  0  0  0
   -4.9820   12.1370  -31.7840 C   0  0  0  0  0  0  0  0  0  0  0  0
   -5.8120   11.3450  -31.0120 C   0  0  0  0  0  0  0  0  0  0  0  0
  1  2  1  0
  2  3  1  0
  3  4  2  0
  4  5  1  0
  5  6  1  0
  6  7  2  0
  7  8  1  0
  8  9  2  0
  9 10  1  0
 10 11  2  0
 11  3  1  0
 11  6  1  0
M  END
>  <inspiration>  (41) 
x1594

$$$$
ZINC000005933792
     RDKit          3D

 10 11  0  0  0  0  0  0  0  0999 V2000
   -6.8740    9.8340  -32.5350 S   0  0  0  0  0  0  0  0  0  0  0  0
   -6.6660   10.2800  -31.2910 C   0  0  0  0  0  0  0  0  0  0  0  0
   -7.1990    9.8070  -30.1740 S   0  0  0  0  0  0  0  0  0  0  0  0
   -6.7030   10.5680  -29.1130 S   0  0  0  0  0  0  0  0  0  0  0  0
   -5.8820   11.4760  -29.6270 C   0  0  0  0  0  0  0  0  0  0  0  0
   -5.0830   12.4690  -29.0140 N   0  0  0  0  0  0  0  0  0  0  0  0
   -4.2680   13.2420  -29.7830 C   0  0  0  0  0  0  0  0  0  0  0  0
   -4.2110   13.0710  -31.1840 C   0  0  0  0  0  0  0  0  0  0  0  0
   -4.9820   12.1370  -31.7840 C   0  0  0  0  0  0  0  0  0  0  0  0
   -5.8120   11.3450  -31.0120 C   0  0  0  0  0  0  0  0  0  0  0  0
  1  2  2  0
  2  3  1  0
  3  4  1  0
  4  5  1  0
  5  6  2  0
  6  7  1  0
  7  8  2  0
  8  9  1  0
  9 10  2  0
 10  2  1  0
 10  5  1  0
M  END
>  <inspiration>  (42) 
x1594

$$$$
ZINC000066323473
     RDKit          3D

 11 12  0  0  0  0  0  0  0  0999 V2000
   -3.4499   14.2571  -29.1234 C   0  0  0  0  0  0  0  0  0  0  0  0
   -4.2680   13.2420  -29.7830 C   0  0  0  0  0  0  0  0  0  0  0  0
   -4.2110   13.0710  -31.1840 C   0  0  0  0  0  0  0  0  0  0  0  0
   -4.9820   12.1370  -31.7840 C   0  0  0  0  0  0  0  0  0  0  0  0
   -5.8120   11.3450  -31.0120 N   0  0  0  0  0  0  0  0  0  0  0  0
   -6.6660   10.2800  -31.2910 C   0  0  0  0  0  0  0  0  0  0  0  0
   -6.8740    9.8340  -32.5350 N   0  0  0  0  0  0  0  0  0  0  0  0
   -7.1990    9.8070  -30.1740 N   0  0  0  0  0  0  0  0  0  0  0  0
   -6.7030   10.5680  -29.1130 N   0  0  0  0  0  0  0  0  0  0  0  0
   -5.8820   11.4760  -29.6270 C   0  0  0  0  0  0  0  0  0  0  0  0
   -5.0830   12.4690  -29.0140 N   0  0  0  0  0  0  0  0  0  0  0  0
  1  2  1  0
  2  3  1  0
  3  4  2  0
  4  5  1  0
  5  6  1  0
  6  7  1  0
  6  8  2  0
  8  9  1  0
  9 10  2  0
 10 11  1  0
 11  2  2  0
 10  5  1  0
M  END
>  <inspiration>  (43) 
x1594

$$$$
ZINC000066347860
     RDKit          3D

 10 11  0  0  0  0  0  0  0  0999 V2000
   -6.8740    9.8340  -32.5350 Br  0  0  0  0  0  0  0  0  0  0  0  0
   -6.6660   10.2800  -31.2910 C   0  0  0  0  0  0  0  0  0  0  0  0
   -7.1990    9.8070  -30.1740 N   0  0  0  0  0  0  0  0  0  0  0  0
   -6.7030   10.5680  -29.1130 N   0  0  0  0  0  0  0  0  0  0  0  0
   -5.8820   11.4760  -29.6270 C   0  0  0  0  0  0  0  0  0  0  0  0
   -5.0830   12.4690  -29.0140 N   0  0  0  0  0  0  0  0  0  0  0  0
   -4.2680   13.2420  -29.7830 C   0  0  0  0  0  0  0  0  0  0  0  0
   -4.2110   13.0710  -31.1840 C   0  0  0  0  0  0  0  0  0  0  0  0
   -4.9820   12.1370  -31.7840 C   0  0  0  0  0  0  0  0  0  0  0  0
   -5.8120   11.3450  -31.0120 N   0  0  0  0  0  0  0  0  0  0  0  0
  1  2  1  0
  2  3  2  0
  3  4  1  0
  4  5  2  0
  5  6  1  0
  6  7  2  0
  7  8  1  0
  8  9  2  0
  9 10  1  0
 10  2  1  0
 10  5  1  0
M  END
>  <inspiration>  (44) 
x1594

$$$$
ZINC000072187487
     RDKit          3D

 10 11  0  0  0  0  0  0  0  0999 V2000
   -6.8740    9.8340  -32.5350 Br  0  0  0  0  0  0  0  0  0  0  0  0
   -6.6660   10.2800  -31.2910 C   0  0  0  0  0  0  0  0  0  0  0  0
   -7.1990    9.8070  -30.1740 N   0  0  0  0  0  0  0  0  0  0  0  0
   -6.7030   10.5680  -29.1130 S   0  0  0  0  0  0  0  0  0  0  0  0
   -5.8820   11.4760  -29.6270 C   0  0  0  0  0  0  0  0  0  0  0  0
   -5.0830   12.4690  -29.0140 N   0  0  0  0  0  0  0  0  0  0  0  0
   -4.2680   13.2420  -29.7830 C   0  0  0  0  0  0  0  0  0  0  0  0
   -4.2110   13.0710  -31.1840 C   0  0  0  0  0  0  0  0  0  0  0  0
   -4.9820   12.1370  -31.7840 N   0  0  0  0  0  0  0  0  0  0  0  0
   -5.8120   11.3450  -31.0120 C   0  0  0  0  0  0  0  0  0  0  0  0
  1  2  1  0
  2  3  2  0
  3  4  1  0
  4  5  1  0
  5  6  2  0
  6  7  1  0
  7  8  2  0
  8  9  1  0
  9 10  2  0
 10  2  1  0
 10  5  1  0
M  END
>  <inspiration>  (45) 
x1594

$$$$
ZINC000072482101
     RDKit          3D

 10 11  0  0  0  0  0  0  0  0999 V2000
   -6.8740    9.8340  -32.5350 N   0  0  0  0  0  0  0  0  0  0  0  0
   -6.6660   10.2800  -31.2910 C   0  0  0  0  0  0  0  0  0  0  0  0
   -7.1990    9.8070  -30.1740 N   0  0  0  0  0  0  0  0  0  0  0  0
   -6.7030   10.5680  -29.1130 S   0  0  0  0  0  0  0  0  0  0  0  0
   -5.8820   11.4760  -29.6270 C   0  0  0  0  0  0  0  0  0  0  0  0
   -5.0830   12.4690  -29.0140 N   0  0  0  0  0  0  0  0  0  0  0  0
   -4.2680   13.2420  -29.7830 C   0  0  0  0  0  0  0  0  0  0  0  0
   -4.2110   13.0710  -31.1840 C   0  0  0  0  0  0  0  0  0  0  0  0
   -4.9820   12.1370  -31.7840 C   0  0  0  0  0  0  0  0  0  0  0  0
   -5.8120   11.3450  -31.0120 C   0  0  0  0  0  0  0  0  0  0  0  0
  1  2  1  0
  2  3  2  0
  3  4  1  0
  4  5  1  0
  5  6  2  0
  6  7  1  0
  7  8  2  0
  8  9  1  0
  9 10  2  0
 10  2  1  0
 10  5  1  0
M  END
>  <inspiration>  (46) 
x1594

$$$$
ZINC000079065151
     RDKit          3D

 10 11  0  0  0  0  0  0  0  0999 V2000
   -6.8740    9.8340  -32.5350 Cl  0  0  0  0  0  0  0  0  0  0  0  0
   -6.6660   10.2800  -31.2910 C   0  0  0  0  0  0  0  0  0  0  0  0
   -7.1990    9.8070  -30.1740 N   0  0  0  0  0  0  0  0  0  0  0  0
   -6.7030   10.5680  -29.1130 S   0  0  0  0  0  0  0  0  0  0  0  0
   -5.8820   11.4760  -29.6270 C   0  0  0  0  0  0  0  0  0  0  0  0
   -5.0830   12.4690  -29.0140 N   0  0  0  0  0  0  0  0  0  0  0  0
   -4.2680   13.2420  -29.7830 C   0  0  0  0  0  0  0  0  0  0  0  0
   -4.2110   13.0710  -31.1840 C   0  0  0  0  0  0  0  0  0  0  0  0
   -4.9820   12.1370  -31.7840 C   0  0  0  0  0  0  0  0  0  0  0  0
   -5.8120   11.3450  -31.0120 C   0  0  0  0  0  0  0  0  0  0  0  0
  1  2  1  0
  2  3  2  0
  3  4  1  0
  4  5  1  0
  5  6  2  0
  6  7  1  0
  7  8  2  0
  8  9  1  0
  9 10  2  0
 10  2  1  0
 10  5  1  0
M  END
>  <inspiration>  (47) 
x1594

$$$$
ZINC000082372119
     RDKit          3D

 11 12  0  0  0  0  0  0  0  0999 V2000
   -6.8740    9.8340  -32.5350 C   0  0  0  0  0  0  0  0  0  0  0  0
   -6.6660   10.2800  -31.2910 C   0  0  0  0  0  0  0  0  0  0  0  0
   -7.1990    9.8070  -30.1740 N   0  0  0  0  0  0  0  0  0  0  0  0
   -6.7030   10.5680  -29.1130 N   0  0  0  0  0  0  0  0  0  0  0  0
   -5.8820   11.4760  -29.6270 C   0  0  0  0  0  0  0  0  0  0  0  0
   -5.0830   12.4690  -29.0140 N   0  0  0  0  0  0  0  0  0  0  0  0
   -4.2680   13.2420  -29.7830 C   0  0  0  0  0  0  0  0  0  0  0  0
   -4.2110   13.0710  -31.1840 C   0  0  0  0  0  0  0  0  0  0  0  0
   -3.0467   14.1653  -32.1813 Br  0  0  0  0  0  0  0  0  0  0  0  0
   -4.9820   12.1370  -31.7840 C   0  0  0  0  0  0  0  0  0  0  0  0
   -5.8120   11.3450  -31.0120 N   0  0  0  0  0  0  0  0  0  0  0  0
  1  2  1  0
  2  3  2  0
  3  4  1  0
  4  5  2  0
  5  6  1  0
  6  7  2  0
  7  8  1  0
  8  9  1  0
  8 10  2  0
 10 11  1  0
 11  2  1  0
 11  5  1  0
M  END
>  <inspiration>  (48) 
x1594

$$$$
ZINC000082372152
     RDKit          3D

 11 12  0  0  0  0  0  0  0  0999 V2000
   -6.8740    9.8340  -32.5350 C   0  0  0  0  0  0  0  0  0  0  0  0
   -6.6660   10.2800  -31.2910 C   0  0  0  0  0  0  0  0  0  0  0  0
   -7.1990    9.8070  -30.1740 N   0  0  0  0  0  0  0  0  0  0  0  0
   -6.7030   10.5680  -29.1130 O   0  0  0  0  0  0  0  0  0  0  0  0
   -5.8820   11.4760  -29.6270 C   0  0  0  0  0  0  0  0  0  0  0  0
   -5.0830   12.4690  -29.0140 N   0  0  0  0  0  0  0  0  0  0  0  0
   -4.2680   13.2420  -29.7830 C   0  0  0  0  0  0  0  0  0  0  0  0
   -4.2110   13.0710  -31.1840 C   0  0  0  0  0  0  0  0  0  0  0  0
   -3.0490   14.1613  -32.1910 Br  0  0  0  0  0  0  0  0  0  0  0  0
   -4.9820   12.1370  -31.7840 C   0  0  0  0  0  0  0  0  0  0  0  0
   -5.8120   11.3450  -31.0120 C   0  0  0  0  0  0  0  0  0  0  0  0
  1  2  1  0
  2  3  2  0
  3  4  1  0
  4  5  1  0
  5  6  2  0
  6  7  1  0
  7  8  2  0
  8  9  1  0
  8 10  1  0
 10 11  2  0
 11  2  1  0
 11  5  1  0
M  END
>  <inspiration>  (49) 
x1594

$$$$
ZINC000095830806
     RDKit          3D

 11 12  0  0  0  0  0  0  0  0999 V2000
   -6.8740    9.8340  -32.5350 N   0  0  0  0  0  0  0  0  0  0  0  0
   -6.6660   10.2800  -31.2910 C   0  0  0  0  0  0  0  0  0  0  0  0
   -7.1990    9.8070  -30.1740 N   0  0  0  0  0  0  0  0  0  0  0  0
   -6.7030   10.5680  -29.1130 O   0  0  0  0  0  0  0  0  0  0  0  0
   -5.8820   11.4760  -29.6270 C   0  0  0  0  0  0  0  0  0  0  0  0
   -5.0830   12.4690  -29.0140 N   0  0  0  0  0  0  0  0  0  0  0  0
   -4.2680   13.2420  -29.7830 C   0  0  0  0  0  0  0  0  0  0  0  0
   -4.2110   13.0710  -31.1840 C   0  0  0  0  0  0  0  0  0  0  0  0
   -3.0488   14.1614  -32.1906 Br  0  0  0  0  0  0  0  0  0  0  0  0
   -4.9820   12.1370  -31.7840 C   0  0  0  0  0  0  0  0  0  0  0  0
   -5.8120   11.3450  -31.0120 C   0  0  0  0  0  0  0  0  0  0  0  0
  1  2  1  0
  2  3  2  0
  3  4  1  0
  4  5  1  0
  5  6  2  0
  6  7  1  0
  7  8  2  0
  8  9  1  0
  8 10  1  0
 10 11  2  0
 11  2  1  0
 11  5  1  0
M  END
>  <inspiration>  (50) 
x1594

$$$$
x0771benzo
     RDKit          3D

  9  9  0  0  0  0  0  0  0  0999 V2000
   -5.6980   11.7390  -29.2630 N   0  0  0  0  0  0  0  0  0  0  0  0
   -6.4690   10.8180  -29.9210 C   0  0  0  0  0  0  0  0  0  0  0  0
   -7.0810    9.9360  -29.3280 O   0  0  0  0  0  0  0  0  0  0  0  0
   -6.5200   10.9260  -31.2970 C   0  0  0  0  0  0  0  0  0  0  0  0
   -6.5480    9.7970  -32.0740 C   0  0  0  0  0  0  0  0  0  0  0  0
   -6.5820    9.9320  -33.4590 C   0  0  0  0  0  0  0  0  0  0  0  0
   -6.5990   11.1560  -34.0460 C   0  0  0  0  0  0  0  0  0  0  0  0
   -6.5800   12.2960  -33.2610 C   0  0  0  0  0  0  0  0  0  0  0  0
   -6.5390   12.1950  -31.8830 C   0  0  0  0  0  0  0  0  0  0  0  0
  1  2  1  0
  2  3  2  0
  2  4  1  0
  4  5  2  0
  5  6  1  0
  6  7  2  0
  7  8  1  0
  8  9  2  0
  9  4  1  0
A    1
 N1 
A    2
 C1 
A    3
 O1 
A    4
 C2 
A    5
 C3 
A    6
 C4 
A    7
 C5 
A    8
 C6 
A    9
 C7 
M  END
$$$$
x1604base
     RDKit          3D

  8  8  0  0  0  0  0  0  0  0999 V2000
   -4.3950   12.3710  -31.1110 C   0  0  0  0  0  0  0  0  0  0  0  0
   -5.0900   11.3630  -31.7690 C   0  0  0  0  0  0  0  0  0  0  0  0
   -6.0450   10.6410  -31.0670 C   0  0  0  0  0  0  0  0  0  0  0  0
   -7.0320    9.2590  -31.8290 Br  0  0  0  0  0  0  0  0  0  0  0  0
   -6.3230   10.8960  -29.7640 C   0  0  0  0  0  0  0  0  0  0  0  0
   -7.2940   10.1360  -29.1610 O   0  0  0  0  0  0  0  0  0  0  0  0
   -5.6430   11.9020  -29.0680 C   0  0  0  0  0  0  0  0  0  0  0  0
   -4.6820   12.6230  -29.7680 C   0  0  0  0  0  0  0  0  0  0  0  0
  1  2  2  0
  2  3  1  0
  3  4  1  0
  3  5  2  0
  5  6  1  0
  5  7  1  0
  7  8  2  0
  8  1  1  0
A    1
 C1 
A    2
 C2 
A    3
 C3 
A    4
BR1 
A    5
 C4 
A    6
 O1 
A    7
 C5 
A    8
 C6 
M  END
$$$$
x1604amino
     RDKit          3D

  9  9  0  0  0  0  0  0  0  0999 V2000
   -4.4010   12.3240  -31.3910 C   0  0  0  0  0  0  0  0  0  0  0  0
   -5.1490   11.2910  -31.9380 C   0  0  0  0  0  0  0  0  0  0  0  0
   -6.0520   10.6160  -31.1360 C   0  0  0  0  0  0  0  0  0  0  0  0
   -7.0830    9.2000  -31.7660 Br  0  0  0  0  0  0  0  0  0  0  0  0
   -6.2360   10.9440  -29.8340 C   0  0  0  0  0  0  0  0  0  0  0  0
   -7.1700   10.2190  -29.1360 O   0  0  0  0  0  0  0  0  0  0  0  0
   -5.4880   11.9870  -29.2560 C   0  0  0  0  0  0  0  0  0  0  0  0
   -5.6150   12.3690  -27.9270 N   0  0  0  0  0  0  0  0  0  0  0  0
   -4.5700   12.6680  -30.0520 C   0  0  0  0  0  0  0  0  0  0  0  0
  1  2  2  0
  2  3  1  0
  3  4  1  0
  3  5  2  0
  5  6  1  0
  5  7  1  0
  7  8  1  0
  7  9  2  0
  9  1  1  0
A    1
 C1 
A    2
 C2 
A    3
 C3 
A    4
BR1 
A    5
 C4 
A    6
 O1 
A    7
 C5 
A    8
 N1 
A    9
 C6 
M  END
$$$$
x1604hydroxyl
     RDKit          3D

  9  9  0  0  0  0  0  0  0  0999 V2000
   -4.4810   12.4260  -31.1290 C   0  0  0  0  0  0  0  0  0  0  0  0
   -5.1760   11.3840  -31.7440 C   0  0  0  0  0  0  0  0  0  0  0  0
   -6.0670   10.6280  -30.9850 C   0  0  0  0  0  0  0  0  0  0  0  0
   -7.0310    9.2080  -31.7280 Br  0  0  0  0  0  0  0  0  0  0  0  0
   -6.2680   10.8940  -29.6590 C   0  0  0  0  0  0  0  0  0  0  0  0
   -7.1500   10.1320  -28.9400 O   0  0  0  0  0  0  0  0  0  0  0  0
   -5.5850   11.9350  -29.0150 C   0  0  0  0  0  0  0  0  0  0  0  0
   -5.8080   12.1780  -27.6810 O   0  0  0  0  0  0  0  0  0  0  0  0
   -4.6960   12.6840  -29.7740 C   0  0  0  0  0  0  0  0  0  0  0  0
  1  2  2  0
  2  3  1  0
  3  4  1  0
  3  5  2  0
  5  6  1  0
  5  7  1  0
  7  8  1  0
  7  9  2  0
  9  1  1  0
A    1
 C1 
A    2
 C2 
A    3
 C3 
A    4
BR1 
A    5
 C4 
A    6
 O1 
A    7
 C5 
A    8
 O2 
A    9
 C6 
M  END
$$$$
fippedSulfonamide
     RDKit          3D

  5  4  0  0  0  0  0  0  0  0999 V2000
   -8.9730   12.5540  -34.4110 N   0  0  0  0  0  0  0  0  0  0  0  0
   -7.9880   13.6990  -33.7420 S   0  0  0  0  0  0  0  0  0  0  0  0
   -8.4880   13.9520  -32.4200 O   0  0  0  0  0  0  0  0  0  0  0  0
   -8.1620   15.1860  -34.7160 O   0  0  0  0  0  0  0  0  0  0  0  0
   -6.6410   13.2300  -33.9060 C   0  0  0  0  0  0  0  0  0  0  0  0
  1  2  1  0
  2  3  2  0
  2  4  2  0
  2  5  1  0
M  END
$$$$
HOH67
     RDKit          3D

  1  0  0  0  0  0  0  0  0  0999 V2000
   -8.3610   13.8560  -32.2310 O   0  0  0  0  0  0  0  0  0  0  0  0
M  END
$$$$
trappedHOH
     RDKit          3D

  1  0  0  0  0  0  0  0  0  0999 V2000
   -6.0970   12.4170  -25.7860 O   0  0  0  0  0  0  0  0  0  0  0  0
M  END
$$$$
oxyanionHOH
     RDKit          3D

  1  0  0  0  0  0  0  0  0  0999 V2000
   -6.4530    6.4530  -34.7740 O   0  0  0  0  0  0  0  0  0  0  0  0
M  END
$$$$
HOH219
     RDKit          3D

  1  0  0  0  0  0  0  0  0  0999 V2000
   -8.0220   13.2100  -44.6120 O   0  0  0  0  0  0  0  0  0  0  0  0
M  END
$$$$
HOH240
     RDKit          3D

  1  0  0  0  0  0  0  0  0  0999 V2000
  -14.5540   12.8800  -42.6840 O   0  0  0  0  0  0  0  0  0  0  0  0
M  END
$$$$
HOH318
     RDKit          3D

  1  0  0  0  0  0  0  0  0  0999 V2000
   -7.3720    8.6160  -37.2170 O   0  0  0  0  0  0  0  0  0  0  0  0
M  END
$$$$
HOH319
     RDKit          3D

  1  0  0  0  0  0  0  0  0  0999 V2000
   -9.5960   12.4770  -34.4260 O   0  0  0  0  0  0  0  0  0  0  0  0
M  END
$$$$
HOH322
     RDKit          3D

  1  0  0  0  0  0  0  0  0  0999 V2000
   -6.0220    5.0100  -36.9780 O   0  0  0  0  0  0  0  0  0  0  0  0
M  END
$$$$
HOH323
     RDKit          3D

  1  0  0  0  0  0  0  0  0  0999 V2000
  -15.3870   13.5980  -40.2650 O   0  0  0  0  0  0  0  0  0  0  0  0
M  END
$$$$
HOH325
     RDKit          3D

  1  0  0  0  0  0  0  0  0  0999 V2000
   -8.6620   11.3550  -42.1330 O   0  0  0  0  0  0  0  0  0  0  0  0
M  END
$$$$
