ver_1.2
     RDKit          3D

 14 15  0  0  0  0  0  0  0  0999 V2000
    2.9916   -1.4534   -0.1557 C   0  0  0  0  0  0  0  0  0  0  0  0
    2.1981   -0.2573   -0.1074 N   0  0  0  0  0  0  0  0  0  0  0  0
    2.6393    1.0142   -0.1176 C   0  0  0  0  0  0  0  0  0  0  0  0
    1.5556    1.8328   -0.0586 N   0  0  0  0  0  0  0  0  0  0  0  0
    0.4531    1.0557   -0.0126 C   0  0  0  0  0  0  0  0  0  0  0  0
    0.8431   -0.2795   -0.0428 C   0  0  0  0  0  0  0  0  0  0  0  0
   -0.0989   -1.2851   -0.0064 C   0  0  0  0  0  0  0  0  0  0  0  0
    0.2357   -2.4807   -0.0327 O   0  0  0  0  0  0  0  0  0  0  0  0
   -1.4021   -0.9921    0.0585 N   0  0  0  0  0  0  0  0  0  0  0  0
   -1.7894    0.2964    0.0882 C   0  0  0  0  0  0  0  0  0  0  0  0
   -3.0238    0.5971    0.1499 O   0  0  0  0  0  0  0  0  0  0  0  0
   -0.8727    1.2800    0.0528 N   0  0  0  0  0  0  0  0  0  0  0  0
   -1.2839    2.6855    0.0846 C   0  0  0  0  0  0  0  0  0  0  0  0
   -2.4456   -2.0136    0.0997 C   0  0  0  0  0  0  0  0  0  0  0  0
  1  2  1  0
  2  3  1  0
  3  4  2  0
  4  5  1  0
  5  6  2  0
  6  7  1  0
  7  8  2  0
  7  9  1  0
  9 10  1  0
 10 11  2  0
 10 12  1  0
 12 13  1  0
  9 14  1  0
  6  2  1  0
 12  5  1  0
M  END
>  <ref_url>  (1) 
https://www.example.com

>  <submitter_name>  (1) 
PDB

>  <submitter_email>  (1) 
nothing@dev.null

>  <submitter_institution>  (1) 
Nowehere

>  <generation_date>  (1) 
2023-01-01

>  <method>  (1) 
Stolen from PDB

$$$$
7L8H_A_AG7
     RDKit          3D

 44 46  0  0  0  0  0  0  0  0999 V2000
   -6.6503   -4.4291   -2.0568 C   0  0  0  0  0  0  0  0  0  0  0  0
   -6.1557    0.2005   -1.0670 C   0  0  0  0  0  0  0  0  0  0  0  0
   -6.1865   -5.7561   -1.4108 C   0  0  0  0  0  0  0  0  0  0  0  0
   -5.3312    1.0590   -0.3685 C   0  0  0  0  0  0  0  0  0  0  0  0
   -5.3392    2.2595   -1.0149 C   0  0  0  0  0  0  0  0  0  0  0  0
   -6.3083   -4.1334   -3.1482 O   0  0  0  0  0  0  0  0  0  0  0  0
   -5.5421   -6.6694   -2.4392 C   0  0  1  0  0  0  0  0  0  0  0  0
   -4.5683    3.5243   -0.6064 C   0  0  0  0  0  0  0  0  0  0  0  0
   -6.1447    2.1538   -2.0840 O   0  0  0  0  0  0  0  0  0  0  0  0
   -5.2643   -8.0453   -1.8363 C   0  0  0  0  0  0  0  0  0  0  0  0
   -6.6533    0.8611   -2.1103 N   0  0  0  0  0  0  0  0  0  0  0  0
   -4.4050   -7.9549   -0.5346 C   0  0  0  0  0  0  0  0  0  0  0  0
   -2.8807   -7.8442   -0.6275 C   0  0  0  0  0  0  0  0  0  0  0  0
   -2.0430   -7.7601    0.6569 C   0  0  0  0  0  0  0  0  0  0  0  0
   -2.7379   -7.7920    2.0208 C   0  0  0  0  0  0  0  0  0  0  0  0
   -4.2573   -7.9076    2.1174 C   0  0  0  0  0  0  0  0  0  0  0  0
   -5.0940   -7.9915    0.8333 C   0  0  0  0  0  0  0  0  0  0  0  0
   -5.8074   -7.1808   -4.9488 N   0  0  0  0  0  0  0  0  0  0  0  0
   -6.5791   -7.5048   -6.1492 C   0  0  1  0  0  0  0  0  0  0  0  0
   -6.6026   -6.3411   -7.1177 C   0  0  0  0  0  0  0  0  0  0  0  0
   -7.4346   -5.2392   -6.6247 C   0  0  1  0  0  0  0  0  0  0  0  0
   -7.5245   -4.1148   -7.7532 C   0  0  0  0  0  0  0  0  0  0  0  0
   -8.8056   -3.7096   -7.7735 N   0  0  0  0  0  0  0  0  0  0  0  0
   -6.6476   -3.7262   -8.4405 O   0  0  0  0  0  0  0  0  0  0  0  0
   -5.8418   -8.6713   -6.8192 C   0  0  2  0  0  0  0  0  0  0  0  0
   -5.7413  -10.0128   -6.0316 C   0  0  0  0  0  0  0  0  0  0  0  0
   -7.1287  -10.6051   -5.6723 C   0  0  0  0  0  0  0  0  0  0  0  0
   -7.2225  -11.7477   -4.8361 O   0  0  0  0  0  0  0  0  0  0  0  0
   -8.1142  -10.1114   -6.0964 O   0  0  0  0  0  0  0  0  0  0  0  0
   -6.4595   -6.9785   -3.6381 C   0  0  0  0  0  0  0  0  0  0  0  0
   -7.6342   -7.0774   -3.5112 O   0  0  0  0  0  0  0  0  0  0  0  0
   -7.0367  -11.5460   -3.4462 C   0  0  0  0  0  0  0  0  0  0  0  0
   -8.3383  -11.9124   -2.7083 C   0  0  0  0  0  0  0  0  0  0  0  0
   -7.5617   -3.4824   -1.2710 C   0  0  1  0  0  0  0  0  0  0  0  0
   -7.2587   -2.1046   -1.6298 N   0  0  0  0  0  0  0  0  0  0  0  0
   -6.4738   -1.2695   -0.7081 C   0  0  0  0  0  0  0  0  0  0  0  0
   -6.0875   -1.7081    0.3200 O   0  0  0  0  0  0  0  0  0  0  0  0
   -9.0145   -3.8339   -1.5831 C   0  0  0  0  0  0  0  0  0  0  0  0
   -9.2395   -3.9302   -3.0847 C   0  0  0  0  0  0  0  0  0  0  0  0
   -9.9546   -2.7678   -0.9942 C   0  0  0  0  0  0  0  0  0  0  0  0
   -9.6062   -4.5225   -6.6799 C   0  0  0  0  0  0  0  0  0  0  0  0
   -8.8779   -5.6564   -6.4228 C   0  0  0  0  0  0  0  0  0  0  0  0
   -4.1429   -8.4410   -7.2534 R   0  0  0  0  0  0  0  0  0  0  0  0
   -1.9928   -7.7195    3.1572 F   0  0  0  0  0  0  0  0  0  0  0  0
  1  3  1  0
  1  6  2  0
  1 34  1  0
  2  4  1  0
  2 11  2  0
  2 36  1  0
  7  3  1  1
  4  5  2  0
  5  8  1  0
  5  9  1  0
  7 10  1  0
  7 30  1  0
  9 11  1  0
 10 12  1  0
 12 13  2  0
 12 17  1  0
 13 14  1  0
 14 15  2  0
 15 16  1  0
 15 44  1  0
 16 17  2  0
 18 19  1  0
 18 30  1  0
 19 20  1  6
 19 25  1  0
 21 20  1  6
 21 22  1  0
 21 42  1  0
 22 23  1  0
 22 24  2  0
 23 41  1  0
 25 26  1  0
 25 43  1  1
 26 27  1  0
 27 28  1  0
 27 29  2  0
 28 32  1  0
 30 31  2  0
 32 33  1  0
 34 35  1  6
 34 38  1  0
 35 36  1  0
 36 37  2  0
 38 39  1  0
 38 40  1  0
 41 42  1  0
V   43 *
A    1
 C01
A    2
 C1 
A    3
 C02
A    4
 C2 
A    5
 C3 
A    6
 O03
A    7
 C04
A    8
 C4 
A    9
 O4 
A   10
 C05
A   11
 N5 
A   12
 C06
A   13
 C07
A   14
 C08
A   15
 C09
A   16
 C10
A   17
 C11
A   18
 N12
A   19
 C13
A   20
 C14
A   21
 C15
A   22
 C16
A   23
 N17
A   24
 O18
A   25
 C19
A   26
 C20
A   27
 C21
A   28
 O22
A   29
 O23
A   30
 C47
A   31
 O48
A   32
 C50
A   33
 C53
A   34
 C57
A   35
 N58
A   36
 C59
A   37
 O60
A   38
 C78
A   39
 C81
A   40
 C82
A   41
 C83
A   42
 C84
A   43
 X  
A   44
 F1 
M  END
>  <ref_pdb>  (1) 
X0147_0A

>  <ref_mols>  (1) 
x0147

>  <original SMILES>  (1) 
*[C@@H](CC(=O)OCC)[C@H](C[C@@H]1CCNC1=O)NC(=O)[C@@H](CC(=O)[C@@H](NC(=O)c1cc(C)on1)C(C)C)Cc1ccc(F)cc1

$$$$
3ZYD_A_GOL
     RDKit          3D

  6  5  0  0  0  0  0  0  0  0999 V2000
    8.0192    2.8233    9.3930 C   0  0  0  0  0  0  0  0  0  0  0  0
    7.4574    2.9804    8.1073 O   0  0  0  0  0  0  0  0  0  0  0  0
    9.0381    1.6848    9.4056 C   0  0  0  0  0  0  0  0  0  0  0  0
   10.1909    1.9989    8.6441 O   0  0  0  0  0  0  0  0  0  0  0  0
    9.4316    1.5090   10.8724 C   0  0  0  0  0  0  0  0  0  0  0  0
   10.4918    0.6008   11.0782 O   0  0  0  0  0  0  0  0  0  0  0  0
  1  2  1  0
  1  3  1  0
  3  4  1  0
  3  5  1  0
  5  6  1  0
A    1
 C1 
A    2
 O1 
A    3
 C2 
A    4
 O2 
A    5
 C3 
A    6
 O3 
M  END
>  <ref_pdb>  (2) 
X0147_0A

>  <ref_mols>  (2) 
x0147

>  <original SMILES>  (2) 
OCC(O)CO

$$$$
7QUW_AAA_I70
     RDKit          3D

 40 42  0  0  0  0  0  0  0  0999 V2000
   -6.6649  -10.1244   -7.7542 C   0  0  0  0  0  0  0  0  0  0  0  0
   -7.5475  -11.2593   -7.4731 N   0  0  0  0  0  0  0  0  0  0  0  0
   -6.6614   -9.6574   -8.8772 O   0  0  0  0  0  0  0  0  0  0  0  0
   -6.5753    0.2022    0.1936 C   0  0  0  0  0  0  0  0  0  0  0  0
   -5.7904   -9.5570   -6.6382 C   0  0  2  0  0  0  0  0  0  0  0  0
   -7.2836   -1.0152   -0.2141 N   0  0  0  0  0  0  0  0  0  0  0  0
   -6.8191   -2.2901   -0.2103 C   0  0  0  0  0  0  0  0  0  0  0  0
   -5.5767  -10.5604   -5.6399 O   0  0  0  0  0  0  0  0  0  0  0  0
   -7.0559   -2.9610   -1.3571 N   0  0  0  0  0  0  0  0  0  0  0  0
   -7.4750   -4.3527   -1.3522 C   0  0  2  0  0  0  0  0  0  0  0  0
   -6.4682   -5.1816   -2.1566 C   0  0  0  0  0  0  0  0  0  0  0  0
   -6.4428   -6.8248   -0.2764 C   0  0  0  0  0  0  0  0  0  0  0  0
   -6.1207   -6.3868   -1.6489 N   0  0  0  0  0  0  0  0  0  0  0  0
   -5.3893   -7.3940   -2.4299 C   0  0  2  0  0  0  0  0  0  0  0  0
   -6.2616   -7.9086   -3.5694 C   0  0  0  0  0  0  0  0  0  0  0  0
   -5.7731   -8.1772   -0.1285 C   0  0  2  0  0  0  0  0  0  0  0  0
   -5.7030   -7.8816   -4.7828 N   0  0  0  0  0  0  0  0  0  0  0  0
   -6.4206   -8.3002   -5.9954 C   0  0  1  0  0  0  0  0  0  0  0  0
   -4.2660   -8.2546   -0.1975 C   0  0  0  0  0  0  0  0  0  0  0  0
   -6.4959   -7.1000   -6.9343 C   0  0  0  0  0  0  0  0  0  0  0  0
   -7.4609   -6.0495   -6.4018 C   0  0  2  0  0  0  0  0  0  0  0  0
   -8.9308   -6.4434   -6.2719 C   0  0  0  0  0  0  0  0  0  0  0  0
   -9.7089   -5.1770   -6.6365 C   0  0  0  0  0  0  0  0  0  0  0  0
   -3.3634   -7.0416   -0.1864 C   0  0  0  0  0  0  0  0  0  0  0  0
   -8.7082   -4.3255   -7.2718 N   0  0  0  0  0  0  0  0  0  0  0  0
   -7.5074   -4.8868   -7.3653 C   0  0  0  0  0  0  0  0  0  0  0  0
   -3.6996   -9.3813    0.6363 C   0  0  0  0  0  0  0  0  0  0  0  0
   -9.3720   -5.9534   -1.8718 C   0  0  0  0  0  0  0  0  0  0  0  0
   -6.5770   -4.5473   -8.1299 O   0  0  0  0  0  0  0  0  0  0  0  0
   -6.4686   -0.1299    1.6786 C   0  0  0  0  0  0  0  0  0  0  0  0
   -5.1397    0.3839   -0.2514 C   0  0  0  0  0  0  0  0  0  0  0  0
   -7.3691    1.4868    0.1977 C   0  0  0  0  0  0  0  0  0  0  0  0
   -6.2713   -2.8500    0.7654 O   0  0  0  0  0  0  0  0  0  0  0  0
   -8.9406   -4.4873   -1.8028 C   0  0  0  0  0  0  0  0  0  0  0  0
   -9.8471   -3.7810   -0.7899 C   0  0  0  0  0  0  0  0  0  0  0  0
   -9.1578   -3.8472   -3.1793 C   0  0  0  0  0  0  0  0  0  0  0  0
   -5.9762   -4.7348   -3.2064 O   0  0  0  0  0  0  0  0  0  0  0  0
   -5.0951   -8.5179   -1.4420 C   0  0  2  0  0  0  0  0  0  0  0  0
   -7.4216   -8.2654   -3.3600 O   0  0  0  0  0  0  0  0  0  0  0  0
   -4.2660   -8.8030   -7.2789 R   0  0  0  0  0  0  0  0  0  0  0  0
  1  2  1  0
  1  3  1  0
  1  5  1  0
  4  6  1  0
  4 30  1  0
  4 31  1  0
  4 32  1  0
  5  8  1  0
  5 18  1  0
  5 40  1  6
  6  7  1  0
  7  9  1  0
  7 33  1  0
 10  9  1  6
 10 11  1  0
 10 34  1  0
 11 13  1  0
 11 37  1  0
 12 13  1  0
 16 12  1  6
 13 14  1  0
 14 15  1  6
 38 14  1  0
 15 17  1  0
 15 39  1  0
 16 19  1  0
 16 38  1  0
 17 18  1  0
 18 20  1  6
 19 24  1  0
 19 27  1  0
 38 19  1  1
 21 20  1  6
 21 22  1  0
 21 26  1  0
 22 23  1  0
 23 25  1  0
 25 26  1  0
 26 29  1  0
 34 28  1  0
 34 35  1  0
 34 36  1  0
V   40 *
A    1
 C1 
A    2
 N2 
A    3
 O5 
A    4
 C7 
A    5
 C8 
A    6
 N8 
A    7
 C9 
A    8
 O9 
A    9
 N10
A   10
 C11
A   11
 C12
A   12
 C13
A   13
 N13
A   14
 C14
A   15
 C15
A   16
 C16
A   17
 N16
A   18
 C17
A   19
 C18
A   20
 C19
A   21
 C20
A   22
 C21
A   23
 C22
A   24
 C23
A   25
 N23
A   26
 C24
A   27
 C25
A   28
 C26
A   29
 O26
A   30
 C27
A   31
 C28
A   32
 C29
A   33
 O29
A   34
 C30
A   35
 C31
A   36
 C32
A   37
 O33
A   38
 C34
A   39
 O38
A   40
 X  
M  END
>  <ref_pdb>  (3) 
X0147_0A

>  <ref_mols>  (3) 
x0147

>  <original SMILES>  (3) 
*[C@](O)(C(N)O)[C@H](C[C@@H]1CCNC1O)NC(O)[C@@H]1[C@@H]2[C@H](CN1C(O)[C@@H](NC(O)NC(C)(C)C)C(C)(C)C)C2(C)C

$$$$
3Q3Y_A_EDO
     RDKit          3D

  4  3  0  0  0  0  0  0  0  0999 V2000
   16.2859  -16.4284   -5.7661 C   0  0  0  0  0  0  0  0  0  0  0  0
   17.3672  -15.5224   -6.0147 O   0  0  0  0  0  0  0  0  0  0  0  0
   15.7099  -16.1924   -4.3739 C   0  0  0  0  0  0  0  0  0  0  0  0
   16.7492  -16.2790   -3.3927 O   0  0  0  0  0  0  0  0  0  0  0  0
  1  2  1  0
  1  3  1  0
  3  4  1  0
A    1
 C1 
A    2
 O1 
A    3
 C2 
A    4
 O2 
M  END
>  <ref_pdb>  (4) 
X0147_0A

>  <ref_mols>  (4) 
x0147

>  <original SMILES>  (4) 
OCCO

$$$$
3Q3Y_A_XNV
     RDKit          3D

  6  5  0  0  0  0  0  0  0  0999 V2000
   -6.3682  -14.2933   -7.5507 C   0  0  0  0  0  0  0  0  0  0  0  0
   -6.2140  -12.9653   -6.7895 C   0  0  0  0  0  0  0  0  0  0  0  0
   -7.3572  -12.1232   -6.9706 O   0  0  0  0  0  0  0  0  0  0  0  0
   -7.3566  -10.7930   -6.5890 C   0  0  2  0  0  0  0  0  0  0  0  0
   -8.3343  -10.1591   -6.9362 O   0  0  0  0  0  0  0  0  0  0  0  0
   -5.9273  -10.2395   -6.4182 R   0  0  0  0  0  0  0  0  0  0  0  0
  1  2  1  0
  2  3  1  0
  3  4  1  0
  4  5  1  0
  4  6  1  6
V    6 *
A    1
 C01
A    2
 C02
A    3
 O03
A    4
 C04
A    5
 O38
A    6
 X  
M  END
>  <ref_pdb>  (5) 
X0147_0A

>  <ref_mols>  (5) 
x0147

>  <original SMILES>  (5) 
*[C@@H](O)OCC

$$$$
3ZZC_A_G83
     RDKit          3D

 50 52  0  0  0  0  0  0  0  0999 V2000
   -7.4154    4.3943   -1.0058 C   0  0  0  0  0  0  0  0  0  0  0  0
   -9.8088   -4.2466   -0.0470 O   0  0  0  0  0  0  0  0  0  0  0  0
   -7.4965    3.1518   -0.3332 C   0  0  0  0  0  0  0  0  0  0  0  0
  -10.7849   -2.7610   -1.5499 O   0  0  0  0  0  0  0  0  0  0  0  0
   -8.7574  -11.3963   -4.3650 C   0  0  0  0  0  0  0  0  0  0  0  0
   -6.5333    2.1851   -0.6016 C   0  0  0  0  0  0  0  0  0  0  0  0
   -9.2091  -12.6959   -5.0263 C   0  0  0  0  0  0  0  0  0  0  0  0
   -5.5023    2.4085   -1.5172 C   0  0  0  0  0  0  0  0  0  0  0  0
   -2.1463   -6.8435    0.1137 C   0  0  0  0  0  0  0  0  0  0  0  0
   -5.3984    3.6290   -2.1680 C   0  0  0  0  0  0  0  0  0  0  0  0
   -2.4951   -7.1868    1.4327 C   0  0  0  0  0  0  0  0  0  0  0  0
   -6.3678    4.6303   -1.9038 C   0  0  0  0  0  0  0  0  0  0  0  0
   -3.7242   -7.8416    1.6206 C   0  0  0  0  0  0  0  0  0  0  0  0
  -12.0023   -4.6755   -2.5740 C   0  0  0  0  0  0  0  0  0  0  0  0
   -6.6168    0.8594    0.0886 C   0  0  0  0  0  0  0  0  0  0  0  0
   -9.7487   -3.6760   -1.1427 C   0  0  0  0  0  0  0  0  0  0  0  0
   -6.5512   -0.1394   -0.9364 O   0  0  0  0  0  0  0  0  0  0  0  0
   -6.7641   -1.5643   -0.6921 C   0  0  0  0  0  0  0  0  0  0  0  0
   -6.6118   -2.0234    0.4492 O   0  0  0  0  0  0  0  0  0  0  0  0
   -7.0936   -2.3218   -1.7446 N   0  0  0  0  0  0  0  0  0  0  0  0
   -7.2857   -3.7310   -1.5374 C   0  0  1  0  0  0  0  0  0  0  0  0
   -8.6674   -3.9044   -2.1280 C   0  0  0  0  0  0  0  0  0  0  0  0
  -11.9284   -3.1629   -2.3131 C   0  0  0  0  0  0  0  0  0  0  0  0
   -6.4255   -4.5850   -2.4181 C   0  0  0  0  0  0  0  0  0  0  0  0
   -6.1552   -5.8248   -1.9629 N   0  0  0  0  0  0  0  0  0  0  0  0
   -6.1043   -4.1450   -3.5302 O   0  0  0  0  0  0  0  0  0  0  0  0
   -5.3936   -6.7960   -2.7610 C   0  0  2  0  0  0  0  0  0  0  0  0
   -6.2733   -7.1956   -3.9231 C   0  0  0  0  0  0  0  0  0  0  0  0
   -5.1640   -8.0606   -1.9245 C   0  0  0  0  0  0  0  0  0  0  0  0
  -11.7839   -2.4192   -3.6350 C   0  0  0  0  0  0  0  0  0  0  0  0
  -13.1846   -2.7436   -1.5427 C   0  0  0  0  0  0  0  0  0  0  0  0
   -7.4834   -7.3861   -3.7508 O   0  0  0  0  0  0  0  0  0  0  0  0
   -5.6549   -7.3160   -5.0996 N   0  0  0  0  0  0  0  0  0  0  0  0
   -4.2260   -7.7696   -0.7701 C   0  0  0  0  0  0  0  0  0  0  0  0
   -2.9950   -7.1474   -0.9744 C   0  0  0  0  0  0  0  0  0  0  0  0
   -4.6040   -8.1219    0.5380 C   0  0  0  0  0  0  0  0  0  0  0  0
   -6.3390   -7.6620   -6.3429 C   0  0  1  0  0  0  0  0  0  0  0  0
   -6.3610   -6.4061   -7.2219 C   0  0  0  0  0  0  0  0  0  0  0  0
   -7.1372   -5.2039   -6.6329 C   0  0  1  0  0  0  0  0  0  0  0  0
   -5.5244   -8.8056   -6.9941 C   0  0  2  0  0  0  0  0  0  0  0  0
   -7.2093   -4.0680   -7.6229 C   0  0  0  0  0  0  0  0  0  0  0  0
   -6.3033   -3.8606   -8.4330 O   0  0  0  0  0  0  0  0  0  0  0  0
   -8.2742   -3.3981   -7.4364 N   0  0  0  0  0  0  0  0  0  0  0  0
   -9.2564   -3.9635   -6.5165 C   0  0  0  0  0  0  0  0  0  0  0  0
   -8.6180   -5.3524   -6.2783 C   0  0  0  0  0  0  0  0  0  0  0  0
   -5.5497  -10.0525   -6.1030 C   0  0  0  0  0  0  0  0  0  0  0  0
   -6.9749  -10.5302   -5.9191 C   0  0  0  0  0  0  0  0  0  0  0  0
   -7.3719  -11.1131   -4.6523 O   0  0  0  0  0  0  0  0  0  0  0  0
   -7.8022  -10.4363   -6.8160 O   0  0  0  0  0  0  0  0  0  0  0  0
   -3.8051   -8.3398   -7.2626 R   0  0  0  0  0  0  0  0  0  0  0  0
  1  3  2  0
  1 12  1  0
  2 16  2  0
  3  6  1  0
  4 23  1  0
  4 16  1  0
  5  7  1  0
  5 48  1  0
  6  8  2  0
  6 15  1  0
  8 10  1  0
  9 11  2  0
  9 35  1  0
 10 12  2  0
 11 13  1  0
 13 36  2  0
 23 14  1  0
 15 17  1  0
 16 22  1  0
 17 18  1  0
 18 20  1  0
 18 19  2  0
 20 21  1  0
 21 22  1  6
 21 24  1  0
 23 30  1  0
 23 31  1  0
 24 25  1  0
 24 26  2  0
 25 27  1  0
 27 28  1  0
 27 29  1  1
 28 32  2  0
 28 33  1  0
 29 34  1  0
 33 37  1  0
 34 35  2  0
 34 36  1  0
 37 38  1  6
 37 40  1  0
 39 38  1  6
 39 41  1  0
 39 45  1  0
 40 46  1  0
 40 50  1  1
 41 42  2  0
 41 43  1  0
 43 44  1  0
 44 45  1  0
 46 47  1  0
 47 48  1  0
 47 49  2  0
V   50 *
A    1
 C1 
A    2
 O1 
A    3
 C2 
A    4
 O2 
A    5
 C3 
A    6
 C4 
A    7
 C5 
A    8
 C6 
A    9
 C7 
A   10
 C8 
A   11
 C9 
A   12
 C10
A   13
 C11
A   14
 C12
A   15
 C13
A   16
 C14
A   17
 O15
A   18
 C17
A   19
 O19
A   20
 N21
A   21
 C23
A   22
 C25
A   23
 C29
A   24
 C31
A   25
 N33
A   26
 O35
A   27
 C37
A   28
 C39
A   29
 C41
A   30
 C43
A   31
 C45
A   32
 O47
A   33
 N49
A   34
 C51
A   35
 C53
A   36
 C55
A   37
 C57
A   38
 C59
A   39
 C61
A   40
 C63
A   41
 C65
A   42
 O66
A   43
 N69
A   44
 C71
A   45
 C73
A   46
 C82
A   47
 C84
A   48
 O86
A   49
 O88
A   50
 X  
M  END
>  <ref_pdb>  (6) 
X0147_0A

>  <ref_mols>  (6) 
x0147

>  <original SMILES>  (6) 
*[C@@H](CC(=O)OCC)[C@H](C[C@@H]1CCNC1=O)NC(=O)[C@H](Cc1ccccc1)NC(=O)[C@H](CC(=O)OC(C)(C)C)NC(=O)OCc1ccccc1

$$$$
3Q3X_A_GOL
     RDKit          3D

  6  5  0  0  0  0  0  0  0  0999 V2000
  -22.8610    5.6856  -43.9578 C   0  0  0  0  0  0  0  0  0  0  0  0
  -22.9693    4.4939  -44.7062 O   0  0  0  0  0  0  0  0  0  0  0  0
  -22.7158    6.8182  -44.9425 C   0  0  0  0  0  0  0  0  0  0  0  0
  -21.4712    6.7808  -45.5215 O   0  0  0  0  0  0  0  0  0  0  0  0
  -23.6871    6.6203  -46.0269 C   0  0  0  0  0  0  0  0  0  0  0  0
  -23.0760    5.7295  -46.9200 O   0  0  0  0  0  0  0  0  0  0  0  0
  1  2  1  0
  1  3  1  0
  3  4  1  0
  3  5  1  0
  5  6  1  0
A    1
 C1 
A    2
 O1 
A    3
 C2 
A    4
 O2 
A    5
 C3 
A    6
 O3 
M  END
>  <ref_pdb>  (7) 
X0147_0A

>  <ref_mols>  (7) 
x0147

>  <original SMILES>  (7) 
OCC(O)CO

$$$$
5BPE_A_E22
     RDKit          3D

 35 37  0  0  0  0  0  0  0  0999 V2000
   -5.1303   -6.9273   -2.6199 C   0  0  1  0  0  0  0  0  0  0  0  0
   -5.8967   -6.0182   -1.8194 N   0  0  0  0  0  0  0  0  0  0  0  0
   -6.9910   -8.0905   -3.5529 O   0  0  0  0  0  0  0  0  0  0  0  0
   -4.6449   -8.1143   -1.8088 C   0  0  0  0  0  0  0  0  0  0  0  0
   -6.5392  -10.0813   -8.5555 N   0  0  0  0  0  0  0  0  0  0  0  0
   -5.9466   -4.3662   -3.4081 O   0  0  0  0  0  0  0  0  0  0  0  0
   -5.9497   -7.5099   -3.7461 C   0  0  0  0  0  0  0  0  0  0  0  0
   -5.5175   -7.3962   -5.0750 N   0  0  0  0  0  0  0  0  0  0  0  0
   -6.1240  -10.1624   -5.3168 O   0  0  0  0  0  0  0  0  0  0  0  0
   -8.0572    0.7351    1.0714 C   0  0  0  0  0  0  0  0  0  0  0  0
   -8.3048   -3.3189   -7.5060 N   0  0  0  0  0  0  0  0  0  0  0  0
   -6.3703   -4.3443   -8.6118 O   0  0  0  0  0  0  0  0  0  0  0  0
   -6.2726   -4.7201   -2.2880 C   0  0  0  0  0  0  0  0  0  0  0  0
   -9.2646   -4.4923   -5.5689 C   0  0  0  0  0  0  0  0  0  0  0  0
   -3.6925   -7.7168   -0.7123 C   0  0  0  0  0  0  0  0  0  0  0  0
   -6.6708    0.6392    0.9511 C   0  0  0  0  0  0  0  0  0  0  0  0
   -7.0907   -3.7828   -1.4054 C   0  0  0  0  0  0  0  0  0  0  0  0
   -8.8677   -0.3335    0.6761 C   0  0  0  0  0  0  0  0  0  0  0  0
   -6.3322   -7.9220   -6.0350 C   0  0  1  0  0  0  0  0  0  0  0  0
   -3.9656   -8.0791    0.6040 C   0  0  0  0  0  0  0  0  0  0  0  0
   -8.4078   -5.6927   -5.9385 C   0  0  0  0  0  0  0  0  0  0  0  0
   -6.1136   -0.5335    0.4318 C   0  0  0  0  0  0  0  0  0  0  0  0
   -7.2563   -4.3141   -7.6273 C   0  0  0  0  0  0  0  0  0  0  0  0
   -6.2524   -2.8730   -0.5161 C   0  0  0  0  0  0  0  0  0  0  0  0
   -6.4544   -6.6502   -7.0770 C   0  0  0  0  0  0  0  0  0  0  0  0
   -2.5577   -6.9761   -1.0302 C   0  0  0  0  0  0  0  0  0  0  0  0
   -6.2021   -9.7288   -7.6248 C   0  0  0  0  0  0  0  0  0  0  0  0
   -1.9476   -6.9554    1.2955 C   0  0  0  0  0  0  0  0  0  0  0  0
   -6.9165   -1.6110    0.0327 C   0  0  0  0  0  0  0  0  0  0  0  0
   -3.0940   -7.6938    1.6202 C   0  0  0  0  0  0  0  0  0  0  0  0
   -1.6743   -6.5979   -0.0225 C   0  0  0  0  0  0  0  0  0  0  0  0
   -5.7673   -9.2742   -6.3132 C   0  0  2  0  0  0  0  0  0  0  0  0
   -7.2661   -5.4179   -6.5413 C   0  0  2  0  0  0  0  0  0  0  0  0
   -8.3029   -1.4986    0.1595 C   0  0  0  0  0  0  0  0  0  0  0  0
   -9.5642   -3.6433   -6.8102 C   0  0  0  0  0  0  0  0  0  0  0  0
  1  4  1  1
  1  7  1  0
  1  2  1  0
  2 13  1  0
  3  7  2  0
  4 15  1  0
  5 27  3  0
  6 13  2  0
  7  8  1  0
  8 19  1  0
 32  9  1  1
 10 18  2  0
 10 16  1  0
 11 23  1  0
 11 35  1  0
 12 23  2  0
 13 17  1  0
 14 21  1  0
 14 35  1  0
 15 20  2  0
 15 26  1  0
 16 22  2  0
 17 24  2  3
 18 34  1  0
 19 25  1  6
 19 32  1  0
 20 30  1  0
 21 33  1  0
 22 29  1  0
 23 33  1  0
 24 29  1  0
 33 25  1  6
 26 31  2  0
 27 32  1  0
 28 30  2  0
 28 31  1  0
 29 34  2  0
A    1
 C1 
A    2
 N1 
A    3
 O1 
A    4
 C2 
A    5
 N2 
A    6
 O2 
A    7
 C3 
A    8
 N3 
A    9
 O3 
A   10
 C4 
A   11
 N4 
A   12
 O4 
A   13
 C5 
A   14
 C6 
A   15
 C7 
A   16
 C8 
A   17
 C9 
A   18
 C10
A   19
 C11
A   20
 C12
A   21
 C13
A   22
 C14
A   23
 C15
A   24
 C16
A   25
 C17
A   26
 C18
A   27
 C19
A   28
 C20
A   29
 C21
A   30
 C22
A   31
 C23
A   32
 C24
A   33
 C25
A   34
 C26
A   35
 C27
M  END
>  <ref_pdb>  (8) 
X0147_0A

>  <ref_mols>  (8) 
x0147

>  <original SMILES>  (8) 
N#C[C@H](O)[C@H](C[C@@H]1CCCNC1=O)NC(=O)[C@H](Cc1ccccc1)NC(=O)C=Cc1ccccc1

$$$$
4DCD_A_DTT
     RDKit          3D

  4  3  0  0  0  0  0  0  0  0999 V2000
    2.7643   -3.1478  -37.6822 C   0  0  0  0  0  0  0  0  0  0  0  0
    3.0902   -3.3622  -35.9153 S   0  0  0  0  0  0  0  0  0  0  0  0
    3.6699   -2.0997  -38.3196 C   0  0  0  0  0  0  0  0  0  0  0  0
    2.8681   -1.1049  -38.9655 O   0  0  0  0  0  0  0  0  0  0  0  0
  1  3  1  0
  1  2  1  0
  3  4  1  0
A    1
 C1 
A    2
 S1 
A    3
 C2 
A    4
 O2 
M  END
>  <ref_pdb>  (9) 
X0147_0A

>  <ref_mols>  (9) 
x0147

>  <original SMILES>  (9) 
OCCS

$$$$
4DCD_A_K36
     RDKit          3D

 30 31  0  0  0  0  0  0  0  0999 V2000
   -7.2956   -1.0435   -1.5423 C   0  0  0  0  0  0  0  0  0  0  0  0
   -6.0678   -0.7161   -2.0853 C   0  0  0  0  0  0  0  0  0  0  0  0
   -5.4663    0.4940   -1.7605 C   0  0  0  0  0  0  0  0  0  0  0  0
   -6.0923    1.3551   -0.8653 C   0  0  0  0  0  0  0  0  0  0  0  0
   -7.3169    1.0204   -0.3061 C   0  0  0  0  0  0  0  0  0  0  0  0
   -7.9264   -0.1839   -0.6479 C   0  0  0  0  0  0  0  0  0  0  0  0
   -7.9302   -2.3584   -1.9280 C   0  0  0  0  0  0  0  0  0  0  0  0
   -7.1556   -3.4296   -1.3702 O   0  0  0  0  0  0  0  0  0  0  0  0
   -6.3565   -4.2436   -2.2560 C   0  0  0  0  0  0  0  0  0  0  0  0
   -6.1703   -3.9225   -3.4260 O   0  0  0  0  0  0  0  0  0  0  0  0
   -5.8191   -5.3663   -1.7000 N   0  0  0  0  0  0  0  0  0  0  0  0
   -5.3530   -6.5164   -2.4691 C   0  0  1  0  0  0  0  0  0  0  0  0
   -4.6508   -7.6283   -1.6845 C   0  0  0  0  0  0  0  0  0  0  0  0
   -3.7663   -7.1112   -0.5535 C   0  0  0  0  0  0  0  0  0  0  0  0
   -3.6134   -8.1768    0.5227 C   0  0  0  0  0  0  0  0  0  0  0  0
   -2.4116   -6.6832   -1.0770 C   0  0  0  0  0  0  0  0  0  0  0  0
   -6.1151   -6.9750   -3.6797 C   0  0  2  0  0  0  0  0  0  0  0  0
   -7.3137   -7.2091   -3.5507 O   0  0  0  0  0  0  0  0  0  0  0  0
   -5.4566   -7.1975   -4.8584 N   0  0  0  0  0  0  0  0  0  0  0  0
   -6.1877   -7.6355   -6.0680 C   0  0  2  0  0  0  0  0  0  0  0  0
   -5.4960   -8.7998   -6.7685 C   0  0  2  0  0  0  0  0  0  0  0  0
   -5.4869   -9.9470   -5.9198 O   0  0  0  0  0  0  0  0  0  0  0  0
   -6.2548   -6.4790   -7.0612 C   0  0  0  0  0  0  0  0  0  0  0  0
   -7.0461   -5.3154   -6.5197 C   0  0  2  0  0  0  0  0  0  0  0  0
   -8.4993   -5.6196   -6.1885 C   0  0  0  0  0  0  0  0  0  0  0  0
   -9.2469   -4.3388   -6.5342 C   0  0  0  0  0  0  0  0  0  0  0  0
   -8.4309   -3.6825   -7.5592 N   0  0  0  0  0  0  0  0  0  0  0  0
   -7.2014   -4.2592   -7.5488 C   0  0  0  0  0  0  0  0  0  0  0  0
   -6.3440   -3.9247   -8.3591 O   0  0  0  0  0  0  0  0  0  0  0  0
   -3.6896   -8.2961   -6.9883 R   0  0  0  0  0  0  0  0  0  0  0  0
  1  2  1  0
  1  6  1  0
  1  7  1  0
  2  3  1  0
  3  4  1  0
  4  5  1  0
  5  6  1  0
  7  8  1  0
  8  9  1  0
  9 10  1  0
  9 11  1  0
 11 12  1  0
 12 13  1  1
 12 17  1  0
 13 14  1  0
 14 15  1  0
 14 16  1  0
 17 18  1  1
 17 19  1  0
 19 20  1  0
 20 21  1  0
 20 23  1  6
 21 22  1  0
 21 30  1  1
 24 23  1  6
 24 25  1  0
 24 28  1  0
 25 26  1  0
 26 27  1  0
 27 28  1  0
 28 29  1  0
V   30 *
A    1
 C1 
A    2
 C2 
A    3
 C3 
A    4
 C4 
A    5
 C5 
A    6
 C6 
A    7
 C7 
A    8
 O8 
A    9
 C9 
A   10
 O10
A   11
 N11
A   12
 C12
A   13
 C13
A   14
 C14
A   15
 C15
A   16
 C16
A   17
 C17
A   18
 O18
A   19
 N19
A   20
 C20
A   21
 C21
A   22
 O22
A   23
 C24
A   24
 C25
A   25
 C26
A   26
 C27
A   27
 N28
A   28
 C29
A   29
 O30
A   30
 X  
M  END
>  <ref_pdb>  (10) 
X0147_0A

>  <ref_mols>  (10) 
x0147

>  <original SMILES>  (10) 
*[C@@H](O)[C@H](C[C@@H]1CCNC1O)N[C@@H](O)[C@H](CC(C)C)NC(O)OCC1CCCCC1

$$$$
3SJO_A_AG7
     RDKit          3D

 44 46  0  0  0  0  0  0  0  0999 V2000
  -34.3101  -51.0861   -8.2771 C   0  0  0  0  0  0  0  0  0  0  0  0
  -30.4626  -51.4502   -5.6831 C   0  0  0  0  0  0  0  0  0  0  0  0
  -34.9638  -49.9510   -9.0649 C   0  0  0  0  0  0  0  0  0  0  0  0
  -29.1244  -50.9439   -5.0762 C   0  0  0  0  0  0  0  0  0  0  0  0
  -28.9905  -51.5511   -3.7646 C   0  0  0  0  0  0  0  0  0  0  0  0
  -34.8261  -51.4786   -7.2550 O   0  0  0  0  0  0  0  0  0  0  0  0
  -36.4662  -49.7738   -8.8789 C   0  0  1  0  0  0  0  0  0  0  0  0
  -27.8532  -51.3576   -2.7986 C   0  0  0  0  0  0  0  0  0  0  0  0
  -30.1359  -52.3826   -3.5379 O   0  0  0  0  0  0  0  0  0  0  0  0
  -37.1305  -48.7774   -9.8188 C   0  0  0  0  0  0  0  0  0  0  0  0
  -31.0478  -52.2871   -4.7701 N   0  0  0  0  0  0  0  0  0  0  0  0
  -36.4642  -47.4305   -9.9497 C   0  0  0  0  0  0  0  0  0  0  0  0
  -36.5552  -46.4615   -8.8369 C   0  0  0  0  0  0  0  0  0  0  0  0
  -35.9010  -45.1308   -8.9599 C   0  0  0  0  0  0  0  0  0  0  0  0
  -35.2034  -44.8115  -10.1239 C   0  0  0  0  0  0  0  0  0  0  0  0
  -35.1090  -45.7985  -11.2510 C   0  0  0  0  0  0  0  0  0  0  0  0
  -35.7524  -47.1142  -11.1304 C   0  0  0  0  0  0  0  0  0  0  0  0
  -38.1149  -51.3011   -7.6424 N   0  0  0  0  0  0  0  0  0  0  0  0
  -39.0926  -52.4024   -7.5821 C   0  0  1  0  0  0  0  0  0  0  0  0
  -38.7834  -53.3447   -6.4281 C   0  0  0  0  0  0  0  0  0  0  0  0
  -37.4443  -54.0769   -6.5968 C   0  0  1  0  0  0  0  0  0  0  0  0
  -36.8669  -54.8871   -5.4186 C   0  0  0  0  0  0  0  0  0  0  0  0
  -36.3074  -56.1798   -5.9769 N   0  0  0  0  0  0  0  0  0  0  0  0
  -37.5007  -54.8858   -4.2137 O   0  0  0  0  0  0  0  0  0  0  0  0
  -40.5424  -51.9647   -7.6237 C   0  0  2  0  0  0  0  0  0  0  0  0
  -41.0120  -51.2565   -8.8918 C   0  0  0  0  0  0  0  0  0  0  0  0
  -41.0441  -52.0975  -10.1608 C   0  0  0  0  0  0  0  0  0  0  0  0
  -40.9757  -51.5125  -11.3212 O   0  0  0  0  0  0  0  0  0  0  0  0
  -40.9554  -53.3442  -10.0689 O   0  0  0  0  0  0  0  0  0  0  0  0
  -37.2440  -51.0973   -8.8029 C   0  0  0  0  0  0  0  0  0  0  0  0
  -37.2985  -51.8292   -9.7796 O   0  0  0  0  0  0  0  0  0  0  0  0
  -41.2180  -52.2276  -12.5018 C   0  0  0  0  0  0  0  0  0  0  0  0
  -41.5743  -51.4274  -13.7331 C   0  0  0  0  0  0  0  0  0  0  0  0
  -32.9443  -51.6690   -8.6806 C   0  0  1  0  0  0  0  0  0  0  0  0
  -32.1526  -51.9839   -7.4924 N   0  0  0  0  0  0  0  0  0  0  0  0
  -31.0949  -51.1130   -7.0165 C   0  0  0  0  0  0  0  0  0  0  0  0
  -30.7847  -50.1016   -7.6354 O   0  0  0  0  0  0  0  0  0  0  0  0
  -33.0215  -52.8426   -9.6404 C   0  0  0  0  0  0  0  0  0  0  0  0
  -33.9433  -53.9355   -9.1840 C   0  0  0  0  0  0  0  0  0  0  0  0
  -31.6646  -53.3614  -10.0111 C   0  0  0  0  0  0  0  0  0  0  0  0
  -36.2314  -56.0112   -7.4705 C   0  0  0  0  0  0  0  0  0  0  0  0
  -37.1693  -54.8566   -7.8616 C   0  0  0  0  0  0  0  0  0  0  0  0
  -40.5751  -50.7649   -6.2753 R   0  0  0  0  0  0  0  0  0  0  0  0
  -34.6146  -43.6218  -10.2422 F   0  0  0  0  0  0  0  0  0  0  0  0
  1  3  1  0
  1  6  2  0
  1 34  1  0
  2  4  1  0
  2 11  2  0
  2 36  1  0
  7  3  1  6
  4  5  2  0
  5  8  1  0
  5  9  1  0
  7 10  1  0
  7 30  1  0
  9 11  1  0
 10 12  1  0
 12 13  2  0
 12 17  1  0
 13 14  1  0
 14 15  2  0
 15 16  1  0
 15 44  1  0
 16 17  2  0
 18 19  1  0
 18 30  1  0
 19 20  1  1
 19 25  1  0
 21 20  1  1
 21 22  1  0
 21 42  1  0
 22 23  1  0
 22 24  2  0
 23 41  1  0
 25 26  1  0
 25 43  1  1
 26 27  1  0
 27 28  1  0
 27 29  2  0
 28 32  1  0
 30 31  2  0
 32 33  1  0
 34 35  1  1
 34 38  1  0
 35 36  1  0
 36 37  2  0
 38 39  1  0
 38 40  1  0
 41 42  1  0
V   43 *
A    1
 C01
A    2
 C1 
A    3
 C02
A    4
 C2 
A    5
 C3 
A    6
 O03
A    7
 C04
A    8
 C4 
A    9
 O4 
A   10
 C05
A   11
 N5 
A   12
 C06
A   13
 C07
A   14
 C08
A   15
 C09
A   16
 C10
A   17
 C11
A   18
 N12
A   19
 C13
A   20
 C14
A   21
 C15
A   22
 C16
A   23
 N17
A   24
 O18
A   25
 C19
A   26
 C20
A   27
 C21
A   28
 O22
A   29
 O23
A   30
 C47
A   31
 O48
A   32
 C50
A   33
 C53
A   34
 C57
A   35
 N58
A   36
 C59
A   37
 O60
A   38
 C78
A   39
 C81
A   40
 C82
A   41
 C83
A   42
 C84
A   43
 X  
A   44
 F1 
M  END
>  <ref_pdb>  (11) 
X0147_0A

>  <ref_mols>  (11) 
x0147

>  <original SMILES>  (11) 
*[C@@H](CC(=O)OCC)[C@H](C[C@@H]1CCNC1=O)NC(=O)[C@@H](CC(=O)[C@@H](NC(=O)c1cc(C)on1)C(C)C)Cc1ccc(F)cc1

$$$$
5DP5_A_5E9
     RDKit          3D

 36 37  0  0  0  0  0  0  0  0999 V2000
   -5.7538   -7.0700   -5.1000 N   0  0  0  0  0  0  0  0  0  0  0  0
   -6.8760   -4.3027   -2.4128 C   0  0  0  0  0  0  0  0  0  0  0  0
   -6.6073   -3.9960   -3.5785 O   0  0  0  0  0  0  0  0  0  0  0  0
   -8.5870   -3.3226   -7.8374 N   0  0  0  0  0  0  0  0  0  0  0  0
   -6.4158   -3.6443   -8.5934 O   0  0  0  0  0  0  0  0  0  0  0  0
   -5.7576   -6.6684   -2.6803 C   0  0  1  0  0  0  0  0  0  0  0  0
   -7.7686   -1.9416   -2.2443 N   0  0  0  0  0  0  0  0  0  0  0  0
   -8.0384  -10.5381   -4.8963 O   0  0  0  0  0  0  0  0  0  0  0  0
   -5.4987   -8.0130   -2.0185 C   0  0  0  0  0  0  0  0  0  0  0  0
   -8.0507  -10.2384   -7.1542 O   0  0  0  0  0  0  0  0  0  0  0  0
   -4.6400   -8.0062   -0.7663 C   0  0  0  0  0  0  0  0  0  0  0  0
   -7.7126   -7.1319   -3.9589 O   0  0  0  0  0  0  0  0  0  0  0  0
   -5.2246   -8.2835    0.4731 C   0  0  0  0  0  0  0  0  0  0  0  0
   -4.4667   -8.2994    1.6361 C   0  0  0  0  0  0  0  0  0  0  0  0
   -3.1015   -8.0298    1.5887 C   0  0  0  0  0  0  0  0  0  0  0  0
   -2.5048   -7.7756    0.3403 C   0  0  0  0  0  0  0  0  0  0  0  0
   -3.2823   -7.7680   -0.8267 C   0  0  0  0  0  0  0  0  0  0  0  0
   -6.4257   -7.3706   -6.3973 C   0  0  1  0  0  0  0  0  0  0  0  0
   -6.4417   -6.1851   -7.3185 C   0  0  0  0  0  0  0  0  0  0  0  0
   -7.2932   -4.9929   -6.8117 C   0  0  1  0  0  0  0  0  0  0  0  0
   -7.3622   -3.9017   -7.8397 C   0  0  0  0  0  0  0  0  0  0  0  0
   -5.6514   -8.5582   -6.9716 C   0  0  0  0  0  0  0  0  0  0  0  0
   -5.9359   -9.7676   -6.0937 C   0  0  0  0  0  0  0  0  0  0  0  0
   -7.3911  -10.1741   -6.1263 C   0  0  0  0  0  0  0  0  0  0  0  0
   -6.4895   -6.9900   -3.9713 C   0  0  0  0  0  0  0  0  0  0  0  0
   -8.8586  -11.6946   -5.0127 C   0  0  0  0  0  0  0  0  0  0  0  0
   -7.9597  -12.8977   -5.2770 C   0  0  0  0  0  0  0  0  0  0  0  0
   -7.6751   -3.2870   -1.5852 C   0  0  1  0  0  0  0  0  0  0  0  0
   -6.5055   -5.6466   -1.7753 C   0  0  0  0  0  0  0  0  0  0  0  0
   -9.0988   -3.8125   -1.3143 C   0  0  0  0  0  0  0  0  0  0  0  0
   -9.9307   -2.7968   -0.5452 C   0  0  0  0  0  0  0  0  0  0  0  0
   -9.8108   -4.2164   -2.6054 C   0  0  0  0  0  0  0  0  0  0  0  0
   -9.5557   -4.0358   -7.0157 C   0  0  0  0  0  0  0  0  0  0  0  0
   -8.7684   -5.2831   -6.5610 C   0  0  0  0  0  0  0  0  0  0  0  0
   -3.9082   -8.2756   -7.0472 R   0  0  0  0  0  0  0  0  0  0  0  0
   -2.3540   -8.0605    2.7202 F   0  0  0  0  0  0  0  0  0  0  0  0
  1 18  1  0
  1 25  1  0
  2  3  2  0
  2 28  1  0
  2 29  1  0
  4 21  1  0
  4 33  1  0
  5 21  2  0
  6  9  1  1
  6 25  1  0
  6 29  1  0
 28  7  1  6
  8 26  1  0
  8 24  1  0
  9 11  1  0
 10 24  2  0
 11 13  2  0
 11 17  1  0
 12 25  2  0
 13 14  1  0
 14 15  2  0
 15 16  1  0
 15 36  1  0
 16 17  2  0
 18 19  1  6
 18 22  1  0
 20 19  1  6
 20 21  1  0
 20 34  1  0
 22 23  2  3
 22 35  1  0
 23 24  1  0
 26 27  1  0
 28 30  1  0
 30 31  1  0
 30 32  1  0
 33 34  1  0
V   35 *
A    1
 N  
A    2
 C  
A    3
 O  
A    4
 N1 
A    5
 O1 
A    6
 C2 
A    7
 N2 
A    8
 O2 
A    9
 C3 
A   10
 O3 
A   11
 C4 
A   12
 O4 
A   13
 C5 
A   14
 C6 
A   15
 C7 
A   16
 C8 
A   17
 C9 
A   18
 C10
A   19
 C11
A   20
 C12
A   21
 C13
A   22
 C14
A   23
 C15
A   24
 C16
A   25
 C17
A   26
 C18
A   27
 C19
A   28
 C20
A   29
 C21
A   30
 C22
A   31
 C23
A   32
 C24
A   33
 C25
A   34
 C26
A   35
 X  
A   36
 F1 
M  END
>  <ref_pdb>  (12) 
X0147_0A

>  <ref_mols>  (12) 
x0147

>  <original SMILES>  (12) 
*C(=CC(=O)OCC)[C@H](C[C@@H]1CCNC1=O)NC(=O)[C@@H](CC(=O)[C@@H](N)C(C)C)Cc1ccc(F)cc1

$$$$
5HXF_A_AG7
     RDKit          3D

 43 45  0  0  0  0  0  0  0  0999 V2000
   -6.7070   -4.3266   -2.2813 C   0  0  0  0  0  0  0  0  0  0  0  0
   -5.9742    0.2407   -1.4568 C   0  0  0  0  0  0  0  0  0  0  0  0
   -6.3641   -5.6967   -1.5543 C   0  0  0  0  0  0  0  0  0  0  0  0
   -5.2835    1.2392   -0.8119 C   0  0  0  0  0  0  0  0  0  0  0  0
   -5.1223    2.2503   -1.7062 C   0  0  0  0  0  0  0  0  0  0  0  0
   -6.3139   -4.0657   -3.3963 O   0  0  0  0  0  0  0  0  0  0  0  0
   -5.6095   -6.6460   -2.5071 C   0  0  1  0  0  0  0  0  0  0  0  0
   -4.4135    3.5577   -1.4537 C   0  0  0  0  0  0  0  0  0  0  0  0
   -5.7000    1.8947   -2.8668 O   0  0  0  0  0  0  0  0  0  0  0  0
   -5.2778   -7.9614   -1.7328 C   0  0  0  0  0  0  0  0  0  0  0  0
   -6.2322    0.6371   -2.6935 N   0  0  0  0  0  0  0  0  0  0  0  0
   -4.0604   -7.6081   -0.7627 C   0  0  0  0  0  0  0  0  0  0  0  0
   -4.2591   -7.6143    0.6172 C   0  0  0  0  0  0  0  0  0  0  0  0
   -3.2038   -7.3052    1.4692 C   0  0  0  0  0  0  0  0  0  0  0  0
   -1.9489   -6.9751    0.9329 C   0  0  0  0  0  0  0  0  0  0  0  0
   -1.7475   -6.9563   -0.4406 C   0  0  0  0  0  0  0  0  0  0  0  0
   -2.8146   -7.2749   -1.3018 C   0  0  0  0  0  0  0  0  0  0  0  0
   -5.7695   -7.0726   -4.9855 N   0  0  0  0  0  0  0  0  0  0  0  0
   -6.7013   -7.4002   -6.0738 C   0  0  1  0  0  0  0  0  0  0  0  0
   -6.4771   -6.3693   -7.1867 C   0  0  0  0  0  0  0  0  0  0  0  0
   -7.2962   -5.1504   -6.6712 C   0  0  1  0  0  0  0  0  0  0  0  0
   -7.2779   -3.9644   -7.7454 C   0  0  0  0  0  0  0  0  0  0  0  0
   -8.4634   -3.3337   -7.6466 N   0  0  0  0  0  0  0  0  0  0  0  0
   -6.3869   -3.6561   -8.4805 O   0  0  0  0  0  0  0  0  0  0  0  0
   -6.6826   -8.7825   -6.6841 C   0  0  0  0  0  0  0  0  0  0  0  0
   -6.1562   -9.8923   -5.7705 C   0  0  0  0  0  0  0  0  0  0  0  0
   -7.4883  -10.5791   -5.8677 C   0  0  0  0  0  0  0  0  0  0  0  0
   -8.0034  -11.3297   -4.8000 O   0  0  0  0  0  0  0  0  0  0  0  0
   -8.0963  -10.4295   -6.8980 O   0  0  0  0  0  0  0  0  0  0  0  0
   -6.4480   -6.9863   -3.6980 C   0  0  0  0  0  0  0  0  0  0  0  0
   -7.6076   -7.2165   -3.6772 O   0  0  0  0  0  0  0  0  0  0  0  0
   -8.5917  -12.5382   -5.2572 C   0  0  0  0  0  0  0  0  0  0  0  0
   -7.7174  -13.6477   -4.7356 C   0  0  0  0  0  0  0  0  0  0  0  0
   -7.5897   -3.2873   -1.5074 C   0  0  1  0  0  0  0  0  0  0  0  0
   -7.0998   -1.9939   -1.8247 N   0  0  0  0  0  0  0  0  0  0  0  0
   -6.4190   -1.1306   -0.8766 C   0  0  0  0  0  0  0  0  0  0  0  0
   -6.2207   -1.4447    0.2438 O   0  0  0  0  0  0  0  0  0  0  0  0
   -9.0805   -3.3696   -1.9596 C   0  0  0  0  0  0  0  0  0  0  0  0
   -9.6682   -4.8216   -1.8288 C   0  0  0  0  0  0  0  0  0  0  0  0
   -9.8820   -2.4341   -1.0271 C   0  0  0  0  0  0  0  0  0  0  0  0
   -9.3279   -4.0172   -6.5918 C   0  0  0  0  0  0  0  0  0  0  0  0
   -8.6252   -5.4354   -6.4315 C   0  0  0  0  0  0  0  0  0  0  0  0
   -0.9145   -6.6690    1.7744 F   0  0  0  0  0  0  0  0  0  0  0  0
  1  3  1  0
  1  6  2  0
  1 34  1  0
  2  4  1  0
  2 11  2  0
  2 36  1  0
  7  3  1  1
  4  5  2  0
  5  8  1  0
  5  9  1  0
  7 10  1  0
  7 30  1  0
  9 11  1  0
 10 12  1  0
 12 13  2  0
 12 17  1  0
 13 14  1  0
 14 15  2  0
 15 16  1  0
 15 43  1  0
 16 17  2  0
 18 19  1  0
 18 30  1  0
 19 20  1  6
 19 25  1  0
 21 20  1  6
 21 22  1  0
 21 42  1  0
 22 23  1  0
 22 24  2  0
 23 41  1  0
 25 26  1  0
 26 27  1  0
 27 28  1  0
 27 29  2  0
 28 32  1  0
 30 31  2  0
 32 33  1  0
 34 35  1  6
 34 38  1  0
 35 36  1  0
 36 37  2  0
 38 39  1  0
 38 40  1  0
 41 42  1  0
A    1
 C01
A    2
 C1 
A    3
 C02
A    4
 C2 
A    5
 C3 
A    6
 O03
A    7
 C04
A    8
 C4 
A    9
 O4 
A   10
 C05
A   11
 N5 
A   12
 C06
A   13
 C07
A   14
 C08
A   15
 C09
A   16
 C10
A   17
 C11
A   18
 N12
A   19
 C13
A   20
 C14
A   21
 C15
A   22
 C16
A   23
 N17
A   24
 O18
A   25
 C19
A   26
 C20
A   27
 C21
A   28
 O22
A   29
 O23
A   30
 C47
A   31
 O48
A   32
 C50
A   33
 C53
A   34
 C57
A   35
 N58
A   36
 C59
A   37
 O60
A   38
 C78
A   39
 C81
A   40
 C82
A   41
 C83
A   42
 C84
A   43
 F1 
M  END
>  <ref_pdb>  (13) 
X0147_0A

>  <ref_mols>  (13) 
x0147

>  <original SMILES>  (13) 
CCOC(=O)CC[C@H](C[C@@H]1CCNC1=O)NC(=O)[C@@H](CC(=O)[C@@H](NC(=O)c1cc(C)on1)C(C)C)Cc1ccc(F)cc1

$$$$
7DNC_A_FHR
     RDKit          3D

 34 37  0  0  0  0  0  0  0  0999 V2000
   -6.4181   -4.1099   -3.5163 O   0  0  0  0  0  0  0  0  0  0  0  0
   -6.7293   -4.4939   -2.3830 C   0  0  0  0  0  0  0  0  0  0  0  0
   -7.7194   -3.7783   -1.5767 C   0  0  0  0  0  0  0  0  0  0  0  0
   -8.1448   -3.9295   -0.2804 C   0  0  0  0  0  0  0  0  0  0  0  0
   -9.1536   -2.9582   -0.0605 C   0  0  0  0  0  0  0  0  0  0  0  0
   -9.9680   -2.6057    1.0307 C   0  0  0  0  0  0  0  0  0  0  0  0
  -10.8687   -1.5787    0.8854 C   0  0  0  0  0  0  0  0  0  0  0  0
  -11.0019   -0.8921   -0.3182 C   0  0  0  0  0  0  0  0  0  0  0  0
  -10.2222   -1.2009   -1.4099 C   0  0  0  0  0  0  0  0  0  0  0  0
   -9.3015   -2.2358   -1.2685 C   0  0  0  0  0  0  0  0  0  0  0  0
   -8.4176   -2.7560   -2.1746 N   0  0  0  0  0  0  0  0  0  0  0  0
   -6.2285   -5.6292   -1.8595 N   0  0  0  0  0  0  0  0  0  0  0  0
   -5.3819   -6.4848   -2.6622 C   0  0  1  0  0  0  0  0  0  0  0  0
   -4.7887   -7.6172   -1.8199 C   0  0  0  0  0  0  0  0  0  0  0  0
   -3.7990   -7.1263   -0.7932 C   0  0  0  0  0  0  0  0  0  0  0  0
   -2.6135   -6.5234   -1.1735 C   0  0  0  0  0  0  0  0  0  0  0  0
   -1.7039   -6.0752   -0.2276 C   0  0  0  0  0  0  0  0  0  0  0  0
   -1.9660   -6.2354    1.1124 C   0  0  0  0  0  0  0  0  0  0  0  0
   -3.1369   -6.8342    1.5066 C   0  0  0  0  0  0  0  0  0  0  0  0
   -4.0477   -7.2821    0.5612 C   0  0  0  0  0  0  0  0  0  0  0  0
   -6.1874   -7.0454   -3.8271 C   0  0  0  0  0  0  0  0  0  0  0  0
   -5.5417   -7.1302   -4.9926 N   0  0  0  0  0  0  0  0  0  0  0  0
   -6.1713   -7.5915   -6.2177 C   0  0  1  0  0  0  0  0  0  0  0  0
   -6.3529   -6.4636   -7.2356 C   0  0  0  0  0  0  0  0  0  0  0  0
   -7.2578   -5.3171   -6.7576 C   0  0  2  0  0  0  0  0  0  0  0  0
   -8.7114   -5.6406   -6.4299 C   0  0  0  0  0  0  0  0  0  0  0  0
   -9.4330   -4.3222   -6.6682 C   0  0  0  0  0  0  0  0  0  0  0  0
   -8.6220   -3.7112   -7.7198 N   0  0  0  0  0  0  0  0  0  0  0  0
   -7.3883   -4.2073   -7.7812 C   0  0  0  0  0  0  0  0  0  0  0  0
   -6.4873   -3.8270   -8.5487 O   0  0  0  0  0  0  0  0  0  0  0  0
   -5.3658   -8.7876   -6.7624 C   0  0  0  0  0  0  0  0  0  0  0  0
   -5.4727   -9.8549   -6.1255 O   0  0  0  0  0  0  0  0  0  0  0  0
   -7.3542   -7.3932   -3.6691 O   0  0  0  0  0  0  0  0  0  0  0  0
   -3.7353   -8.2109   -7.1682 R   0  0  0  0  0  0  0  0  0  0  0  0
  1  2  2  0
  2  3  1  0
  2 12  1  0
  3 11  1  0
  3  4  2  0
  4  5  1  0
  5  6  2  0
  5 10  1  0
  6  7  1  0
  7  8  2  0
  8  9  1  0
  9 10  2  0
 10 11  1  0
 12 13  1  0
 13 14  1  1
 13 21  1  0
 14 15  1  0
 15 16  1  0
 15 20  1  0
 16 17  1  0
 17 18  1  0
 18 19  1  0
 19 20  1  0
 21 22  1  0
 21 33  2  0
 22 23  1  0
 23 31  1  0
 23 24  1  6
 25 24  1  6
 25 26  1  0
 25 29  1  0
 26 27  1  0
 27 28  1  0
 28 29  1  0
 29 30  2  0
 31 32  2  0
 31 34  1  0
V   34 *
A    1
 O01
A    2
 C02
A    3
 C03
A    4
 C04
A    5
 C05
A    6
 C06
A    7
 C07
A    8
 C08
A    9
 C09
A   10
 C10
A   11
 N11
A   12
 N12
A   13
 C13
A   14
 C14
A   15
 C15
A   16
 C16
A   17
 C17
A   18
 C18
A   19
 C19
A   20
 C20
A   21
 C21
A   22
 N22
A   23
 C23
A   24
 C24
A   25
 C25
A   26
 C26
A   27
 C27
A   28
 N28
A   29
 C29
A   30
 O30
A   31
 C31
A   32
 O32
A   33
 O33
A   34
 X  
M  END
>  <ref_pdb>  (14) 
X0147_0A

>  <ref_mols>  (14) 
x0147

>  <original SMILES>  (14) 
*C(=O)[C@H](C[C@@H]1CCNC1=O)NC(=O)[C@H](CC1CCCCC1)NC(=O)c1cc2ccccc2[nH]1

$$$$
7QUB_AAA_I70
     RDKit          3D

 40 42  0  0  0  0  0  0  0  0999 V2000
   -6.6371   -9.9584   -7.9029 C   0  0  0  0  0  0  0  0  0  0  0  0
   -6.8759  -11.3602   -7.6446 N   0  0  0  0  0  0  0  0  0  0  0  0
   -6.9912   -9.4673   -8.9612 O   0  0  0  0  0  0  0  0  0  0  0  0
   -5.0254   -0.1086   -2.0204 C   0  0  0  0  0  0  0  0  0  0  0  0
   -5.9399   -9.1756   -6.8012 C   0  0  2  0  0  0  0  0  0  0  0  0
   -6.3652   -0.7142   -2.1476 N   0  0  0  0  0  0  0  0  0  0  0  0
   -6.7168   -1.9565   -1.7694 C   0  0  0  0  0  0  0  0  0  0  0  0
   -5.8627  -10.0187   -5.6319 O   0  0  0  0  0  0  0  0  0  0  0  0
   -7.9223   -2.3585   -2.2124 N   0  0  0  0  0  0  0  0  0  0  0  0
   -8.3328   -3.7393   -2.1260 C   0  0  2  0  0  0  0  0  0  0  0  0
   -7.2645   -4.5541   -2.8534 C   0  0  0  0  0  0  0  0  0  0  0  0
   -7.1578   -6.0548   -0.8348 C   0  0  0  0  0  0  0  0  0  0  0  0
   -6.8175   -5.6393   -2.2081 N   0  0  0  0  0  0  0  0  0  0  0  0
   -5.9690   -6.5882   -2.9269 C   0  0  2  0  0  0  0  0  0  0  0  0
   -6.7630   -7.2344   -4.0576 C   0  0  2  0  0  0  0  0  0  0  0  0
   -6.2882   -7.2924   -0.6151 C   0  0  2  0  0  0  0  0  0  0  0  0
   -6.0818   -7.3618   -5.1941 N   0  0  0  0  0  0  0  0  0  0  0  0
   -6.6890   -7.8743   -6.4231 C   0  0  1  0  0  0  0  0  0  0  0  0
   -4.7821   -7.1893   -0.6893 C   0  0  0  0  0  0  0  0  0  0  0  0
   -6.6776   -6.7538   -7.4606 C   0  0  0  0  0  0  0  0  0  0  0  0
   -7.6752   -5.6348   -7.1525 C   0  0  2  0  0  0  0  0  0  0  0  0
   -9.1271   -6.0912   -7.0759 C   0  0  0  0  0  0  0  0  0  0  0  0
   -9.9526   -4.9520   -7.6704 C   0  0  0  0  0  0  0  0  0  0  0  0
   -4.1162   -5.8326   -0.6795 C   0  0  0  0  0  0  0  0  0  0  0  0
   -8.9533   -4.1549   -8.3689 N   0  0  0  0  0  0  0  0  0  0  0  0
   -7.6992   -4.5691   -8.2226 C   0  0  0  0  0  0  0  0  0  0  0  0
   -3.9702   -8.2205    0.0717 C   0  0  0  0  0  0  0  0  0  0  0  0
  -10.3269   -5.3540   -2.2341 C   0  0  0  0  0  0  0  0  0  0  0  0
   -6.7008   -4.1233   -8.8404 O   0  0  0  0  0  0  0  0  0  0  0  0
   -4.0350   -0.9661   -2.8051 C   0  0  0  0  0  0  0  0  0  0  0  0
   -5.1576    1.2752   -2.6376 C   0  0  0  0  0  0  0  0  0  0  0  0
   -4.5968    0.0218   -0.5587 C   0  0  0  0  0  0  0  0  0  0  0  0
   -6.0201   -2.6684   -1.0453 O   0  0  0  0  0  0  0  0  0  0  0  0
   -9.8023   -3.9540   -2.5869 C   0  0  0  0  0  0  0  0  0  0  0  0
  -10.6943   -2.9449   -1.8602 C   0  0  0  0  0  0  0  0  0  0  0  0
   -9.9278   -3.7565   -4.0974 C   0  0  0  0  0  0  0  0  0  0  0  0
   -6.8453   -4.2399   -3.9798 O   0  0  0  0  0  0  0  0  0  0  0  0
   -5.5637   -7.6191   -1.9063 C   0  0  2  0  0  0  0  0  0  0  0  0
   -7.9636   -7.5000   -3.9345 O   0  0  0  0  0  0  0  0  0  0  0  0
   -4.2485   -8.6062   -7.3816 R   0  0  0  0  0  0  0  0  0  0  0  0
  1  2  1  0
  1  3  1  0
  1  5  1  0
  4  6  1  0
  4 30  1  0
  4 31  1  0
  4 32  1  0
  5  8  1  0
  5 18  1  0
  5 40  1  6
  6  7  1  0
  7  9  1  0
  7 33  1  0
 10  9  1  6
 10 11  1  0
 10 34  1  0
 11 13  1  0
 11 37  1  0
 12 13  1  0
 16 12  1  6
 14 13  1  1
 14 15  1  0
 38 14  1  0
 15 17  1  0
 15 39  1  6
 16 19  1  0
 16 38  1  0
 17 18  1  0
 18 20  1  6
 19 24  1  0
 19 27  1  0
 38 19  1  1
 21 20  1  6
 21 22  1  0
 21 26  1  0
 22 23  1  0
 23 25  1  0
 25 26  1  0
 26 29  1  0
 34 28  1  0
 34 35  1  0
 34 36  1  0
V   40 *
A    1
 C1 
A    2
 N2 
A    3
 O5 
A    4
 C7 
A    5
 C8 
A    6
 N8 
A    7
 C9 
A    8
 O9 
A    9
 N10
A   10
 C11
A   11
 C12
A   12
 C13
A   13
 N13
A   14
 C14
A   15
 C15
A   16
 C16
A   17
 N16
A   18
 C17
A   19
 C18
A   20
 C19
A   21
 C20
A   22
 C21
A   23
 C22
A   24
 C23
A   25
 N23
A   26
 C24
A   27
 C25
A   28
 C26
A   29
 O26
A   30
 C27
A   31
 C28
A   32
 C29
A   33
 O29
A   34
 C30
A   35
 C31
A   36
 C32
A   37
 O33
A   38
 C34
A   39
 O38
A   40
 X  
M  END
>  <ref_pdb>  (15) 
X0147_0A

>  <ref_mols>  (15) 
x0147

>  <original SMILES>  (15) 
*[C@](O)(C(N)O)[C@H](C[C@@H]1CCNC1O)N[C@H](O)[C@@H]1[C@@H]2[C@H](CN1C(O)[C@@H](NC(O)NC(C)(C)C)C(C)(C)C)C2(C)C

$$$$
6KU8_A_AG7
     RDKit          3D

 38 39  0  0  0  0  0  0  0  0999 V2000
   -6.8258   -5.0340   -2.6364 C   0  0  0  0  0  0  0  0  0  0  0  0
   -7.3947   -0.5758   -1.3297 C   0  0  0  0  0  0  0  0  0  0  0  0
   -6.5845   -6.4725   -2.2148 C   0  0  0  0  0  0  0  0  0  0  0  0
   -6.5764   -4.5692   -3.7118 O   0  0  0  0  0  0  0  0  0  0  0  0
   -5.5954   -7.2395   -3.0837 C   0  0  1  0  0  0  0  0  0  0  0  0
   -5.2312   -8.4382   -2.2254 C   0  0  0  0  0  0  0  0  0  0  0  0
   -4.1842   -8.0532   -1.1682 C   0  0  0  0  0  0  0  0  0  0  0  0
   -3.0295   -7.3855   -1.5480 C   0  0  0  0  0  0  0  0  0  0  0  0
   -2.0844   -7.0341   -0.5981 C   0  0  0  0  0  0  0  0  0  0  0  0
   -2.2862   -7.3433    0.7422 C   0  0  0  0  0  0  0  0  0  0  0  0
   -3.4404   -8.0097    1.1275 C   0  0  0  0  0  0  0  0  0  0  0  0
   -4.3889   -8.3636    0.1757 C   0  0  0  0  0  0  0  0  0  0  0  0
   -5.7590   -7.5046   -5.6876 N   0  0  0  0  0  0  0  0  0  0  0  0
   -6.6386   -7.7975   -6.8322 C   0  0  1  0  0  0  0  0  0  0  0  0
   -6.4910   -6.5799   -7.7310 C   0  0  0  0  0  0  0  0  0  0  0  0
   -7.2581   -5.3529   -7.1064 C   0  0  1  0  0  0  0  0  0  0  0  0
   -7.4015   -4.2152   -8.2418 C   0  0  0  0  0  0  0  0  0  0  0  0
   -8.6011   -3.6666   -8.1330 N   0  0  0  0  0  0  0  0  0  0  0  0
   -6.5628   -3.9254   -9.0261 O   0  0  0  0  0  0  0  0  0  0  0  0
   -6.4593   -9.1008   -7.6217 C   0  0  0  0  0  0  0  0  0  0  0  0
   -5.9588  -10.2309   -6.7088 C   0  0  0  0  0  0  0  0  0  0  0  0
   -7.2747  -10.9231   -6.4337 C   0  0  0  0  0  0  0  0  0  0  0  0
   -7.5599  -11.4567   -5.1798 O   0  0  0  0  0  0  0  0  0  0  0  0
   -8.0660  -10.9532   -7.3119 O   0  0  0  0  0  0  0  0  0  0  0  0
   -6.3568   -7.5759   -4.3653 C   0  0  0  0  0  0  0  0  0  0  0  0
   -7.4953   -7.8901   -4.2877 O   0  0  0  0  0  0  0  0  0  0  0  0
   -8.8459  -11.9963   -5.1344 C   0  0  0  0  0  0  0  0  0  0  0  0
   -8.9551  -12.8687   -3.8853 C   0  0  0  0  0  0  0  0  0  0  0  0
   -7.4418   -4.2517   -1.4916 C   0  0  1  0  0  0  0  0  0  0  0  0
   -7.4682   -2.8788   -1.8176 N   0  0  0  0  0  0  0  0  0  0  0  0
   -7.2786   -1.9418   -0.7656 C   0  0  0  0  0  0  0  0  0  0  0  0
   -7.0815   -2.1865    0.3832 O   0  0  0  0  0  0  0  0  0  0  0  0
   -8.8940   -4.6761   -1.2628 C   0  0  0  0  0  0  0  0  0  0  0  0
   -9.5051   -4.0744    0.0095 C   0  0  0  0  0  0  0  0  0  0  0  0
   -9.7297   -4.2911   -2.4879 C   0  0  0  0  0  0  0  0  0  0  0  0
   -9.3636   -4.3345   -7.0014 C   0  0  0  0  0  0  0  0  0  0  0  0
   -8.5106   -5.6589   -6.7266 C   0  0  0  0  0  0  0  0  0  0  0  0
   -1.3475   -6.9870    1.6738 F   0  0  0  0  0  0  0  0  0  0  0  0
  1  3  1  0
  1  4  1  0
  1 29  1  0
  2 31  1  0
  5  3  1  1
  5  6  1  0
  5 25  1  0
  6  7  1  0
  7  8  1  0
  7 12  1  0
  8  9  1  0
  9 10  1  0
 10 11  1  0
 10 38  1  0
 11 12  1  0
 13 14  1  0
 13 25  1  0
 14 15  1  6
 14 20  1  0
 16 15  1  6
 16 17  1  0
 16 37  1  0
 17 18  1  0
 17 19  1  0
 18 36  1  0
 20 21  1  0
 21 22  1  0
 22 23  1  0
 22 24  1  0
 23 27  1  0
 25 26  1  0
 27 28  1  0
 29 30  1  6
 29 33  1  0
 30 31  1  0
 31 32  1  0
 33 34  1  0
 33 35  1  0
 36 37  1  0
A    1
 C01
A    2
 C1 
A    3
 C02
A    4
 O03
A    5
 C04
A    6
 C05
A    7
 C06
A    8
 C07
A    9
 C08
A   10
 C09
A   11
 C10
A   12
 C11
A   13
 N12
A   14
 C13
A   15
 C14
A   16
 C15
A   17
 C16
A   18
 N17
A   19
 O18
A   20
 C19
A   21
 C20
A   22
 C21
A   23
 O22
A   24
 O23
A   25
 C47
A   26
 O48
A   27
 C50
A   28
 C53
A   29
 C57
A   30
 N58
A   31
 C59
A   32
 O60
A   33
 C78
A   34
 C81
A   35
 C82
A   36
 C83
A   37
 C84
A   38
 F1 
M  END
>  <ref_pdb>  (16) 
X0147_0A

>  <ref_mols>  (16) 
x0147

>  <original SMILES>  (16) 
CCOC(O)CC[C@H](C[C@@H]1CCNC1O)NC(O)[C@H](CC1CCC(F)CC1)CC(O)[C@@H](NC(C)O)C(C)C

$$$$
3QZQ_A_AG7
     RDKit          3D

 44 46  0  0  0  0  0  0  0  0999 V2000
   10.4080   22.3074   -1.9134 C   0  0  0  0  0  0  0  0  0  0  0  0
    8.1781   18.5899   -3.9719 C   0  0  0  0  0  0  0  0  0  0  0  0
   11.7272   22.6603   -1.2072 C   0  0  0  0  0  0  0  0  0  0  0  0
    8.0888   17.1456   -4.1939 C   0  0  0  0  0  0  0  0  0  0  0  0
    6.6741   16.9020   -4.2929 C   0  0  0  0  0  0  0  0  0  0  0  0
    9.3132   22.4311   -1.3751 O   0  0  0  0  0  0  0  0  0  0  0  0
   11.4778   23.3419    0.1457 C   0  0  1  0  0  0  0  0  0  0  0  0
    6.0171   15.5690   -4.5246 C   0  0  0  0  0  0  0  0  0  0  0  0
    6.0733   18.0764   -4.1345 O   0  0  0  0  0  0  0  0  0  0  0  0
   12.8099   23.7318    0.7599 C   0  0  0  0  0  0  0  0  0  0  0  0
    6.9394   19.0570   -3.9468 N   0  0  0  0  0  0  0  0  0  0  0  0
   13.5619   22.4664    1.1559 C   0  0  0  0  0  0  0  0  0  0  0  0
   13.0400   21.6215    2.1237 C   0  0  0  0  0  0  0  0  0  0  0  0
   13.7337   20.4569    2.4761 C   0  0  0  0  0  0  0  0  0  0  0  0
   14.9468   20.1550    1.8477 C   0  0  0  0  0  0  0  0  0  0  0  0
   15.4728   20.9982    0.8774 C   0  0  0  0  0  0  0  0  0  0  0  0
   14.7794   22.1641    0.5269 C   0  0  0  0  0  0  0  0  0  0  0  0
    9.5520   24.8247    1.0541 N   0  0  0  0  0  0  0  0  0  0  0  0
    8.8256   26.1067    1.0654 C   0  0  1  0  0  0  0  0  0  0  0  0
    7.3604   25.9182    0.6892 C   0  0  0  0  0  0  0  0  0  0  0  0
    7.2362   25.3184   -0.7005 C   0  0  1  0  0  0  0  0  0  0  0  0
    5.8026   25.1544   -1.0717 C   0  0  0  0  0  0  0  0  0  0  0  0
    5.6486   25.5372   -2.4317 N   0  0  0  0  0  0  0  0  0  0  0  0
    4.8812   24.8171   -0.3431 O   0  0  0  0  0  0  0  0  0  0  0  0
    8.9757   26.8066    2.4132 C   0  0  2  0  0  0  0  0  0  0  0  0
   10.4446   26.9892    2.7179 C   0  0  0  0  0  0  0  0  0  0  0  0
   10.9791   28.1292    1.8627 C   0  0  0  0  0  0  0  0  0  0  0  0
   12.2025   28.1244    1.4757 O   0  0  0  0  0  0  0  0  0  0  0  0
   10.1944   28.9946    1.4088 O   0  0  0  0  0  0  0  0  0  0  0  0
   10.6211   24.6004    0.0692 C   0  0  0  0  0  0  0  0  0  0  0  0
   10.9120   25.4789   -0.7277 O   0  0  0  0  0  0  0  0  0  0  0  0
   12.6056   29.0127    0.4773 C   0  0  0  0  0  0  0  0  0  0  0  0
   13.9940   28.6427    0.0225 C   0  0  0  0  0  0  0  0  0  0  0  0
   10.5236   21.6082   -3.2878 C   0  0  1  0  0  0  0  0  0  0  0  0
    9.3240   20.8273   -3.5633 N   0  0  0  0  0  0  0  0  0  0  0  0
    9.4417   19.3968   -3.7978 C   0  0  0  0  0  0  0  0  0  0  0  0
   10.5244   18.8435   -3.8110 O   0  0  0  0  0  0  0  0  0  0  0  0
   10.8642   22.5692   -4.4260 C   0  0  0  0  0  0  0  0  0  0  0  0
   11.0115   21.7938   -5.7046 C   0  0  0  0  0  0  0  0  0  0  0  0
    9.8084   23.6148   -4.5644 C   0  0  0  0  0  0  0  0  0  0  0  0
    6.9641   25.8022   -2.9701 C   0  0  0  0  0  0  0  0  0  0  0  0
    7.8246   26.1785   -1.7805 C   0  0  0  0  0  0  0  0  0  0  0  0
    8.5779   25.4110    3.7777 R   0  0  0  0  0  0  0  0  0  0  0  0
   15.6031   19.0443    2.1878 F   0  0  0  0  0  0  0  0  0  0  0  0
  1  3  1  0
  1  6  2  0
  1 34  1  0
  2  4  1  0
  2 11  2  0
  2 36  1  0
  7  3  1  6
  4  5  2  0
  5  8  1  0
  5  9  1  0
  7 10  1  0
  7 30  1  0
  9 11  1  0
 10 12  1  0
 12 13  2  0
 12 17  1  0
 13 14  1  0
 14 15  2  0
 15 16  1  0
 15 44  1  0
 16 17  2  0
 18 19  1  0
 18 30  1  0
 19 20  1  1
 19 25  1  0
 21 20  1  1
 21 22  1  0
 21 42  1  0
 22 23  1  0
 22 24  2  0
 23 41  1  0
 25 26  1  0
 25 43  1  1
 26 27  1  0
 27 28  1  0
 27 29  2  0
 28 32  1  0
 30 31  2  0
 32 33  1  0
 34 35  1  6
 34 38  1  0
 35 36  1  0
 36 37  2  0
 38 39  1  0
 38 40  1  0
 41 42  1  0
V   43 *
A    1
 C01
A    2
 C1 
A    3
 C02
A    4
 C2 
A    5
 C3 
A    6
 O03
A    7
 C04
A    8
 C4 
A    9
 O4 
A   10
 C05
A   11
 N5 
A   12
 C06
A   13
 C07
A   14
 C08
A   15
 C09
A   16
 C10
A   17
 C11
A   18
 N12
A   19
 C13
A   20
 C14
A   21
 C15
A   22
 C16
A   23
 N17
A   24
 O18
A   25
 C19
A   26
 C20
A   27
 C21
A   28
 O22
A   29
 O23
A   30
 C47
A   31
 O48
A   32
 C50
A   33
 C53
A   34
 C57
A   35
 N58
A   36
 C59
A   37
 O60
A   38
 C78
A   39
 C81
A   40
 C82
A   41
 C83
A   42
 C84
A   43
 X  
A   44
 F1 
M  END
>  <ref_pdb>  (17) 
X0147_0A

>  <ref_mols>  (17) 
x0147

>  <original SMILES>  (17) 
*[C@@H](CC(=O)OCC)[C@H](C[C@@H]1CCNC1=O)NC(=O)[C@@H](CC(=O)[C@@H](NC(=O)c1cc(C)on1)C(C)C)Cc1ccc(F)cc1

$$$$
5WQ2_A_AG7
     RDKit          3D

 43 45  0  0  0  0  0  0  0  0999 V2000
   -6.7088   -4.3243   -2.2797 C   0  0  0  0  0  0  0  0  0  0  0  0
   -5.9750    0.2439   -1.4556 C   0  0  0  0  0  0  0  0  0  0  0  0
   -6.3659   -5.6944   -1.5527 C   0  0  0  0  0  0  0  0  0  0  0  0
   -5.2840    1.2412   -0.8109 C   0  0  0  0  0  0  0  0  0  0  0  0
   -5.1231    2.2535   -1.7049 C   0  0  0  0  0  0  0  0  0  0  0  0
   -6.3157   -4.0634   -3.3948 O   0  0  0  0  0  0  0  0  0  0  0  0
   -5.6113   -6.6437   -2.5055 C   0  0  1  0  0  0  0  0  0  0  0  0
   -4.4143    3.5601   -1.4518 C   0  0  0  0  0  0  0  0  0  0  0  0
   -5.7006    1.8966   -2.8658 O   0  0  0  0  0  0  0  0  0  0  0  0
   -5.2799   -7.9586   -1.7304 C   0  0  0  0  0  0  0  0  0  0  0  0
   -6.2337    0.6388   -2.6928 N   0  0  0  0  0  0  0  0  0  0  0  0
   -4.0622   -7.6058   -0.7611 C   0  0  0  0  0  0  0  0  0  0  0  0
   -4.2612   -7.6115    0.6196 C   0  0  0  0  0  0  0  0  0  0  0  0
   -3.2066   -7.3031    1.4706 C   0  0  0  0  0  0  0  0  0  0  0  0
   -1.9510   -6.9731    0.9359 C   0  0  0  0  0  0  0  0  0  0  0  0
   -1.7496   -6.9543   -0.4377 C   0  0  0  0  0  0  0  0  0  0  0  0
   -2.8167   -7.2720   -1.2995 C   0  0  0  0  0  0  0  0  0  0  0  0
   -5.7716   -7.0698   -4.9831 N   0  0  0  0  0  0  0  0  0  0  0  0
   -6.7021   -7.3986   -6.0714 C   0  0  1  0  0  0  0  0  0  0  0  0
   -6.4779   -6.3677   -7.1843 C   0  0  0  0  0  0  0  0  0  0  0  0
   -7.2980   -5.1481   -6.6696 C   0  0  1  0  0  0  0  0  0  0  0  0
   -7.2794   -3.9626   -7.7446 C   0  0  0  0  0  0  0  0  0  0  0  0
   -8.4640   -3.3318   -7.6456 N   0  0  0  0  0  0  0  0  0  0  0  0
   -6.3877   -3.6536   -8.4787 O   0  0  0  0  0  0  0  0  0  0  0  0
   -6.6847   -8.7805   -6.6812 C   0  0  0  0  0  0  0  0  0  0  0  0
   -6.1580   -9.8900   -5.7689 C   0  0  0  0  0  0  0  0  0  0  0  0
   -7.4901  -10.5768   -5.8662 C   0  0  0  0  0  0  0  0  0  0  0  0
   -8.0052  -11.3274   -4.7984 O   0  0  0  0  0  0  0  0  0  0  0  0
   -8.0993  -10.4277   -6.8953 O   0  0  0  0  0  0  0  0  0  0  0  0
   -6.4501   -6.9843   -3.6951 C   0  0  0  0  0  0  0  0  0  0  0  0
   -7.6097   -7.2137   -3.6749 O   0  0  0  0  0  0  0  0  0  0  0  0
   -8.5938  -12.5354   -5.2548 C   0  0  0  0  0  0  0  0  0  0  0  0
   -7.7195  -13.6449   -4.7333 C   0  0  0  0  0  0  0  0  0  0  0  0
   -7.5905   -3.2849   -1.5056 C   0  0  1  0  0  0  0  0  0  0  0  0
   -7.1016   -1.9917   -1.8231 N   0  0  0  0  0  0  0  0  0  0  0  0
   -6.4198   -1.1281   -0.8748 C   0  0  0  0  0  0  0  0  0  0  0  0
   -6.2225   -1.4416    0.2448 O   0  0  0  0  0  0  0  0  0  0  0  0
   -9.0823   -3.3665   -1.9586 C   0  0  0  0  0  0  0  0  0  0  0  0
   -9.6690   -4.8191   -1.8270 C   0  0  0  0  0  0  0  0  0  0  0  0
   -9.8838   -2.4318   -1.0255 C   0  0  0  0  0  0  0  0  0  0  0  0
   -9.3288   -4.0147   -6.5900 C   0  0  0  0  0  0  0  0  0  0  0  0
   -8.6270   -5.4331   -6.4300 C   0  0  0  0  0  0  0  0  0  0  0  0
   -0.9175   -6.6672    1.7771 F   0  0  0  0  0  0  0  0  0  0  0  0
  1  3  1  0
  1  6  2  0
  1 34  1  0
  2  4  1  0
  2 11  2  0
  2 36  1  0
  7  3  1  1
  4  5  2  0
  5  8  1  0
  5  9  1  0
  7 10  1  0
  7 30  1  0
  9 11  1  0
 10 12  1  0
 12 13  2  0
 12 17  1  0
 13 14  1  0
 14 15  2  0
 15 16  1  0
 15 43  1  0
 16 17  2  0
 18 19  1  0
 18 30  1  0
 19 20  1  6
 19 25  1  0
 21 20  1  6
 21 22  1  0
 21 42  1  0
 22 23  1  0
 22 24  2  0
 23 41  1  0
 25 26  1  0
 26 27  1  0
 27 28  1  0
 27 29  2  0
 28 32  1  0
 30 31  2  0
 32 33  1  0
 34 35  1  6
 34 38  1  0
 35 36  1  0
 36 37  2  0
 38 39  1  0
 38 40  1  0
 41 42  1  0
A    1
 C01
A    2
 C1 
A    3
 C02
A    4
 C2 
A    5
 C3 
A    6
 O03
A    7
 C04
A    8
 C4 
A    9
 O4 
A   10
 C05
A   11
 N5 
A   12
 C06
A   13
 C07
A   14
 C08
A   15
 C09
A   16
 C10
A   17
 C11
A   18
 N12
A   19
 C13
A   20
 C14
A   21
 C15
A   22
 C16
A   23
 N17
A   24
 O18
A   25
 C19
A   26
 C20
A   27
 C21
A   28
 O22
A   29
 O23
A   30
 C47
A   31
 O48
A   32
 C50
A   33
 C53
A   34
 C57
A   35
 N58
A   36
 C59
A   37
 O60
A   38
 C78
A   39
 C81
A   40
 C82
A   41
 C83
A   42
 C84
A   43
 F1 
M  END
>  <ref_pdb>  (18) 
X0147_0A

>  <ref_mols>  (18) 
x0147

>  <original SMILES>  (18) 
CCOC(=O)CC[C@H](C[C@@H]1CCNC1=O)NC(=O)[C@@H](CC(=O)[C@@H](NC(=O)c1cc(C)on1)C(C)C)Cc1ccc(F)cc1

$$$$
3QZR_A_EDO
     RDKit          3D

  4  3  0  0  0  0  0  0  0  0999 V2000
   39.2323   13.4738   10.7830 C   0  0  0  0  0  0  0  0  0  0  0  0
   39.5762   12.1355   10.4270 O   0  0  0  0  0  0  0  0  0  0  0  0
   40.4164   14.1086   11.5145 C   0  0  0  0  0  0  0  0  0  0  0  0
   41.5448   14.3328   10.6500 O   0  0  0  0  0  0  0  0  0  0  0  0
  1  2  1  0
  1  3  1  0
  3  4  1  0
A    1
 C1 
A    2
 O1 
A    3
 C2 
A    4
 O2 
M  END
>  <ref_pdb>  (19) 
X0147_0A

>  <ref_mols>  (19) 
x0147

>  <original SMILES>  (19) 
OCCO

$$$$
3QZR_A_AG7
     RDKit          3D

 44 46  0  0  0  0  0  0  0  0999 V2000
   31.7924    8.4072   16.6583 C   0  0  0  0  0  0  0  0  0  0  0  0
   29.3078    5.0802   18.9468 C   0  0  0  0  0  0  0  0  0  0  0  0
   31.6616    9.7540   15.9444 C   0  0  0  0  0  0  0  0  0  0  0  0
   28.0439    4.4244   19.2779 C   0  0  0  0  0  0  0  0  0  0  0  0
   28.3300    3.1544   19.4960 C   0  0  0  0  0  0  0  0  0  0  0  0
   32.3225    7.4406   16.1550 O   0  0  0  0  0  0  0  0  0  0  0  0
   32.3030    9.7475   14.5556 C   0  0  1  0  0  0  0  0  0  0  0  0
   27.3393    2.0608   19.7995 C   0  0  0  0  0  0  0  0  0  0  0  0
   29.6812    2.9810   19.2225 O   0  0  0  0  0  0  0  0  0  0  0  0
   32.2025   11.0780   13.8434 C   0  0  0  0  0  0  0  0  0  0  0  0
   30.2708    4.1684   18.9171 N   0  0  0  0  0  0  0  0  0  0  0  0
   30.7596   11.4733   13.6592 C   0  0  0  0  0  0  0  0  0  0  0  0
   29.9898   10.8319   12.7507 C   0  0  0  0  0  0  0  0  0  0  0  0
   28.5676   11.2560   12.5582 C   0  0  0  0  0  0  0  0  0  0  0  0
   28.0678   12.2779   13.2909 C   0  0  0  0  0  0  0  0  0  0  0  0
   28.9261   13.0047   14.2670 C   0  0  0  0  0  0  0  0  0  0  0  0
   30.2080   12.5991   14.4704 C   0  0  0  0  0  0  0  0  0  0  0  0
   34.2957    8.5154   13.6608 N   0  0  0  0  0  0  0  0  0  0  0  0
   35.7457    8.3375   13.5206 C   0  0  1  0  0  0  0  0  0  0  0  0
   36.1301    6.9222   13.9166 C   0  0  0  0  0  0  0  0  0  0  0  0
   35.7391    6.5809   15.3651 C   0  0  1  0  0  0  0  0  0  0  0  0
   36.1321    5.2066   15.7075 C   0  0  0  0  0  0  0  0  0  0  0  0
   36.5421    5.1996   17.0800 N   0  0  0  0  0  0  0  0  0  0  0  0
   36.1347    4.2303   14.9808 O   0  0  0  0  0  0  0  0  0  0  0  0
   36.1631    8.7212   12.0985 C   0  0  2  0  0  0  0  0  0  0  0  0
   36.0115   10.1948   11.7574 C   0  0  0  0  0  0  0  0  0  0  0  0
   36.8453   11.0293   12.6960 C   0  0  0  0  0  0  0  0  0  0  0  0
   36.3180   12.0742   13.2192 O   0  0  0  0  0  0  0  0  0  0  0  0
   37.9803   10.6499   13.0239 O   0  0  0  0  0  0  0  0  0  0  0  0
   33.7660    9.4137   14.6829 C   0  0  0  0  0  0  0  0  0  0  0  0
   34.5074   10.0172   15.4366 O   0  0  0  0  0  0  0  0  0  0  0  0
   37.0186   12.8694   14.1109 C   0  0  0  0  0  0  0  0  0  0  0  0
   36.0203   13.6620   14.9315 C   0  0  0  0  0  0  0  0  0  0  0  0
   31.1508    8.3310   18.0601 C   0  0  1  0  0  0  0  0  0  0  0  0
   30.8623    6.9654   18.4322 N   0  0  0  0  0  0  0  0  0  0  0  0
   29.5015    6.5396   18.6635 C   0  0  0  0  0  0  0  0  0  0  0  0
   28.5802    7.3300   18.6442 O   0  0  0  0  0  0  0  0  0  0  0  0
   31.9626    9.0357   19.1438 C   0  0  0  0  0  0  0  0  0  0  0  0
   31.3091    8.8391   20.5092 C   0  0  0  0  0  0  0  0  0  0  0  0
   33.3910    8.5394   19.1530 C   0  0  0  0  0  0  0  0  0  0  0  0
   36.4185    6.5374   17.6421 C   0  0  0  0  0  0  0  0  0  0  0  0
   36.4111    7.4280   16.4092 C   0  0  0  0  0  0  0  0  0  0  0  0
   35.0777    7.7434   10.9251 R   0  0  0  0  0  0  0  0  0  0  0  0
   26.8149   12.6536   13.1105 F   0  0  0  0  0  0  0  0  0  0  0  0
  1  3  1  0
  1  6  2  0
  1 34  1  0
  2  4  1  0
  2 11  2  0
  2 36  1  0
  7  3  1  1
  4  5  2  0
  5  8  1  0
  5  9  1  0
  7 10  1  0
  7 30  1  0
  9 11  1  0
 10 12  1  0
 12 13  2  0
 12 17  1  0
 13 14  1  0
 14 15  2  0
 15 16  1  0
 15 44  1  0
 16 17  2  0
 18 19  1  0
 18 30  1  0
 19 20  1  6
 19 25  1  0
 21 20  1  6
 21 22  1  0
 21 42  1  0
 22 23  1  0
 22 24  2  0
 23 41  1  0
 25 26  1  0
 25 43  1  6
 26 27  1  0
 27 28  1  0
 27 29  2  0
 28 32  1  0
 30 31  2  0
 32 33  1  0
 34 35  1  1
 34 38  1  0
 35 36  1  0
 36 37  2  0
 38 39  1  0
 38 40  1  0
 41 42  1  0
V   43 *
A    1
 C01
A    2
 C1 
A    3
 C02
A    4
 C2 
A    5
 C3 
A    6
 O03
A    7
 C04
A    8
 C4 
A    9
 O4 
A   10
 C05
A   11
 N5 
A   12
 C06
A   13
 C07
A   14
 C08
A   15
 C09
A   16
 C10
A   17
 C11
A   18
 N12
A   19
 C13
A   20
 C14
A   21
 C15
A   22
 C16
A   23
 N17
A   24
 O18
A   25
 C19
A   26
 C20
A   27
 C21
A   28
 O22
A   29
 O23
A   30
 C47
A   31
 O48
A   32
 C50
A   33
 C53
A   34
 C57
A   35
 N58
A   36
 C59
A   37
 O60
A   38
 C78
A   39
 C81
A   40
 C82
A   41
 C83
A   42
 C84
A   43
 X  
A   44
 F1 
M  END
>  <ref_pdb>  (20) 
X0147_0A

>  <ref_mols>  (20) 
x0147

>  <original SMILES>  (20) 
*[C@@H](CC(=O)OCC)[C@H](C[C@@H]1CCNC1=O)NC(=O)[C@@H](CC(=O)[C@@H](NC(=O)c1cc(C)on1)C(C)C)Cc1ccc(F)cc1

$$$$
5GSW_A_5GI
     RDKit          3D

 32 34  0  0  0  0  0  0  0  0999 V2000
  -21.0388   -8.3849   46.1644 C   0  0  1  0  0  0  0  0  0  0  0  0
  -21.2620   -7.6601   47.3704 N   0  0  0  0  0  0  0  0  0  0  0  0
  -21.6912   -4.8879   50.9110 O   0  0  0  0  0  0  0  0  0  0  0  0
  -20.8156   -9.8460   46.5481 C   0  0  0  0  0  0  0  0  0  0  0  0
  -21.2846   -5.8169   50.0478 N   0  0  0  0  0  0  0  0  0  0  0  0
  -24.4236  -10.1771   43.3979 O   0  0  0  0  0  0  0  0  0  0  0  0
  -22.4229   -8.1585   45.6141 C   0  0  0  0  0  0  0  0  0  0  0  0
  -23.7228   -3.0886   43.7914 N   0  0  0  0  0  0  0  0  0  0  0  0
  -23.3022   -7.9690   46.4430 O   0  0  0  0  0  0  0  0  0  0  0  0
  -22.7508   -2.5942   50.9410 C   0  0  0  0  0  0  0  0  0  0  0  0
  -22.8494   -8.1337   44.2588 N   0  0  0  0  0  0  0  0  0  0  0  0
  -20.8308   -5.5873   46.4625 O   0  0  0  0  0  0  0  0  0  0  0  0
  -19.3519  -10.1475   46.9436 C   0  0  0  0  0  0  0  0  0  0  0  0
  -22.9026   -4.4233   42.0493 O   0  0  0  0  0  0  0  0  0  0  0  0
  -18.3502   -9.7165   46.1165 C   0  0  0  0  0  0  0  0  0  0  0  0
  -19.0467  -10.8283   48.1413 C   0  0  0  0  0  0  0  0  0  0  0  0
  -17.0301   -9.9482   46.4570 C   0  0  0  0  0  0  0  0  0  0  0  0
  -16.7271  -10.6214   47.6463 C   0  0  0  0  0  0  0  0  0  0  0  0
  -17.7272  -11.0566   48.4780 C   0  0  0  0  0  0  0  0  0  0  0  0
  -21.1553   -6.2288   47.4601 C   0  0  0  0  0  0  0  0  0  0  0  0
  -21.4715   -5.4484   48.7788 C   0  0  0  0  0  0  0  0  0  0  0  0
  -24.6256   -3.0109   44.9582 C   0  0  0  0  0  0  0  0  0  0  0  0
  -22.0817   -4.1334   48.8666 C   0  0  0  0  0  0  0  0  0  0  0  0
  -25.0092   -9.0774   43.6539 C   0  0  0  0  0  0  0  0  0  0  0  0
  -22.1867   -3.8455   50.2845 C   0  0  0  0  0  0  0  0  0  0  0  0
  -24.4507   -4.1492   45.9316 C   0  0  0  0  0  0  0  0  0  0  0  0
  -24.2915   -7.8688   44.2486 C   0  0  2  0  0  0  0  0  0  0  0  0
  -24.5775   -6.6810   43.3566 C   0  0  0  0  0  0  0  0  0  0  0  0
  -23.8381   -5.5517   43.9988 C   0  0  1  0  0  0  0  0  0  0  0  0
  -23.8651   -4.3561   43.0617 C   0  0  0  0  0  0  0  0  0  0  0  0
  -24.6556   -5.4008   45.2327 C   0  0  0  0  0  0  0  0  0  0  0  0
  -15.4439  -10.8421   47.9698 F   0  0  0  0  0  0  0  0  0  0  0  0
  1  2  1  0
  1  4  1  1
  1  7  1  0
  2 20  1  0
  3  5  1  0
  3 25  1  0
  4 13  1  0
  5 21  2  0
  6 24  2  0
  7  9  2  0
  7 11  1  0
  8 22  1  0
  8 30  1  0
 10 25  1  0
 11 27  1  0
 12 20  2  0
 13 15  2  0
 13 16  1  0
 14 30  2  0
 15 17  1  0
 16 19  2  0
 17 18  2  0
 18 19  1  0
 18 32  1  0
 20 21  1  0
 21 23  1  0
 22 26  1  0
 23 25  2  0
 24 27  1  0
 26 31  1  0
 27 28  1  6
 29 28  1  6
 29 30  1  0
 29 31  1  0
A    1
 C1 
A    2
 N1 
A    3
 O1 
A    4
 C2 
A    5
 N2 
A    6
 O2 
A    7
 C3 
A    8
 N3 
A    9
 O3 
A   10
 C4 
A   11
 N4 
A   12
 O4 
A   13
 C5 
A   14
 O5 
A   15
 C6 
A   16
 C7 
A   17
 C8 
A   18
 C9 
A   19
 C10
A   20
 C11
A   21
 C12
A   22
 C13
A   23
 C14
A   24
 C15
A   25
 C16
A   26
 C17
A   27
 C18
A   28
 C19
A   29
 C20
A   30
 C21
A   31
 C22
A   32
 F1 
M  END
>  <ref_pdb>  (21) 
X0147_0A

>  <ref_mols>  (21) 
x0147

>  <original SMILES>  (21) 
Cc1cc(C(=O)N[C@@H](Cc2ccc(F)cc2)C(=O)N[C@H](C=O)C[C@@H]2CCCNC2=O)no1

$$$$
3R0F_A_EDO
     RDKit          3D

  4  3  0  0  0  0  0  0  0  0999 V2000
   -8.0597  -14.1198   -7.1887 C   0  0  0  0  0  0  0  0  0  0  0  0
   -7.5242  -13.3924   -8.3015 O   0  0  0  0  0  0  0  0  0  0  0  0
   -9.4535  -14.6463   -7.5413 C   0  0  0  0  0  0  0  0  0  0  0  0
   -9.4186  -15.7108   -8.5180 O   0  0  0  0  0  0  0  0  0  0  0  0
  1  2  1  0
  1  3  1  0
  3  4  1  0
A    1
 C1 
A    2
 O1 
A    3
 C2 
A    4
 O2 
M  END
>  <ref_pdb>  (22) 
X0147_0A

>  <ref_mols>  (22) 
x0147

>  <original SMILES>  (22) 
OCCO

$$$$
3R0F_A_AG7
     RDKit          3D

 44 46  0  0  0  0  0  0  0  0999 V2000
   31.2857    8.4353   16.7962 C   0  0  0  0  0  0  0  0  0  0  0  0
   28.8352    5.0907   19.1531 C   0  0  0  0  0  0  0  0  0  0  0  0
   31.2622    9.7983   16.0937 C   0  0  0  0  0  0  0  0  0  0  0  0
   27.5476    4.4948   19.5119 C   0  0  0  0  0  0  0  0  0  0  0  0
   27.7551    3.2052   19.6783 C   0  0  0  0  0  0  0  0  0  0  0  0
   31.8383    7.4717   16.3091 O   0  0  0  0  0  0  0  0  0  0  0  0
   31.8861    9.7118   14.6909 C   0  0  1  0  0  0  0  0  0  0  0  0
   26.7100    2.1735   20.0261 C   0  0  0  0  0  0  0  0  0  0  0  0
   29.0853    2.9613   19.3743 O   0  0  0  0  0  0  0  0  0  0  0  0
   31.7583   10.9905   13.8804 C   0  0  0  0  0  0  0  0  0  0  0  0
   29.7266    4.1087   19.0378 N   0  0  0  0  0  0  0  0  0  0  0  0
   30.3034   11.3892   13.6920 C   0  0  0  0  0  0  0  0  0  0  0  0
   29.4706   10.6284   12.9359 C   0  0  0  0  0  0  0  0  0  0  0  0
   28.0484   11.0590   12.7315 C   0  0  0  0  0  0  0  0  0  0  0  0
   27.6053   12.2069   13.2963 C   0  0  0  0  0  0  0  0  0  0  0  0
   28.5250   13.0554   14.1090 C   0  0  0  0  0  0  0  0  0  0  0  0
   29.8162   12.6601   14.3064 C   0  0  0  0  0  0  0  0  0  0  0  0
   33.9398    8.4319   13.8506 N   0  0  0  0  0  0  0  0  0  0  0  0
   35.4060    8.2666   13.7694 C   0  0  1  0  0  0  0  0  0  0  0  0
   35.8053    6.8507   14.1523 C   0  0  0  0  0  0  0  0  0  0  0  0
   35.3446    6.5144   15.5810 C   0  0  1  0  0  0  0  0  0  0  0  0
   35.7238    5.1371   15.9582 C   0  0  0  0  0  0  0  0  0  0  0  0
   36.1610    5.1730   17.3254 N   0  0  0  0  0  0  0  0  0  0  0  0
   35.7552    4.1613   15.2329 O   0  0  0  0  0  0  0  0  0  0  0  0
   35.8915    8.6879   12.3805 C   0  0  2  0  0  0  0  0  0  0  0  0
   35.6900   10.1370   11.9725 C   0  0  0  0  0  0  0  0  0  0  0  0
   36.4776   11.0079   12.9189 C   0  0  0  0  0  0  0  0  0  0  0  0
   35.9274   12.0371   13.4431 O   0  0  0  0  0  0  0  0  0  0  0  0
   37.6197   10.6539   13.2851 O   0  0  0  0  0  0  0  0  0  0  0  0
   33.3529    9.3535   14.8375 C   0  0  0  0  0  0  0  0  0  0  0  0
   34.0601    9.9539   15.6124 O   0  0  0  0  0  0  0  0  0  0  0  0
   36.6520   12.8179   14.3267 C   0  0  0  0  0  0  0  0  0  0  0  0
   35.7070   13.7500   15.0535 C   0  0  0  0  0  0  0  0  0  0  0  0
   30.6700    8.3516   18.2111 C   0  0  1  0  0  0  0  0  0  0  0  0
   30.4373    6.9774   18.5828 N   0  0  0  0  0  0  0  0  0  0  0  0
   29.0855    6.5472   18.8745 C   0  0  0  0  0  0  0  0  0  0  0  0
   28.1591    7.3473   18.8569 O   0  0  0  0  0  0  0  0  0  0  0  0
   31.5085    9.0567   19.2602 C   0  0  0  0  0  0  0  0  0  0  0  0
   30.8716    8.9932   20.6362 C   0  0  0  0  0  0  0  0  0  0  0  0
   32.8777    8.4300   19.3045 C   0  0  0  0  0  0  0  0  0  0  0  0
   35.9817    6.5128   17.8472 C   0  0  0  0  0  0  0  0  0  0  0  0
   36.0117    7.3858   16.6056 C   0  0  0  0  0  0  0  0  0  0  0  0
   34.8005    7.6105   11.1263 R   0  0  0  0  0  0  0  0  0  0  0  0
   26.3571   12.5947   13.1106 F   0  0  0  0  0  0  0  0  0  0  0  0
  1  3  1  0
  1  6  2  0
  1 34  1  0
  2  4  1  0
  2 11  2  0
  2 36  1  0
  7  3  1  1
  4  5  2  0
  5  8  1  0
  5  9  1  0
  7 10  1  0
  7 30  1  0
  9 11  1  0
 10 12  1  0
 12 13  2  0
 12 17  1  0
 13 14  1  0
 14 15  2  0
 15 16  1  0
 15 44  1  0
 16 17  2  0
 18 19  1  0
 18 30  1  0
 19 20  1  6
 19 25  1  0
 21 20  1  6
 21 22  1  0
 21 42  1  0
 22 23  1  0
 22 24  2  0
 23 41  1  0
 25 26  1  0
 25 43  1  6
 26 27  1  0
 27 28  1  0
 27 29  2  0
 28 32  1  0
 30 31  2  0
 32 33  1  0
 34 35  1  1
 34 38  1  0
 35 36  1  0
 36 37  2  0
 38 39  1  0
 38 40  1  0
 41 42  1  0
V   43 *
A    1
 C01
A    2
 C1 
A    3
 C02
A    4
 C2 
A    5
 C3 
A    6
 O03
A    7
 C04
A    8
 C4 
A    9
 O4 
A   10
 C05
A   11
 N5 
A   12
 C06
A   13
 C07
A   14
 C08
A   15
 C09
A   16
 C10
A   17
 C11
A   18
 N12
A   19
 C13
A   20
 C14
A   21
 C15
A   22
 C16
A   23
 N17
A   24
 O18
A   25
 C19
A   26
 C20
A   27
 C21
A   28
 O22
A   29
 O23
A   30
 C47
A   31
 O48
A   32
 C50
A   33
 C53
A   34
 C57
A   35
 N58
A   36
 C59
A   37
 O60
A   38
 C78
A   39
 C81
A   40
 C82
A   41
 C83
A   42
 C84
A   43
 X  
A   44
 F1 
M  END
>  <ref_pdb>  (23) 
X0147_0A

>  <ref_mols>  (23) 
x0147

>  <original SMILES>  (23) 
*[C@@H](CC(=O)OCC)[C@H](C[C@@H]1CCNC1=O)NC(=O)[C@@H](CC(=O)[C@@H](NC(=O)c1cc(C)on1)C(C)C)Cc1ccc(F)cc1

$$$$
2XYA_A_7L4
     RDKit          3D

 17 19  0  0  0  0  0  0  0  0999 V2000
  -12.7275   -1.6399   -5.7513 C   0  0  0  0  0  0  0  0  0  0  0  0
  -12.3972   -1.9869   -7.0528 C   0  0  0  0  0  0  0  0  0  0  0  0
  -11.2478   -2.7329   -7.3236 C   0  0  0  0  0  0  0  0  0  0  0  0
  -10.4275   -3.1454   -6.2771 C   0  0  0  0  0  0  0  0  0  0  0  0
  -10.7441   -2.7992   -4.9675 C   0  0  0  0  0  0  0  0  0  0  0  0
  -11.8905   -2.0585   -4.7135 C   0  0  0  0  0  0  0  0  0  0  0  0
   -9.2150   -3.9410   -6.5445 C   0  0  0  0  0  0  0  0  0  0  0  0
   -8.3344   -3.5185   -7.5645 C   0  0  0  0  0  0  0  0  0  0  0  0
   -7.1991   -4.2523   -7.7958 C   0  0  0  0  0  0  0  0  0  0  0  0
   -6.9441   -5.4000   -7.0051 C   0  0  0  0  0  0  0  0  0  0  0  0
   -5.8101   -6.1815   -7.2197 C   0  0  0  0  0  0  0  0  0  0  0  0
   -5.5743   -7.2956   -6.4511 C   0  0  0  0  0  0  0  0  0  0  0  0
   -6.4900   -7.6685   -5.4697 C   0  0  0  0  0  0  0  0  0  0  0  0
   -7.6031   -6.9075   -5.2311 C   0  0  0  0  0  0  0  0  0  0  0  0
   -7.8636   -5.7667   -5.9927 C   0  0  0  0  0  0  0  0  0  0  0  0
   -8.9664   -5.0210   -5.7930 N   0  0  0  0  0  0  0  0  0  0  0  0
   -6.3373   -3.9000   -8.7866 O   0  0  0  0  0  0  0  0  0  0  0  0
  1  2  2  0
  1  6  1  0
  2  3  1  0
  3  4  2  0
  4  5  1  0
  4  7  1  0
  5  6  2  0
  7  8  2  0
  7 16  1  0
  8  9  1  0
  9 10  2  0
  9 17  1  0
 10 11  1  0
 10 15  1  0
 11 12  2  0
 12 13  1  0
 13 14  2  0
 14 15  1  0
 15 16  2  0
A    1
 C1 
A    2
 C2 
A    3
 C3 
A    4
 C4 
A    5
 C5 
A    6
 C6 
A    7
 C7 
A    8
 C8 
A    9
 C9 
A   10
 C10
A   11
 C11
A   12
 C12
A   13
 C13
A   14
 C14
A   15
 C15
A   16
 N16
A   17
 O17
M  END
>  <ref_pdb>  (24) 
X0147_0A

>  <ref_mols>  (24) 
x0147

>  <original SMILES>  (24) 
Oc1cc(-c2ccccc2)nc2ccccc12

$$$$
1CQQ_A_AG7
     RDKit          3D

 44 46  0  0  0  0  0  0  0  0999 V2000
   -6.8736   -4.6700   -2.5972 C   0  0  0  0  0  0  0  0  0  0  0  0
   -6.2113   -0.2971   -1.7614 C   0  0  0  0  0  0  0  0  0  0  0  0
   -6.7945   -6.1011   -2.0415 C   0  0  0  0  0  0  0  0  0  0  0  0
   -5.3540    0.4640   -0.9790 C   0  0  0  0  0  0  0  0  0  0  0  0
   -5.0603    1.5497   -1.8077 C   0  0  0  0  0  0  0  0  0  0  0  0
   -6.2329   -4.3616   -3.5955 O   0  0  0  0  0  0  0  0  0  0  0  0
   -5.9372   -6.9999   -2.9409 C   0  0  1  0  0  0  0  0  0  0  0  0
   -4.1873    2.7600   -1.4956 C   0  0  0  0  0  0  0  0  0  0  0  0
   -5.6916    1.4317   -2.9781 O   0  0  0  0  0  0  0  0  0  0  0  0
   -5.7148   -8.3042   -2.1784 C   0  0  0  0  0  0  0  0  0  0  0  0
   -6.4470    0.2810   -2.9452 N   0  0  0  0  0  0  0  0  0  0  0  0
   -4.6982   -8.0548   -1.1703 C   0  0  0  0  0  0  0  0  0  0  0  0
   -3.4091   -7.6606   -1.5574 C   0  0  0  0  0  0  0  0  0  0  0  0
   -2.4353   -7.4120   -0.5932 C   0  0  0  0  0  0  0  0  0  0  0  0
   -2.7456   -7.5412    0.7575 C   0  0  0  0  0  0  0  0  0  0  0  0
   -4.0100   -7.9206    1.1460 C   0  0  0  0  0  0  0  0  0  0  0  0
   -4.9944   -8.1684    0.1737 C   0  0  0  0  0  0  0  0  0  0  0  0
   -5.8931   -7.1518   -5.4050 N   0  0  0  0  0  0  0  0  0  0  0  0
   -6.5181   -7.4241   -6.7107 C   0  0  1  0  0  0  0  0  0  0  0  0
   -6.5916   -6.1956   -7.6126 C   0  0  0  0  0  0  0  0  0  0  0  0
   -7.5660   -5.1325   -7.0795 C   0  0  1  0  0  0  0  0  0  0  0  0
   -7.6995   -3.9463   -7.9908 C   0  0  0  0  0  0  0  0  0  0  0  0
   -8.8409   -3.3528   -7.8471 N   0  0  0  0  0  0  0  0  0  0  0  0
   -6.8819   -3.6062   -8.8318 O   0  0  0  0  0  0  0  0  0  0  0  0
   -5.8091   -8.6204   -7.4351 C   0  0  2  0  0  0  0  0  0  0  0  0
   -6.0713   -9.9674   -6.7032 C   0  0  0  0  0  0  0  0  0  0  0  0
   -6.3912  -11.1110   -7.7031 C   0  0  0  0  0  0  0  0  0  0  0  0
   -6.5772  -12.2838   -7.1381 O   0  0  0  0  0  0  0  0  0  0  0  0
   -6.4922  -10.9232   -8.9033 O   0  0  0  0  0  0  0  0  0  0  0  0
   -6.5970   -7.2527   -4.2888 C   0  0  0  0  0  0  0  0  0  0  0  0
   -7.7965   -7.5050   -4.3671 O   0  0  0  0  0  0  0  0  0  0  0  0
   -6.9979  -13.4206   -7.9384 C   0  0  0  0  0  0  0  0  0  0  0  0
   -7.6541  -14.4548   -7.0060 C   0  0  0  0  0  0  0  0  0  0  0  0
   -7.7485   -3.6368   -1.8339 C   0  0  1  0  0  0  0  0  0  0  0  0
   -7.2953   -2.2979   -2.1814 N   0  0  0  0  0  0  0  0  0  0  0  0
   -6.6565   -1.5397   -1.3236 C   0  0  0  0  0  0  0  0  0  0  0  0
   -6.4507   -2.0002   -0.2150 O   0  0  0  0  0  0  0  0  0  0  0  0
   -9.2407   -3.6235   -2.2403 C   0  0  0  0  0  0  0  0  0  0  0  0
  -10.0585   -3.1605   -1.0235 C   0  0  0  0  0  0  0  0  0  0  0  0
   -9.8463   -4.9044   -2.8263 C   0  0  0  0  0  0  0  0  0  0  0  0
   -9.7919   -4.1803   -7.0954 C   0  0  0  0  0  0  0  0  0  0  0  0
   -9.0442   -5.5305   -6.9434 C   0  0  0  0  0  0  0  0  0  0  0  0
   -4.0056   -8.3876   -7.4843 R   0  0  0  0  0  0  0  0  0  0  0  0
   -1.8082   -7.3394    1.6721 F   0  0  0  0  0  0  0  0  0  0  0  0
  1  3  1  0
  1  6  2  0
  1 34  1  0
  2  4  1  0
  2 11  2  0
  2 36  1  0
  7  3  1  1
  4  5  2  0
  5  8  1  0
  5  9  1  0
  7 10  1  0
  7 30  1  0
  9 11  1  0
 10 12  1  0
 12 13  2  0
 12 17  1  0
 13 14  1  0
 14 15  2  0
 15 16  1  0
 15 44  1  0
 16 17  2  0
 18 19  1  0
 18 30  1  0
 19 20  1  6
 19 25  1  0
 21 20  1  6
 21 22  1  0
 21 42  1  0
 22 23  1  0
 22 24  2  0
 23 41  1  0
 25 26  1  0
 25 43  1  1
 26 27  1  0
 27 28  1  0
 27 29  2  0
 28 32  1  0
 30 31  2  0
 32 33  1  0
 34 35  1  6
 34 38  1  0
 35 36  1  0
 36 37  2  0
 38 39  1  0
 38 40  1  0
 41 42  1  0
V   43 *
A    1
 C01
A    2
 C1 
A    3
 C02
A    4
 C2 
A    5
 C3 
A    6
 O03
A    7
 C04
A    8
 C4 
A    9
 O4 
A   10
 C05
A   11
 N5 
A   12
 C06
A   13
 C07
A   14
 C08
A   15
 C09
A   16
 C10
A   17
 C11
A   18
 N12
A   19
 C13
A   20
 C14
A   21
 C15
A   22
 C16
A   23
 N17
A   24
 O18
A   25
 C19
A   26
 C20
A   27
 C21
A   28
 O22
A   29
 O23
A   30
 C47
A   31
 O48
A   32
 C50
A   33
 C53
A   34
 C57
A   35
 N58
A   36
 C59
A   37
 O60
A   38
 C78
A   39
 C81
A   40
 C82
A   41
 C83
A   42
 C84
A   43
 X  
A   44
 F1 
M  END
>  <ref_pdb>  (25) 
X0147_0A

>  <ref_mols>  (25) 
x0147

>  <original SMILES>  (25) 
*[C@@H](CC(=O)OCC)[C@H](C[C@@H]1CCNC1=O)NC(=O)[C@@H](CC(=O)[C@@H](NC(=O)c1cc(C)on1)C(C)C)Cc1ccc(F)cc1

$$$$
nan
     RDKit          3D

 58 58  0  0  0  0  0  0  0  0999 V2000
   -2.4341    5.3250    1.7145 N   0  0  0  0  0  0  0  0  0  0  0  0
   -4.8979    2.7793    1.5036 N   0  0  0  0  0  0  0  0  0  0  0  0
   -4.7121    0.4620   -0.2994 N   0  0  0  0  0  0  0  0  0  0  0  0
   -6.1945   -2.1909   -2.0356 N   0  0  0  0  0  0  0  0  0  0  0  0
   -5.7018   -5.7596   -2.3733 N   0  0  0  0  0  0  0  0  0  0  0  0
   -5.7716   -7.1706   -5.6255 N   0  0  0  0  0  0  0  0  0  0  0  0
   -3.4927    4.6322    0.9920 C   0  0  2  0  0  0  0  0  0  0  0  0
   -5.1335    1.4115    1.8345 C   0  0  2  0  0  0  0  0  0  0  0  0
   -5.0707   -0.1365   -1.5468 C   0  0  2  0  0  0  0  0  0  0  0  0
   -6.5306   -3.5711   -1.8057 C   0  0  2  0  0  0  0  0  0  0  0  0
   -5.1928   -6.7638   -3.2809 C   0  0  2  0  0  0  0  0  0  0  0  0
   -6.7328   -7.3066   -6.6927 C   0  0  1  0  0  0  0  0  0  0  0  0
   -2.6377    6.5336    2.1976 C   0  0  1  0  0  0  0  0  0  0  0  0
   -3.6825    3.2452    1.5403 C   0  0  0  0  0  0  0  0  0  0  0  0
   -5.6437    0.8006    0.5710 C   0  0  1  0  0  0  0  0  0  0  0  0
   -5.3132   -1.5967   -1.2843 C   0  0  0  0  0  0  0  0  0  0  0  0
   -5.9107   -4.5226   -2.8057 C   0  0  0  0  0  0  0  0  0  0  0  0
   -6.2085   -6.9173   -4.3975 C   0  0  0  0  0  0  0  0  0  0  0  0
   -3.7506    7.0414    2.2696 O   0  0  0  0  0  0  0  0  0  0  0  0
   -2.7357    2.6041    1.9946 O   0  0  0  0  0  0  0  0  0  0  0  0
   -6.8508    0.7049    0.3452 O   0  0  0  0  0  0  0  0  0  0  0  0
   -4.7218   -2.1739   -0.3781 O   0  0  0  0  0  0  0  0  0  0  0  0
   -5.6170   -4.1506   -3.9448 O   0  0  0  0  0  0  0  0  0  0  0  0
   -7.4090   -6.8128   -4.1452 O   0  0  0  0  0  0  0  0  0  0  0  0
   -3.1685    4.3848   -0.4937 C   0  0  0  0  0  0  0  0  0  0  0  0
   -6.1112    1.1666    2.9679 C   0  0  0  0  0  0  0  0  0  0  0  0
   -3.9994    0.0960   -2.5950 C   0  0  0  0  0  0  0  0  0  0  0  0
   -8.0353   -3.7419   -1.8579 C   0  0  0  0  0  0  0  0  0  0  0  0
   -5.0172   -8.1240   -2.6072 C   0  0  0  0  0  0  0  0  0  0  0  0
   -6.6604   -6.0979   -7.6341 C   0  0  0  0  0  0  0  0  0  0  0  0
   -3.0470    5.5740   -1.4483 C   0  0  0  0  0  0  0  0  0  0  0  0
   -6.2601   -0.3239    3.2456 C   0  0  0  0  0  0  0  0  0  0  0  0
   -8.4817   -5.1891   -1.7876 C   0  0  0  0  0  0  0  0  0  0  0  0
   -4.0801   -8.1512   -1.4359 C   0  0  0  0  0  0  0  0  0  0  0  0
   -7.2422   -4.8254   -7.0022 C   0  0  0  0  0  0  0  0  0  0  0  0
   -7.2937   -0.6329    4.3101 C   0  0  0  0  0  0  0  0  0  0  0  0
   -7.1431   -3.5960   -7.8938 C   0  0  0  0  0  0  0  0  0  0  0  0
   -4.0965    6.6421   -1.1801 C   0  0  0  0  0  0  0  0  0  0  0  0
   -8.2324   -5.7362   -0.3842 C   0  0  0  0  0  0  0  0  0  0  0  0
   -2.8259   -7.5644   -1.5034 C   0  0  0  0  0  0  0  0  0  0  0  0
   -1.6462    6.1421   -1.3934 C   0  0  0  0  0  0  0  0  0  0  0  0
   -9.9485   -5.3040   -2.1725 C   0  0  0  0  0  0  0  0  0  0  0  0
   -4.4532   -8.7993   -0.2714 C   0  0  0  0  0  0  0  0  0  0  0  0
   -1.9665   -7.6231   -0.4247 C   0  0  0  0  0  0  0  0  0  0  0  0
   -3.5960   -8.8667    0.8048 C   0  0  0  0  0  0  0  0  0  0  0  0
   -7.9697   -2.5870   -7.6172 N   0  0  0  0  0  0  0  0  0  0  0  0
   -6.9354   -0.6237    5.5018 O   0  0  0  0  0  0  0  0  0  0  0  0
   -6.3261   -3.5419   -8.8065 O   0  0  0  0  0  0  0  0  0  0  0  0
   -8.4578   -0.8764    3.9527 O   0  0  0  0  0  0  0  0  0  0  0  0
   -2.3513   -8.2780    0.7327 C   0  0  0  0  0  0  0  0  0  0  0  0
   -1.4702    7.1192    2.9538 C   0  0  0  0  0  0  0  0  0  0  0  0
   -9.3775  -12.8822   -7.8149 C   0  0  0  0  0  0  0  0  0  0  0  0
  -10.4684  -13.7351   -7.1936 C   0  0  0  0  0  0  0  0  0  0  0  0
   -6.6623   -8.6739   -7.4355 C   0  0  0  0  0  0  0  0  0  0  0  0
   -7.7402   -9.5612   -6.8077 C   0  0  0  0  0  0  0  0  0  0  0  0
   -8.0439  -10.8105   -7.5981 C   0  0  0  0  0  0  0  0  0  0  0  0
   -7.4393  -11.0436   -8.6430 O   0  0  0  0  0  0  0  0  0  0  0  0
   -8.9266  -11.5743   -7.1394 O   0  0  0  0  0  0  0  0  0  0  0  0
  1  7  1  0
  1 13  1  0
  2  8  1  0
  2 14  1  0
  3  9  1  0
  3 15  1  0
  4 10  1  0
  4 16  1  0
  5 11  1  0
  5 17  1  0
  6 12  1  0
  6 18  1  0
  7 14  1  0
  7 25  1  6
  8 15  1  0
  8 26  1  1
  9 16  1  0
  9 27  1  6
 10 17  1  0
 10 28  1  6
 11 18  1  0
 11 29  1  1
 12 30  1  6
 12 54  1  0
 13 19  1  0
 13 51  1  1
 14 20  1  0
 15 21  1  6
 16 22  1  0
 17 23  1  0
 18 24  1  0
 25 31  1  0
 26 32  1  0
 28 33  1  0
 29 34  1  0
 30 35  1  0
 31 38  1  0
 31 41  1  0
 32 36  1  0
 33 39  1  0
 33 42  1  0
 34 40  1  0
 34 43  1  0
 35 37  1  0
 36 47  1  0
 36 49  1  0
 37 46  1  0
 37 48  1  0
 40 44  1  0
 43 45  1  0
 44 50  1  0
 45 50  1  0
 52 53  1  0
 52 58  1  0
 54 55  1  0
 55 56  1  0
 56 57  1  0
 56 58  1  0
M  CHG  1  49  -1
A    1
 N1 
A    2
 N1 
A    3
 N1 
A    4
 N1 
A    5
 N1 
A    6
 N1 
A    7
 C3 
A    8
 C3 
A    9
 C3 
A   10
 C3 
A   11
 C3 
A   12
 C3 
A   13
 C1 
A   14
 C1 
A   15
 C1 
A   16
 C1 
A   17
 C1 
A   18
 C1 
A   19
 O1 
A   20
 O1 
A   21
 O1 
A   22
 O1 
A   23
 O1 
A   24
 O1 
A   25
 C5 
A   26
 C5 
A   27
 C5 
A   28
 C5 
A   29
 C5 
A   30
 C5 
A   31
 C6 
A   32
 C6 
A   33
 C6 
A   34
 C6 
A   35
 C6 
A   36
 C13
A   37
 C13
A   38
 C7 
A   39
 C7 
A   40
 C7 
A   41
 C8 
A   42
 C8 
A   43
 C8 
A   44
 C29
A   45
 C30
A   46
 N7 
A   47
 O4 
A   48
 O4 
A   49
 O5 
A   50
 C31
A   51
 C2 
A   52
 C36
A   53
 C37
A   54
 C38
A   55
 C39
A   56
 C40
A   57
 O10
A   58
 O11
M  END
>  <ref_pdb>  (26) 
X0147_0A

>  <ref_mols>  (26) 
x0147

>  <original SMILES>  (26) 
CCOC(O)CC[C@H](CCC(N)O)NC(O)[C@H](CC1CCCCC1)NC(O)[C@H](CC(C)C)NC(O)[C@H](C)N[C@H](O)[C@H](CCC([O-])O)NC(O)[C@H](CC(C)C)N[C@H](C)O

$$$$
