LIG
     RDKit          3D

 12 13  0  0  1  0  0  0  0  0999 V2000
  -10.1562   14.9160  -36.6030 C   0  0  0  0  0  0  0  0  0  0  0  0
  -12.2468   13.9937  -37.6003 C   0  0  0  0  0  0  0  0  0  0  0  0
  -10.9454   14.7572  -37.8665 C   0  0  1  0  0  0  0  0  0  0  0  0
  -13.3031   15.0058  -38.0440 C   0  0  2  0  0  0  0  0  0  0  0  0
  -11.4628   16.1167  -38.3531 C   0  0  1  0  0  0  0  0  0  0  0  0
  -13.2762   15.1782  -39.5678 C   0  0  2  0  0  0  0  0  0  0  0  0
  -12.0287   16.0450  -39.7734 C   0  0  2  0  0  0  0  0  0  0  0  0
  -10.4666   14.4471  -35.5181 O   0  0  0  0  0  0  0  0  0  0  0  0
  -12.6951   16.2453  -37.6004 O   0  0  0  0  0  0  0  0  0  0  0  0
   -9.0434   15.6578  -36.8237 O   0  0  0  0  0  0  0  0  0  0  0  0
  -14.4352   15.8989  -39.9682 O   0  0  0  0  0  0  0  0  0  0  0  0
  -11.1127   15.4632  -40.6778 O   0  0  0  0  0  0  0  0  0  0  0  0
  3  1  1  1
  1  8  2  0
  1 10  1  0
  2  3  1  0
  4  2  1  6
  3  5  1  0
  4  6  1  0
  4  9  1  0
  5  7  1  0
  5  9  1  1
  6  7  1  0
  6 11  1  1
  7 12  1  6
M  END
>  <id>  (1) 
EN300-6764836

>  <smiles>  (1) 
OC1C(O)C2OC1CC2C(=O)O

>  <MDLNUMBER>  (1) 
MFCD24531237

>  <IUPAC Name>  (1) 
5,6-dihydroxy-7-oxabicyclo[2.2.1]heptane-2-carboxylic acid

>  <CAS>  (1) 
1822577-96-7

>  <Purity>  (1) 
95

>  <URL>  (1) 
https://www.enaminestore.com/catalog/EN300-6764836

>  <ROCS_ShapeQuery>  (1) 
__x1247relevant_x1083L0AP1_x1305L0BP1_

>  <ROCS_TanimotoCombo>  (1) 
0.765 

>  <ROCS_ShapeTanimoto>  (1) 
0.497 

>  <ROCS_ColorTanimoto>  (1) 
0.268 

>  <ROCS_RefTversky>  (1) 
0.408 

>  <ROCS_RefColorTversky>  (1) 
0.310 

>  <ROCS_RefTverskyCombo>  (1) 
0.717 

>  <ROCS_FitTversky>  (1) 
1.792 

>  <ROCS_FitColorTversky>  (1) 
0.664 

>  <ROCS_FitTverskyCombo>  (1) 
2.456 

>  <ROCS_ColorScore>  (1) 
-10.179

>  <ROCS_Overlap>  (1) 
1197.564

>  <ROCS_Rank>  (1) 
25                  

>  <Score>  (1) 
-0.65045990679004717

$$$$
LIG
     RDKit          3D

 12 14  0  0  1  0  0  0  0  0999 V2000
  -10.2208   14.4366  -36.8428 C   0  0  0  0  0  0  0  0  0  0  0  0
  -12.7268   14.4777  -36.7563 C   0  0  0  0  0  0  0  0  0  0  0  0
  -11.4766   14.2253  -37.6300 C   0  0  1  0  0  0  0  0  0  0  0  0
  -13.4122   15.6210  -37.5179 C   0  0  2  0  0  0  0  0  0  0  0  0
  -11.6305   15.2992  -38.7201 C   0  0  1  0  0  0  0  0  0  0  0  0
  -13.9634   15.0969  -38.8204 C   0  0  2  0  0  0  0  0  0  0  0  0
  -12.7467   14.8853  -39.6467 C   0  0  1  0  0  0  0  0  0  0  0  0
   -7.8654   14.4560  -37.0312 C   0  0  0  0  0  0  0  0  0  0  0  0
  -10.1974   14.7081  -35.6499 O   0  0  0  0  0  0  0  0  0  0  0  0
  -12.2415   16.3652  -37.9404 O   0  0  0  0  0  0  0  0  0  0  0  0
  -13.7150   15.8806  -39.9914 O   0  0  0  0  0  0  0  0  0  0  0  0
   -9.1396   14.2799  -37.6585 O   0  0  0  0  0  0  0  0  0  0  0  0
  3  1  1  1
  1  9  2  0
  1 12  1  0
  2  3  1  0
  4  2  1  1
  3  5  1  0
  4  6  1  0
  4 10  1  0
  5  7  1  0
  5 10  1  1
  6  7  1  0
  6 11  1  6
  7 11  1  6
  8 12  1  0
M  END
>  <id>  (2) 
EN300-718776

>  <smiles>  (2) 
COC(=O)C1CC2OC1C3OC32

>  <MDLNUMBER>  (2) 
MFCD00599873

>  <IUPAC Name>  (2) 
methyl 3,8-dioxatricyclo[3.2.1.0,2,4]octane-6-carboxylate

>  <CAS>  (2) 
827607-30-7

>  <URL>  (2) 
https://www.enaminestore.com/catalog/EN300-718776

>  <ROCS_ShapeQuery>  (2) 
__x1247relevant_x1083L0AP1_x1305L0BP1_

>  <ROCS_TanimotoCombo>  (2) 
0.761 

>  <ROCS_ShapeTanimoto>  (2) 
0.477 

>  <ROCS_ColorTanimoto>  (2) 
0.284 

>  <ROCS_RefTversky>  (2) 
0.398 

>  <ROCS_RefColorTversky>  (2) 
0.361 

>  <ROCS_RefTverskyCombo>  (2) 
0.759 

>  <ROCS_FitTversky>  (2) 
1.712 

>  <ROCS_FitColorTversky>  (2) 
0.570 

>  <ROCS_FitTverskyCombo>  (2) 
2.282 

>  <ROCS_ColorScore>  (2) 
-11.980

>  <ROCS_Overlap>  (2) 
1169.535

>  <ROCS_Rank>  (2) 
33                  

>  <Score>  (2) 
-0.024798642818723238

$$$$
LIG
     RDKit          3D

 13 16  0  0  1  0  0  0  0  0999 V2000
  -11.7177   15.0659  -39.4660 C   0  0  0  0  0  0  0  0  0  0  0  0
  -10.5064   13.4145  -37.1115 C   0  0  0  0  0  0  0  0  0  0  0  0
   -9.8857   15.7280  -37.0280 C   0  0  0  0  0  0  0  0  0  0  0  0
  -12.5413   14.0934  -38.5956 C   0  0  1  0  0  0  0  0  0  0  0  0
  -11.9603   16.2588  -38.5175 C   0  0  2  0  0  0  0  0  0  0  0  0
  -11.8121   14.2011  -37.2310 C   0  0  2  0  0  0  0  0  0  0  0  0
  -11.4073   15.7097  -37.1766 C   0  0  1  0  0  0  0  0  0  0  0  0
   -9.5624   14.3768  -36.3902 C   0  0  2  0  0  0  0  0  0  0  0  0
  -13.8671   14.8301  -38.4349 C   0  0  1  0  0  0  0  0  0  0  0  0
  -13.4796   16.2747  -38.3829 C   0  0  2  0  0  0  0  0  0  0  0  0
   -8.1001   13.9891  -36.5271 C   0  0  0  0  0  0  0  0  0  0  0  0
  -14.2573   15.7468  -39.4614 O   0  0  0  0  0  0  0  0  0  0  0  0
   -7.6261   13.9603  -38.2375 Cl  0  0  0  0  0  0  0  0  0  0  0  0
  4  1  1  6
  5  1  1  6
  6  2  1  6
  2  8  1  0
  7  3  1  6
  3  8  1  0
  4  6  1  0
  4  9  1  0
  5  7  1  0
  5 10  1  0
  6  7  1  0
  8 11  1  6
  9 10  1  0
  9 12  1  6
 10 12  1  6
 11 13  1  0
M  END
>  <id>  (3) 
EN300-8214141

>  <smiles>  (3) 
ClCC1CC2C3CC(C4OC43)C2C1

>  <MDLNUMBER>  (3) 
MFCD24512656

>  <IUPAC Name>  (3) 
4-(chloromethyl)-9-oxatetracyclo[5.3.1.0^{2,6}.0^{8,10}]undecane

>  <URL>  (3) 
https://www.enaminestore.com/catalog/EN300-8214141

>  <ROCS_ShapeQuery>  (3) 
__x1247relevant_x1083L0AP1_x1305L0BP1_

>  <ROCS_TanimotoCombo>  (3) 
0.747 

>  <ROCS_ShapeTanimoto>  (3) 
0.477 

>  <ROCS_ColorTanimoto>  (3) 
0.270 

>  <ROCS_RefTversky>  (3) 
0.401 

>  <ROCS_RefColorTversky>  (3) 
0.341 

>  <ROCS_RefTverskyCombo>  (3) 
0.742 

>  <ROCS_FitTversky>  (3) 
1.663 

>  <ROCS_FitColorTversky>  (3) 
0.564 

>  <ROCS_FitTverskyCombo>  (3) 
2.226 

>  <ROCS_ColorScore>  (3) 
-11.291

>  <ROCS_Overlap>  (3) 
1178.844

>  <ROCS_Rank>  (3) 
87                  

>  <Score>  (3) 
-0.75713347987516499

$$$$
LIG
     RDKit          3D

 15 16  0  0  0  0  0  0  0  0999 V2000
  -13.2893   16.3738  -40.2993 C   0  0  0  0  0  0  0  0  0  0  0  0
  -10.2253   14.6733  -36.7269 C   0  0  0  0  0  0  0  0  0  0  0  0
  -13.4935   16.0092  -37.6506 C   0  0  0  0  0  0  0  0  0  0  0  0
  -13.2591   14.2205  -38.7016 C   0  0  0  0  0  0  0  0  0  0  0  0
  -11.2862   15.7273  -38.7516 C   0  0  0  0  0  0  0  0  0  0  0  0
  -12.7546   14.6725  -37.2846 C   0  0  1  0  0  0  0  0  0  0  0  0
  -12.8019   15.6920  -39.0300 C   0  0  1  0  0  0  0  0  0  0  0  0
   -8.9433   14.4953  -37.4954 C   0  0  0  0  0  0  0  0  0  0  0  0
  -11.3251   14.9824  -37.4933 N   0  0  0  0  0  0  0  0  0  0  0  0
  -12.6075   17.0898  -41.0174 O   0  0  0  0  0  0  0  0  0  0  0  0
  -10.2521   14.5453  -35.5028 O   0  0  0  0  0  0  0  0  0  0  0  0
  -14.5928   16.0816  -40.5293 O   0  0  0  0  0  0  0  0  0  0  0  0
   -9.1494   14.6819  -38.8121 F   0  0  0  0  0  0  0  0  0  0  0  0
   -8.0157   15.3804  -37.0860 F   0  0  0  0  0  0  0  0  0  0  0  0
   -8.4475   13.2565  -37.3193 F   0  0  0  0  0  0  0  0  0  0  0  0
  7  1  1  6
  1 10  2  0
  1 12  1  0
  2  8  1  0
  2  9  1  0
  2 11  2  0
  6  3  1  6
  3  7  1  0
  4  6  1  0
  4  7  1  0
  5  7  1  0
  5  9  1  0
  6  9  1  0
  8 13  1  0
  8 14  1  0
  8 15  1  0
M  END
>  <id>  (4) 
EN300-28274149

>  <smiles>  (4) 
OC(=O)C1(CC2C1)CN2C(=O)C(F)(F)F

>  <IUPAC Name>  (4) 
2-(2,2,2-trifluoroacetyl)-2-azabicyclo[2.1.1]hexane-4-carboxylic acid

>  <CAS>  (4) 
2680841-96-5

>  <URL>  (4) 
https://www.enaminestore.com/catalog/EN300-28274149

>  <ROCS_ShapeQuery>  (4) 
__x1247relevant_x1083L0AP1_x1305L0BP1_

>  <ROCS_TanimotoCombo>  (4) 
0.739 

>  <ROCS_ShapeTanimoto>  (4) 
0.509 

>  <ROCS_ColorTanimoto>  (4) 
0.229 

>  <ROCS_RefTversky>  (4) 
0.430 

>  <ROCS_RefColorTversky>  (4) 
0.255 

>  <ROCS_RefTverskyCombo>  (4) 
0.685 

>  <ROCS_FitTversky>  (4) 
1.569 

>  <ROCS_FitColorTversky>  (4) 
0.697 

>  <ROCS_FitTverskyCombo>  (4) 
2.266 

>  <ROCS_ColorScore>  (4) 
-8.328

>  <ROCS_Overlap>  (4) 
1266.570

>  <ROCS_Rank>  (4) 
137                 

>  <Score>  (4) 
-0.66167648614100472

$$$$
LIG
     RDKit          3D

 13 14  0  0  1  0  0  0  0  0999 V2000
  -13.2695   16.4322  -40.3142 C   0  0  0  0  0  0  0  0  0  0  0  0
   -9.8880   14.8663  -36.9992 C   0  0  0  0  0  0  0  0  0  0  0  0
  -12.7722   14.2706  -39.0569 C   0  0  0  0  0  0  0  0  0  0  0  0
  -11.3011   16.1179  -38.7191 C   0  0  0  0  0  0  0  0  0  0  0  0
  -13.2960   15.0954  -36.9469 C   0  0  0  0  0  0  0  0  0  0  0  0
  -12.2386   14.2309  -37.6355 C   0  0  2  0  0  0  0  0  0  0  0  0
  -12.7579   15.7940  -39.0693 C   0  0  1  0  0  0  0  0  0  0  0  0
   -9.9147   13.6728  -36.0792 C   0  0  0  0  0  0  0  0  0  0  0  0
  -11.0304   15.0575  -37.7455 N   0  0  0  0  0  0  0  0  0  0  0  0
  -12.6236   17.1746  -41.0388 O   0  0  0  0  0  0  0  0  0  0  0  0
   -8.8964   15.5946  -37.0531 O   0  0  0  0  0  0  0  0  0  0  0  0
  -13.5674   16.1370  -37.9273 O   0  0  0  0  0  0  0  0  0  0  0  0
  -14.5590   16.0795  -40.5379 O   0  0  0  0  0  0  0  0  0  0  0  0
  7  1  1  6
  1 10  2  0
  1 13  1  0
  2  8  1  0
  2  9  1  0
  2 11  2  0
  3  6  1  0
  3  7  1  0
  4  7  1  0
  4  9  1  0
  6  5  1  1
  5 12  1  0
  6  9  1  0
  7 12  1  0
M  END
>  <id>  (5) 
EN300-39689768

>  <smiles>  (5) 
CC(=O)N1CC2(CC1CO2)C(=O)O

>  <IUPAC Name>  (5) 
5-acetyl-2-oxa-5-azabicyclo[2.2.1]heptane-1-carboxylic acid

>  <URL>  (5) 
https://www.enaminestore.com/catalog/EN300-39689768

>  <ROCS_ShapeQuery>  (5) 
__x1247relevant_x1083L0AP1_x1305L0BP1_

>  <ROCS_TanimotoCombo>  (5) 
0.725 

>  <ROCS_ShapeTanimoto>  (5) 
0.500 

>  <ROCS_ColorTanimoto>  (5) 
0.225 

>  <ROCS_RefTversky>  (5) 
0.415 

>  <ROCS_RefColorTversky>  (5) 
0.254 

>  <ROCS_RefTverskyCombo>  (5) 
0.669 

>  <ROCS_FitTversky>  (5) 
1.698 

>  <ROCS_FitColorTversky>  (5) 
0.662 

>  <ROCS_FitTverskyCombo>  (5) 
2.360 

>  <ROCS_ColorScore>  (5) 
-8.320

>  <ROCS_Overlap>  (5) 
1220.029

>  <ROCS_Rank>  (5) 
264                 

>  <Score>  (5) 
-0.45654615593821291

$$$$
LIG
     RDKit          3D

 13 14  0  0  1  0  0  0  0  0999 V2000
  -13.2694   16.4332  -40.3134 C   0  0  0  0  0  0  0  0  0  0  0  0
   -9.8867   14.8649  -37.0007 C   0  0  0  0  0  0  0  0  0  0  0  0
  -12.7721   14.2710  -39.0572 C   0  0  0  0  0  0  0  0  0  0  0  0
  -11.3004   16.1178  -38.7192 C   0  0  0  0  0  0  0  0  0  0  0  0
  -13.2948   15.0951  -36.9466 C   0  0  0  0  0  0  0  0  0  0  0  0
  -12.2379   14.2305  -37.6360 C   0  0  2  0  0  0  0  0  0  0  0  0
  -12.7574   15.7945  -39.0689 C   0  0  1  0  0  0  0  0  0  0  0  0
   -9.9135   13.6710  -36.0812 C   0  0  0  0  0  0  0  0  0  0  0  0
  -11.0295   15.0568  -37.7462 N   0  0  0  0  0  0  0  0  0  0  0  0
  -12.6237   17.1757  -41.0380 O   0  0  0  0  0  0  0  0  0  0  0  0
   -8.8948   15.5925  -37.0549 O   0  0  0  0  0  0  0  0  0  0  0  0
  -13.5662   16.1372  -37.9264 O   0  0  0  0  0  0  0  0  0  0  0  0
  -14.5591   16.0809  -40.5366 O   0  0  0  0  0  0  0  0  0  0  0  0
  7  1  1  6
  1 10  2  0
  1 13  1  0
  2  8  1  0
  2  9  1  0
  2 11  2  0
  3  6  1  0
  3  7  1  0
  4  7  1  0
  4  9  1  0
  6  5  1  1
  5 12  1  0
  6  9  1  0
  7 12  1  0
M  END
>  <id>  (6) 
EN300-39918118

>  <smiles>  (6) 
CC(=O)N1C[C@]2(C[C@@H]1CO2)C(=O)O

>  <IUPAC Name>  (6) 
(1R,4R)-5-acetyl-2-oxa-5-azabicyclo[2.2.1]heptane-1-carboxylic acid

>  <URL>  (6) 
https://www.enaminestore.com/catalog/EN300-39918118

>  <ROCS_ShapeQuery>  (6) 
__x1247relevant_x1083L0AP1_x1305L0BP1_

>  <ROCS_TanimotoCombo>  (6) 
0.725 

>  <ROCS_ShapeTanimoto>  (6) 
0.500 

>  <ROCS_ColorTanimoto>  (6) 
0.225 

>  <ROCS_RefTversky>  (6) 
0.415 

>  <ROCS_RefColorTversky>  (6) 
0.254 

>  <ROCS_RefTverskyCombo>  (6) 
0.669 

>  <ROCS_FitTversky>  (6) 
1.698 

>  <ROCS_FitColorTversky>  (6) 
0.662 

>  <ROCS_FitTverskyCombo>  (6) 
2.360 

>  <ROCS_ColorScore>  (6) 
-8.320

>  <ROCS_Overlap>  (6) 
1219.995

>  <ROCS_Rank>  (6) 
265                 

>  <Score>  (6) 
-0.45226456584964581

$$$$
LIG
     RDKit          3D

 11 13  0  0  1  0  0  0  0  0999 V2000
  -13.3682   14.2113  -37.5624 C   0  0  0  0  0  0  0  0  0  0  0  0
  -13.4603   15.7209  -37.4911 C   0  0  1  0  0  0  0  0  0  0  0  0
  -12.3472   14.1775  -38.7461 C   0  0  2  0  0  0  0  0  0  0  0  0
  -12.1470   16.2954  -37.9172 C   0  0  2  0  0  0  0  0  0  0  0  0
  -13.2937   16.2518  -38.8752 C   0  0  1  0  0  0  0  0  0  0  0  0
  -11.2097   15.1542  -38.2750 C   0  0  1  0  0  0  0  0  0  0  0  0
  -13.0828   15.0757  -39.7828 C   0  0  0  0  0  0  0  0  0  0  0  0
  -10.3660   14.6716  -37.1102 C   0  0  0  0  0  0  0  0  0  0  0  0
  -10.0990   13.2753  -37.2412 N   0  0  0  0  0  0  0  0  0  0  0  0
  -12.3185   15.3766  -40.8489 F   0  0  0  0  0  0  0  0  0  0  0  0
  -14.2412   14.5386  -40.2086 F   0  0  0  0  0  0  0  0  0  0  0  0
  2  1  1  6
  3  1  1  1
  2  4  1  0
  2  5  1  0
  3  6  1  0
  3  7  1  0
  4  5  1  0
  4  6  1  6
  5  7  1  6
  6  8  1  1
  7 10  1  0
  7 11  1  0
  8  9  1  0
M  END
>  <id>  (7) 
EN300-44825926

>  <smiles>  (7) 
NC[C@@H]1C2C3C[C@H]1C(F)(F)C32 |&1:2,6,r|

>  <IUPAC Name>  (7) 
rac-1-[(3R,4R)-5,5-difluorotricyclo[2.2.1.0,2,6]heptan-3-yl]methanamine

>  <URL>  (7) 
https://www.enaminestore.com/catalog/EN300-44825926

>  <ROCS_ShapeQuery>  (7) 
__x1247relevant_x1083L0AP1_x1305L0BP1_

>  <ROCS_TanimotoCombo>  (7) 
0.721 

>  <ROCS_ShapeTanimoto>  (7) 
0.441 

>  <ROCS_ColorTanimoto>  (7) 
0.280 

>  <ROCS_RefTversky>  (7) 
0.372 

>  <ROCS_RefColorTversky>  (7) 
0.416 

>  <ROCS_RefTverskyCombo>  (7) 
0.788 

>  <ROCS_FitTversky>  (7) 
1.715 

>  <ROCS_FitColorTversky>  (7) 
0.463 

>  <ROCS_FitTverskyCombo>  (7) 
2.178 

>  <ROCS_ColorScore>  (7) 
-13.991

>  <ROCS_Overlap>  (7) 
1093.389

>  <ROCS_Rank>  (7) 
321                 

>  <Score>  (7) 
-0.69439902652663932

$$$$
LIG
     RDKit          3D

 11 13  0  0  1  0  0  0  0  0999 V2000
   -9.5300   14.7397  -36.9304 C   0  0  0  0  0  0  0  0  0  0  0  0
  -13.6695   14.6025  -39.6895 C   0  0  0  0  0  0  0  0  0  0  0  0
  -13.4085   16.1298  -39.7223 C   0  0  0  0  0  0  0  0  0  0  0  0
  -13.7557   15.4510  -37.4829 C   0  0  0  0  0  0  0  0  0  0  0  0
  -10.9745   14.9847  -37.0427 C   0  0  2  0  0  0  0  0  0  0  0  0
  -13.2546   14.2172  -38.2499 C   0  0  2  0  0  0  0  0  0  0  0  0
  -12.8787   16.4150  -38.2972 C   0  0  1  0  0  0  0  0  0  0  0  0
  -11.7341   14.3301  -38.1757 C   0  0  1  0  0  0  0  0  0  0  0  0
  -11.4816   15.8065  -38.2075 C   0  0  2  0  0  0  0  0  0  0  0  0
   -9.1958   13.4071  -36.8805 N   0  0  0  0  0  0  0  0  0  0  0  0
   -8.7126   15.6565  -36.9028 O   0  0  0  0  0  0  0  0  0  0  0  0
  5  1  1  6
  1 10  1  0
  1 11  2  0
  2  3  1  0
  6  2  1  6
  7  3  1  6
  4  6  1  0
  4  7  1  0
  5  8  1  0
  5  9  1  0
  8  6  1  1
  9  7  1  1
  8  9  1  0
M  END
>  <id>  (8) 
EN300-764787

>  <smiles>  (8) 
NC(=O)[C@H]1[C@H]2[C@@H]1[C@@H]3CC[C@H]2C3

>  <IUPAC Name>  (8) 
(1R,2S,3R,4R,5S)-tricyclo[3.2.1.0,2,4]octane-3-carboxamide

>  <CAS>  (8) 
16529-69-4

>  <URL>  (8) 
https://www.enaminestore.com/catalog/EN300-764787

>  <ROCS_ShapeQuery>  (8) 
__x1247relevant_x1083L0AP1_x1305L0BP1_

>  <ROCS_TanimotoCombo>  (8) 
0.720 

>  <ROCS_ShapeTanimoto>  (8) 
0.463 

>  <ROCS_ColorTanimoto>  (8) 
0.257 

>  <ROCS_RefTversky>  (8) 
0.384 

>  <ROCS_RefColorTversky>  (8) 
0.327 

>  <ROCS_RefTverskyCombo>  (8) 
0.711 

>  <ROCS_FitTversky>  (8) 
1.805 

>  <ROCS_FitColorTversky>  (8) 
0.547 

>  <ROCS_FitTverskyCombo>  (8) 
2.352 

>  <ROCS_ColorScore>  (8) 
-10.823

>  <ROCS_Overlap>  (8) 
1126.724

>  <ROCS_Rank>  (8) 
333                 

>  <Score>  (8) 
-3.6381750038005976

$$$$
LIG
     RDKit          3D

 16 17  0  0  0  0  0  0  0  0999 V2000
  -13.5221   16.3696  -40.1996 C   0  0  0  0  0  0  0  0  0  0  0  0
  -10.0689   15.0718  -36.8141 C   0  0  0  0  0  0  0  0  0  0  0  0
  -12.9373   14.1253  -38.8518 C   0  0  0  0  0  0  0  0  0  0  0  0
  -13.5728   15.6781  -37.6092 C   0  0  0  0  0  0  0  0  0  0  0  0
  -11.3863   16.0627  -38.7257 C   0  0  0  0  0  0  0  0  0  0  0  0
  -12.5246   14.5291  -37.3913 C   0  0  2  0  0  0  0  0  0  0  0  0
  -12.8554   15.6912  -39.0128 C   0  0  2  0  0  0  0  0  0  0  0  0
   -8.4376   13.1552  -37.0167 C   0  0  0  0  0  0  0  0  0  0  0  0
   -8.5342   13.0891  -34.5076 C   0  0  0  0  0  0  0  0  0  0  0  0
  -10.1998   11.7815  -35.8582 C   0  0  0  0  0  0  0  0  0  0  0  0
   -9.3519   13.0511  -35.7968 C   0  0  0  0  0  0  0  0  0  0  0  0
  -11.2187   15.1980  -37.5593 N   0  0  0  0  0  0  0  0  0  0  0  0
  -14.7163   16.3230  -40.4548 O   0  0  0  0  0  0  0  0  0  0  0  0
   -9.0275   15.6817  -37.0442 O   0  0  0  0  0  0  0  0  0  0  0  0
  -12.6078   17.0369  -40.9453 O   0  0  0  0  0  0  0  0  0  0  0  0
  -10.2276   14.1840  -35.7858 O   0  0  0  0  0  0  0  0  0  0  0  0
  7  1  1  6
  1 13  2  0
  1 15  1  0
  2 12  1  0
  2 14  2  0
  2 16  1  0
  6  3  1  6
  3  7  1  0
  4  6  1  0
  4  7  1  0
  5  7  1  0
  5 12  1  0
  6 12  1  0
  8 11  1  0
  9 11  1  0
 10 11  1  0
 11 16  1  0
M  END
>  <id>  (9) 
EN300-7354076

>  <smiles>  (9) 
CC(C)(C)OC(=O)N1CC2(CC1C2)C(=O)O

>  <MDLNUMBER>  (9) 
MFCD28501912

>  <IUPAC Name>  (9) 
2-[(tert-butoxy)carbonyl]-2-azabicyclo[2.1.1]hexane-4-carboxylic acid

>  <CAS>  (9) 
220598-45-8

>  <Purity>  (9) 
95

>  <URL>  (9) 
https://www.enaminestore.com/catalog/EN300-7354076

>  <ROCS_ShapeQuery>  (9) 
__x1247relevant_x1083L0AP1_x1305L0BP1_

>  <ROCS_TanimotoCombo>  (9) 
0.718 

>  <ROCS_ShapeTanimoto>  (9) 
0.497 

>  <ROCS_ColorTanimoto>  (9) 
0.221 

>  <ROCS_RefTversky>  (9) 
0.426 

>  <ROCS_RefColorTversky>  (9) 
0.252 

>  <ROCS_RefTverskyCombo>  (9) 
0.678 

>  <ROCS_FitTversky>  (9) 
1.511 

>  <ROCS_FitColorTversky>  (9) 
0.641 

>  <ROCS_FitTverskyCombo>  (9) 
2.151 

>  <ROCS_ColorScore>  (9) 
-8.262

>  <ROCS_Overlap>  (9) 
1254.973

>  <ROCS_Rank>  (9) 
345                 

>  <Score>  (9) 
-2.2934919134200982

$$$$
LIG
     RDKit          3D

 16 17  0  0  0  0  0  0  0  0999 V2000
  -13.5223   16.3696  -40.1996 C   0  0  0  0  0  0  0  0  0  0  0  0
  -10.0687   15.0715  -36.8145 C   0  0  0  0  0  0  0  0  0  0  0  0
  -12.9376   14.1256  -38.8520 C   0  0  0  0  0  0  0  0  0  0  0  0
  -13.5724   15.6782  -37.6087 C   0  0  0  0  0  0  0  0  0  0  0  0
  -11.3864   16.0627  -38.7259 C   0  0  0  0  0  0  0  0  0  0  0  0
  -12.5244   14.5289  -37.3914 C   0  0  2  0  0  0  0  0  0  0  0  0
  -12.8556   15.6916  -39.0125 C   0  0  2  0  0  0  0  0  0  0  0  0
   -8.4371   13.1547  -37.0165 C   0  0  0  0  0  0  0  0  0  0  0  0
   -8.5348   13.0885  -34.5075 C   0  0  0  0  0  0  0  0  0  0  0  0
  -10.1998   11.7809  -35.8588 C   0  0  0  0  0  0  0  0  0  0  0  0
   -9.3519   13.0506  -35.7971 C   0  0  0  0  0  0  0  0  0  0  0  0
  -11.2184   15.1977  -37.5597 N   0  0  0  0  0  0  0  0  0  0  0  0
  -14.7164   16.3227  -40.4550 O   0  0  0  0  0  0  0  0  0  0  0  0
   -9.0275   15.6815  -37.0441 O   0  0  0  0  0  0  0  0  0  0  0  0
  -12.6080   17.0369  -40.9453 O   0  0  0  0  0  0  0  0  0  0  0  0
  -10.2276   14.1835  -35.7864 O   0  0  0  0  0  0  0  0  0  0  0  0
  7  1  1  6
  1 13  2  0
  1 15  1  0
  2 12  1  0
  2 14  2  0
  2 16  1  0
  6  3  1  6
  3  7  1  0
  4  6  1  0
  4  7  1  0
  5  7  1  0
  5 12  1  0
  6 12  1  0
  8 11  1  0
  9 11  1  0
 10 11  1  0
 11 16  1  0
M  END
>  <id>  (10) 
EN300-28309295

>  <smiles>  (10) 
CC(C)(C)OC(=O)N1C[C@]2(C[C@@H]1C2)C(=O)O

>  <IUPAC Name>  (10) 
(4r)-2-[(tert-butoxy)carbonyl]-2-azabicyclo[2.1.1]hexane-4-carboxylic acid

>  <CAS>  (10) 
220598-45-8

>  <URL>  (10) 
https://www.enaminestore.com/catalog/EN300-28309295

>  <ROCS_ShapeQuery>  (10) 
__x1247relevant_x1083L0AP1_x1305L0BP1_

>  <ROCS_TanimotoCombo>  (10) 
0.718 

>  <ROCS_ShapeTanimoto>  (10) 
0.497 

>  <ROCS_ColorTanimoto>  (10) 
0.221 

>  <ROCS_RefTversky>  (10) 
0.426 

>  <ROCS_RefColorTversky>  (10) 
0.252 

>  <ROCS_RefTverskyCombo>  (10) 
0.678 

>  <ROCS_FitTversky>  (10) 
1.511 

>  <ROCS_FitColorTversky>  (10) 
0.641 

>  <ROCS_FitTverskyCombo>  (10) 
2.151 

>  <ROCS_ColorScore>  (10) 
-8.262

>  <ROCS_Overlap>  (10) 
1254.970

>  <ROCS_Rank>  (10) 
346                 

>  <Score>  (10) 
-2.2925783499504178

$$$$
LIG
     RDKit          3D

 14 16  0  0  1  0  0  0  0  0999 V2000
   -9.7164   14.2573  -36.0207 C   0  0  0  0  0  0  0  0  0  0  0  0
   -9.0885   15.1622  -36.9001 C   0  0  0  0  0  0  0  0  0  0  0  0
  -11.0497   13.8827  -36.2038 C   0  0  0  0  0  0  0  0  0  0  0  0
   -9.7795   15.7136  -37.9829 C   0  0  0  0  0  0  0  0  0  0  0  0
  -11.7173   14.4262  -37.2799 C   0  0  0  0  0  0  0  0  0  0  0  0
  -11.0921   15.3310  -38.1608 C   0  0  0  0  0  0  0  0  0  0  0  0
  -11.6493   16.2529  -40.4702 C   0  0  0  0  0  0  0  0  0  0  0  0
  -13.8811   15.5943  -37.4802 C   0  0  0  0  0  0  0  0  0  0  0  0
  -13.1928   16.5981  -38.4493 C   0  0  0  0  0  0  0  0  0  0  0  0
  -12.8932   14.3832  -39.2677 C   0  0  0  0  0  0  0  0  0  0  0  0
  -13.1434   14.2665  -37.7529 C   0  0  1  0  0  0  0  0  0  0  0  0
  -12.1433   15.7277  -39.1725 C   0  0  2  0  0  0  0  0  0  0  0  0
  -10.5947   15.9358  -41.0000 O   0  0  0  0  0  0  0  0  0  0  0  0
  -12.5296   17.1409  -40.9936 O   0  0  0  0  0  0  0  0  0  0  0  0
  1  2  2  0
  1  3  1  0
  2  4  1  0
  3  5  2  0
  4  6  2  0
  5  6  1  0
  5 11  1  0
  6 12  1  0
 12  7  1  6
  7 13  2  0
  7 14  1  0
  8  9  1  0
 11  8  1  1
  9 12  1  0
 10 11  1  0
 10 12  1  0
M  END
>  <id>  (11) 
EN300-7354809

>  <smiles>  (11) 
OC(=O)C1(CCC2C1)C=3C=CC=CC23

>  <MDLNUMBER>  (11) 
MFCD20640097

>  <IUPAC Name>  (11) 
tricyclo[6.2.1.0,2,7]undeca-2,4,6-triene-1-carboxylic acid

>  <CAS>  (11) 
13733-46-5

>  <Purity>  (11) 
95

>  <URL>  (11) 
https://www.enaminestore.com/catalog/EN300-7354809

>  <MP>  (11) 
93-94

>  <ROCS_ShapeQuery>  (11) 
__x1247relevant_x1083L0AP1_x1305L0BP1_

>  <ROCS_TanimotoCombo>  (11) 
0.717 

>  <ROCS_ShapeTanimoto>  (11) 
0.511 

>  <ROCS_ColorTanimoto>  (11) 
0.206 

>  <ROCS_RefTversky>  (11) 
0.427 

>  <ROCS_RefColorTversky>  (11) 
0.231 

>  <ROCS_RefTverskyCombo>  (11) 
0.659 

>  <ROCS_FitTversky>  (11) 
1.628 

>  <ROCS_FitColorTversky>  (11) 
0.653 

>  <ROCS_FitTverskyCombo>  (11) 
2.281 

>  <ROCS_ColorScore>  (11) 
-7.561

>  <ROCS_Overlap>  (11) 
1257.452

>  <ROCS_Rank>  (11) 
364                 

>  <Score>  (11) 
-1.1279876405460527

$$$$
LIG
     RDKit          3D

 11 12  0  0  1  0  0  0  0  0999 V2000
  -13.8504   15.9221  -39.1422 C   0  0  0  0  0  0  0  0  0  0  0  0
  -13.9905   15.7842  -37.6248 C   0  0  0  0  0  0  0  0  0  0  0  0
  -11.3431   15.8324  -38.9376 C   0  0  0  0  0  0  0  0  0  0  0  0
  -12.5941   15.0991  -39.4235 C   0  0  1  0  0  0  0  0  0  0  0  0
  -12.7809   14.9206  -37.2702 C   0  0  2  0  0  0  0  0  0  0  0  0
  -11.4904   15.7298  -37.4172 C   0  0  1  0  0  0  0  0  0  0  0  0
  -10.2467   13.3843  -37.4703 N   0  0  0  0  0  0  0  0  0  0  0  0
   -8.9018   15.5475  -37.1118 O   0  0  0  0  0  0  0  0  0  0  0  0
  -10.4119   14.7050  -35.2691 O   0  0  0  0  0  0  0  0  0  0  0  0
  -12.7133   14.0557  -38.4306 O   0  0  0  0  0  0  0  0  0  0  0  0
  -10.1211   14.8888  -36.6794 S   0  0  0  0  0  0  0  0  0  0  0  0
  1  2  1  0
  4  1  1  1
  5  2  1  6
  3  4  1  0
  3  6  1  0
  4 10  1  0
  5  6  1  0
  5 10  1  0
  6 11  1  6
  7 11  1  0
  8 11  2  0
  9 11  2  0
M  END
>  <id>  (12) 
EN300-245165

>  <smiles>  (12) 
NS(=O)(=O)C1CC2CCC1O2

>  <MDLNUMBER>  (12) 
MFCD29041209

>  <IUPAC Name>  (12) 
7-oxabicyclo[2.2.1]heptane-2-sulfonamide

>  <CAS>  (12) 
1864058-40-1

>  <Purity>  (12) 
95

>  <URL>  (12) 
https://www.enaminestore.com/catalog/EN300-245165

>  <ROCS_ShapeQuery>  (12) 
__x1247relevant_x1083L0AP1_x1305L0BP1_

>  <ROCS_TanimotoCombo>  (12) 
0.717 

>  <ROCS_ShapeTanimoto>  (12) 
0.448 

>  <ROCS_ColorTanimoto>  (12) 
0.269 

>  <ROCS_RefTversky>  (12) 
0.373 

>  <ROCS_RefColorTversky>  (12) 
0.287 

>  <ROCS_RefTverskyCombo>  (12) 
0.660 

>  <ROCS_FitTversky>  (12) 
1.821 

>  <ROCS_FitColorTversky>  (12) 
0.813 

>  <ROCS_FitTverskyCombo>  (12) 
2.635 

>  <ROCS_ColorScore>  (12) 
-9.385

>  <ROCS_Overlap>  (12) 
1093.424

>  <ROCS_Rank>  (12) 
367                 

>  <Score>  (12) 
-1.4317071420889533

$$$$
LIG
     RDKit          3D

 13 15  0  0  1  0  0  0  0  0999 V2000
  -12.1313   16.6504  -38.6704 C   0  0  0  0  0  0  0  0  0  0  0  0
  -11.2979   15.6134  -38.8393 C   0  0  0  0  0  0  0  0  0  0  0  0
   -9.5341   14.9431  -36.8238 C   0  0  0  0  0  0  0  0  0  0  0  0
  -13.4067   14.8788  -39.4272 C   0  0  0  0  0  0  0  0  0  0  0  0
  -13.5654   15.3929  -37.1043 C   0  0  0  0  0  0  0  0  0  0  0  0
  -10.5782   12.8996  -36.5354 C   0  0  0  0  0  0  0  0  0  0  0  0
  -13.5187   16.0828  -38.4866 C   0  0  1  0  0  0  0  0  0  0  0  0
  -12.1292   14.3539  -38.7591 C   0  0  2  0  0  0  0  0  0  0  0  0
  -12.6410   14.1522  -37.3080 C   0  0  1  0  0  0  0  0  0  0  0  0
  -11.5540   14.0237  -36.2520 C   0  0  2  0  0  0  0  0  0  0  0  0
   -9.4346   13.5878  -37.0361 N   0  0  0  0  0  0  0  0  0  0  0  0
   -8.6870   15.7888  -37.0735 O   0  0  0  0  0  0  0  0  0  0  0  0
  -10.7533   15.2238  -36.2625 O   0  0  0  0  0  0  0  0  0  0  0  0
  1  2  2  0
  1  7  1  0
  8  2  1  1
  3 11  1  0
  3 12  2  0
  3 13  1  0
  4  7  1  0
  4  8  1  0
  7  5  1  1
  9  5  1  1
 10  6  1  6
  6 11  1  0
  8  9  1  0
  9 10  1  0
 10 13  1  0
M  END
>  <id>  (13) 
EN300-1823247

>  <smiles>  (13) 
O=C1NCC(O1)C2CC3CC2C=C3

>  <IUPAC Name>  (13) 
5-{bicyclo[2.2.1]hept-5-en-2-yl}-1,3-oxazolidin-2-one

>  <CAS>  (13) 
2228987-40-2

>  <URL>  (13) 
https://www.enaminestore.com/catalog/EN300-1823247

>  <ROCS_ShapeQuery>  (13) 
__x1247relevant_x1083L0AP1_x1305L0BP1_

>  <ROCS_TanimotoCombo>  (13) 
0.714 

>  <ROCS_ShapeTanimoto>  (13) 
0.496 

>  <ROCS_ColorTanimoto>  (13) 
0.218 

>  <ROCS_RefTversky>  (13) 
0.413 

>  <ROCS_RefColorTversky>  (13) 
0.237 

>  <ROCS_RefTverskyCombo>  (13) 
0.650 

>  <ROCS_FitTversky>  (13) 
1.680 

>  <ROCS_FitColorTversky>  (13) 
0.731 

>  <ROCS_FitTverskyCombo>  (13) 
2.412 

>  <ROCS_ColorScore>  (13) 
-7.736

>  <ROCS_Overlap>  (13) 
1215.140

>  <ROCS_Rank>  (13) 
407                 

>  <Score>  (13) 
-0.933962676644569

$$$$
LIG
     RDKit          3D

 17 18  0  0  1  0  0  0  0  0999 V2000
  -14.3157   15.0714  -40.3588 C   0  0  0  0  0  0  0  0  0  0  0  0
   -9.9360   14.8521  -37.0783 C   0  0  0  0  0  0  0  0  0  0  0  0
  -12.0622   15.8600  -39.5291 C   0  0  0  0  0  0  0  0  0  0  0  0
  -13.3382   15.9706  -37.5301 C   0  0  0  0  0  0  0  0  0  0  0  0
  -12.2621   13.8701  -37.3585 C   0  0  0  0  0  0  0  0  0  0  0  0
  -13.1006   14.7159  -39.5586 C   0  0  1  0  0  0  0  0  0  0  0  0
  -13.4596   14.5337  -38.0632 C   0  0  2  0  0  0  0  0  0  0  0  0
  -11.9002   16.1238  -38.0202 C   0  0  1  0  0  0  0  0  0  0  0  0
   -9.7428   14.6821  -34.4721 C   0  0  0  0  0  0  0  0  0  0  0  0
   -9.5274   12.1895  -34.6953 C   0  0  0  0  0  0  0  0  0  0  0  0
   -7.5960   13.6719  -35.3120 C   0  0  0  0  0  0  0  0  0  0  0  0
   -9.1180   13.5418  -35.2747 C   0  0  0  0  0  0  0  0  0  0  0  0
  -11.2650   14.9377  -37.4357 N   0  0  0  0  0  0  0  0  0  0  0  0
  -15.0399   14.2691  -40.9292 O   0  0  0  0  0  0  0  0  0  0  0  0
   -9.1358   15.7805  -37.1621 O   0  0  0  0  0  0  0  0  0  0  0  0
  -14.5063   16.4133  -40.3691 O   0  0  0  0  0  0  0  0  0  0  0  0
   -9.6138   13.6042  -36.6165 O   0  0  0  0  0  0  0  0  0  0  0  0
  6  1  1  6
  1 14  2  0
  1 16  1  0
  2 13  1  0
  2 15  2  0
  2 17  1  0
  3  6  1  0
  8  3  1  6
  4  7  1  0
  4  8  1  0
  7  5  1  1
  5 13  1  0
  6  7  1  0
  8 13  1  0
  9 12  1  0
 10 12  1  0
 11 12  1  0
 12 17  1  0
M  END
>  <id>  (14) 
EN300-218912

>  <smiles>  (14) 
CC(C)(C)OC(=O)N1CC2CC1CC2C(=O)O

>  <MDLNUMBER>  (14) 
MFCD22209677

>  <IUPAC Name>  (14) 
2-[(tert-butoxy)carbonyl]-2-azabicyclo[2.2.1]heptane-5-carboxylic acid

>  <CAS>  (14) 
1363210-41-6

>  <URL>  (14) 
https://www.enaminestore.com/catalog/EN300-218912

>  <ROCS_ShapeQuery>  (14) 
__x1247relevant_x1083L0AP1_x1305L0BP1_

>  <ROCS_TanimotoCombo>  (14) 
0.714 

>  <ROCS_ShapeTanimoto>  (14) 
0.524 

>  <ROCS_ColorTanimoto>  (14) 
0.189 

>  <ROCS_RefTversky>  (14) 
0.446 

>  <ROCS_RefColorTversky>  (14) 
0.220 

>  <ROCS_RefTverskyCombo>  (14) 
0.666 

>  <ROCS_FitTversky>  (14) 
1.501 

>  <ROCS_FitColorTversky>  (14) 
0.576 

>  <ROCS_FitTverskyCombo>  (14) 
2.077 

>  <ROCS_ColorScore>  (14) 
-7.200

>  <ROCS_Overlap>  (14) 
1316.272

>  <ROCS_Rank>  (14) 
416                 

>  <Score>  (14) 
-0.99303923116440274

$$$$
LIG
     RDKit          3D

 15 17  0  0  1  0  0  0  0  0999 V2000
  -11.6784   16.0315  -38.7728 C   0  0  0  0  0  0  0  0  0  0  0  0
  -11.9878   14.9688  -37.9132 C   0  0  0  0  0  0  0  0  0  0  0  0
  -12.7637   16.1333  -39.6129 C   0  0  0  0  0  0  0  0  0  0  0  0
  -15.2048   15.7626  -40.8998 C   0  0  0  0  0  0  0  0  0  0  0  0
  -14.8750   14.9688  -39.8761 C   0  0  0  0  0  0  0  0  0  0  0  0
  -14.1859   16.7880  -41.2392 C   0  0  0  0  0  0  0  0  0  0  0  0
   -9.1214   13.6501  -37.9198 C   0  0  0  0  0  0  0  0  0  0  0  0
   -8.3035   14.6301  -37.0926 C   0  0  0  0  0  0  0  0  0  0  0  0
  -10.2497   15.4371  -36.0353 C   0  0  0  0  0  0  0  0  0  0  0  0
  -11.1339   14.4168  -36.7768 C   0  0  2  0  0  0  0  0  0  0  0  0
  -13.1756   14.4221  -38.1702 N   0  0  0  0  0  0  0  0  0  0  0  0
  -13.0439   16.9740  -40.6497 N   0  0  0  0  0  0  0  0  0  0  0  0
  -13.6592   15.1375  -39.2192 N   0  0  0  0  0  0  0  0  0  0  0  0
  -10.3230   13.2587  -37.1880 N   0  0  0  0  0  0  0  0  0  0  0  0
   -9.0824   15.7838  -36.7835 O   0  0  0  0  0  0  0  0  0  0  0  0
  1  2  1  0
  1  3  2  0
 10  2  1  6
  2 11  2  0
  3 12  1  0
  3 13  1  0
  4  5  2  0
  4  6  1  0
  5 13  1  0
  6 12  2  0
  7  8  1  0
  7 14  1  0
  8 15  1  0
  9 10  1  0
  9 15  1  0
 10 14  1  0
 11 13  1  0
M  END
>  <id>  (15) 
EN300-1746838

>  <smiles>  (15) 
C1COCC(N1)C=2C=C3N=CC=CN3N2

>  <IUPAC Name>  (15) 
3-{pyrazolo[1,5-a]pyrimidin-2-yl}morpholine

>  <CAS>  (15) 
2228484-85-1

>  <URL>  (15) 
https://www.enaminestore.com/catalog/EN300-1746838

>  <ROCS_ShapeQuery>  (15) 
__x1247relevant_x1083L0AP1_x1305L0BP1_

>  <ROCS_TanimotoCombo>  (15) 
0.713 

>  <ROCS_ShapeTanimoto>  (15) 
0.511 

>  <ROCS_ColorTanimoto>  (15) 
0.203 

>  <ROCS_RefTversky>  (15) 
0.432 

>  <ROCS_RefColorTversky>  (15) 
0.217 

>  <ROCS_RefTverskyCombo>  (15) 
0.648 

>  <ROCS_FitTversky>  (15) 
1.562 

>  <ROCS_FitColorTversky>  (15) 
0.757 

>  <ROCS_FitTverskyCombo>  (15) 
2.319 

>  <ROCS_ColorScore>  (15) 
-7.055

>  <ROCS_Overlap>  (15) 
1271.245

>  <ROCS_Rank>  (15) 
423                 

>  <Score>  (15) 
-0.79591481862917135

$$$$
LIG
     RDKit          3D

 17 18  0  0  1  0  0  0  0  0999 V2000
   -9.6314   14.8587  -37.1271 C   0  0  0  0  0  0  0  0  0  0  0  0
  -13.4935   14.3757  -39.5558 C   0  0  0  0  0  0  0  0  0  0  0  0
  -13.3736   15.8705  -39.8092 C   0  0  0  0  0  0  0  0  0  0  0  0
  -11.8097   13.8990  -37.7226 C   0  0  0  0  0  0  0  0  0  0  0  0
  -13.2667   14.2315  -38.0520 C   0  0  1  0  0  0  0  0  0  0  0  0
  -12.8881   16.4407  -38.4781 C   0  0  2  0  0  0  0  0  0  0  0  0
  -11.3587   16.3646  -38.2237 C   0  0  2  0  0  0  0  0  0  0  0  0
   -9.8445   14.6099  -34.5236 C   0  0  0  0  0  0  0  0  0  0  0  0
   -9.7232   12.1162  -34.7990 C   0  0  0  0  0  0  0  0  0  0  0  0
   -7.6485   13.5063  -35.0659 C   0  0  0  0  0  0  0  0  0  0  0  0
  -10.5489   16.8145  -39.4457 C   0  0  0  0  0  0  0  0  0  0  0  0
   -9.1631   13.4591  -35.2626 C   0  0  0  0  0  0  0  0  0  0  0  0
  -13.5909   15.5651  -37.5299 N   0  0  0  0  0  0  0  0  0  0  0  0
  -10.8955   15.0477  -37.7138 N   0  0  0  0  0  0  0  0  0  0  0  0
   -8.7704   15.7342  -37.0522 O   0  0  0  0  0  0  0  0  0  0  0  0
  -10.4925   15.7366  -40.3568 O   0  0  0  0  0  0  0  0  0  0  0  0
   -9.4454   13.5848  -36.6610 O   0  0  0  0  0  0  0  0  0  0  0  0
  1 14  1  0
  1 15  2  0
  1 17  1  0
  2  3  1  0
  5  2  1  6
  6  3  1  6
  4  5  1  0
  4 14  1  0
  5 13  1  0
  6  7  1  0
  6 13  1  0
  7 11  1  6
  7 14  1  0
  8 12  1  0
  9 12  1  0
 10 12  1  0
 11 16  1  0
 12 17  1  0
M  END
>  <id>  (16) 
EN300-28263340

>  <smiles>  (16) 
CC(C)(C)OC(=O)N1C[C@@H]2CC[C@@H](N2)[C@@H]1CO |&1:9,12,14,r|

>  <IUPAC Name>  (16) 
rac-tert-butyl (1R,2R,5S)-2-(hydroxymethyl)-3,8-diazabicyclo[3.2.1]octane-3-carboxylate

>  <CAS>  (16) 
2679950-12-8

>  <Purity>  (16) 
95

>  <URL>  (16) 
https://www.enaminestore.com/catalog/EN300-28263340

>  <ROCS_ShapeQuery>  (16) 
__x1247relevant_x1083L0AP1_x1305L0BP1_

>  <ROCS_TanimotoCombo>  (16) 
0.710 

>  <ROCS_ShapeTanimoto>  (16) 
0.513 

>  <ROCS_ColorTanimoto>  (16) 
0.197 

>  <ROCS_RefTversky>  (16) 
0.439 

>  <ROCS_RefColorTversky>  (16) 
0.230 

>  <ROCS_RefTverskyCombo>  (16) 
0.669 

>  <ROCS_FitTversky>  (16) 
1.491 

>  <ROCS_FitColorTversky>  (16) 
0.584 

>  <ROCS_FitTverskyCombo>  (16) 
2.075 

>  <ROCS_ColorScore>  (16) 
-7.520

>  <ROCS_Overlap>  (16) 
1294.110

>  <ROCS_Rank>  (16) 
486                 

>  <Score>  (16) 
-0.53244373597158301

$$$$
LIG
     RDKit          3D

 23 25  0  0  1  0  0  0  0  0999 V2000
  -11.7995   13.2659  -42.7837 C   0  0  0  0  0  0  0  0  0  0  0  0
  -11.8827   14.0496  -41.6381 C   0  0  0  0  0  0  0  0  0  0  0  0
  -12.9796   12.7838  -43.3268 C   0  0  0  0  0  0  0  0  0  0  0  0
  -13.1258   14.3233  -41.0786 C   0  0  0  0  0  0  0  0  0  0  0  0
  -14.2465   13.7941  -41.6981 C   0  0  0  0  0  0  0  0  0  0  0  0
   -9.8785   14.6537  -37.0067 C   0  0  0  0  0  0  0  0  0  0  0  0
  -11.8322   16.9041  -38.4020 C   0  0  0  0  0  0  0  0  0  0  0  0
  -12.0213   16.2160  -39.7685 C   0  0  0  0  0  0  0  0  0  0  0  0
  -13.4333   15.3681  -37.2812 C   0  0  0  0  0  0  0  0  0  0  0  0
  -11.9613   13.7030  -38.0922 C   0  0  0  0  0  0  0  0  0  0  0  0
  -13.2860   14.3980  -38.4667 C   0  0  2  0  0  0  0  0  0  0  0  0
  -12.0227   15.9404  -37.2235 C   0  0  1  0  0  0  0  0  0  0  0  0
  -13.1966   15.1899  -39.8153 C   0  0  2  0  0  0  0  0  0  0  0  0
   -9.7836   14.1487  -34.4383 C   0  0  0  0  0  0  0  0  0  0  0  0
   -9.4686   11.7150  -34.9741 C   0  0  0  0  0  0  0  0  0  0  0  0
   -7.5695   13.3247  -35.3062 C   0  0  0  0  0  0  0  0  0  0  0  0
   -9.0860   13.1438  -35.3539 C   0  0  0  0  0  0  0  0  0  0  0  0
  -14.2053   13.0286  -42.8117 N   0  0  0  0  0  0  0  0  0  0  0  0
  -11.1979   14.7472  -37.4097 N   0  0  0  0  0  0  0  0  0  0  0  0
   -9.1088   15.6086  -36.9330 O   0  0  0  0  0  0  0  0  0  0  0  0
  -14.4319   15.9128  -39.9646 O   0  0  0  0  0  0  0  0  0  0  0  0
   -9.5297   13.3667  -36.6968 O   0  0  0  0  0  0  0  0  0  0  0  0
  -15.9829   14.1284  -40.9866 Br  0  0  0  0  0  0  0  0  0  0  0  0
  1  2  2  0
  1  3  1  0
  2  4  1  0
  3 18  2  0
  4  5  2  0
  4 13  1  0
  5 18  1  0
  5 23  1  0
  6 19  1  0
  6 20  2  0
  6 22  1  0
  7  8  1  0
 12  7  1  6
  8 13  1  0
  9 11  1  0
  9 12  1  0
 11 10  1  1
 10 19  1  0
 11 13  1  0
 12 19  1  0
 13 21  1  6
 14 17  1  0
 15 17  1  0
 16 17  1  0
 17 22  1  0
M  END
>  <id>  (17) 
EN300-7428889

>  <smiles>  (17) 
CC(C)(C)OC(=O)N1CC2CC1CCC2(O)C=3C=CC=NC3Br

>  <IUPAC Name>  (17) 
tert-butyl 2-(2-bromopyridin-3-yl)-2-hydroxy-6-azabicyclo[3.2.1]octane-6-carboxylate

>  <CAS>  (17) 
2309466-99-5

>  <URL>  (17) 
https://www.enaminestore.com/catalog/EN300-7428889

>  <ROCS_ShapeQuery>  (17) 
__x1247relevant_x1083L0AP1_x1305L0BP1_

>  <ROCS_TanimotoCombo>  (17) 
0.710 

>  <ROCS_ShapeTanimoto>  (17) 
0.489 

>  <ROCS_ColorTanimoto>  (17) 
0.221 

>  <ROCS_RefTversky>  (17) 
0.454 

>  <ROCS_RefColorTversky>  (17) 
0.257 

>  <ROCS_RefTverskyCombo>  (17) 
0.711 

>  <ROCS_FitTversky>  (17) 
1.188 

>  <ROCS_FitColorTversky>  (17) 
0.608 

>  <ROCS_FitTverskyCombo>  (17) 
1.795 

>  <ROCS_ColorScore>  (17) 
-8.441

>  <ROCS_Overlap>  (17) 
1345.425

>  <ROCS_Rank>  (17) 
494                 

>  <Score>  (17) 
-0.34717095265784792

$$$$
LIG
     RDKit          3D

 12 13  0  0  1  0  0  0  0  0999 V2000
  -10.1562   14.9160  -36.6030 C   0  0  0  0  0  0  0  0  0  0  0  0
  -12.2468   13.9937  -37.6003 C   0  0  0  0  0  0  0  0  0  0  0  0
  -10.9454   14.7572  -37.8665 C   0  0  1  0  0  0  0  0  0  0  0  0
  -13.3031   15.0058  -38.0440 C   0  0  2  0  0  0  0  0  0  0  0  0
  -11.4628   16.1167  -38.3531 C   0  0  1  0  0  0  0  0  0  0  0  0
  -13.2762   15.1782  -39.5678 C   0  0  2  0  0  0  0  0  0  0  0  0
  -12.0287   16.0450  -39.7734 C   0  0  2  0  0  0  0  0  0  0  0  0
  -10.4666   14.4471  -35.5181 O   0  0  0  0  0  0  0  0  0  0  0  0
  -12.6951   16.2453  -37.6004 O   0  0  0  0  0  0  0  0  0  0  0  0
   -9.0434   15.6578  -36.8237 O   0  0  0  0  0  0  0  0  0  0  0  0
  -14.4352   15.8989  -39.9682 O   0  0  0  0  0  0  0  0  0  0  0  0
  -11.1127   15.4632  -40.6778 O   0  0  0  0  0  0  0  0  0  0  0  0
  3  1  1  1
  1  8  2  0
  1 10  1  0
  2  3  1  0
  4  2  1  6
  3  5  1  0
  4  6  1  0
  4  9  1  0
  5  7  1  0
  5  9  1  1
  6  7  1  0
  6 11  1  1
  7 12  1  6
M  END
>  <id>  (18) 
EN300-6764836

>  <smiles>  (18) 
OC1C(O)C2OC1CC2C(=O)O

>  <MDLNUMBER>  (18) 
MFCD24531237

>  <IUPAC Name>  (18) 
5,6-dihydroxy-7-oxabicyclo[2.2.1]heptane-2-carboxylic acid

>  <CAS>  (18) 
1822577-96-7

>  <Purity>  (18) 
95

>  <URL>  (18) 
https://www.enaminestore.com/catalog/EN300-6764836

>  <ROCS_ShapeQuery>  (18) 
_x1247relevant_x1083L0AP1_x1305L0BP1_

>  <ROCS_TanimotoCombo>  (18) 
0.888 

>  <ROCS_ShapeTanimoto>  (18) 
0.497 

>  <ROCS_ColorTanimoto>  (18) 
0.391 

>  <ROCS_RefTversky>  (18) 
0.408 

>  <ROCS_RefColorTversky>  (18) 
0.474 

>  <ROCS_RefTverskyCombo>  (18) 
0.882 

>  <ROCS_FitTversky>  (18) 
1.792 

>  <ROCS_FitColorTversky>  (18) 
0.691 

>  <ROCS_FitTverskyCombo>  (18) 
2.483 

>  <ROCS_ColorScore>  (18) 
-10.179

>  <ROCS_Overlap>  (18) 
1197.564

>  <ROCS_Rank>  (18) 
13                  

>  <Score>  (18) 
-0.65045990679004717

$$$$
LIG
     RDKit          3D

 13 15  0  0  1  0  0  0  0  0999 V2000
  -14.2415   15.6056  -38.1418 C   0  0  0  0  0  0  0  0  0  0  0  0
  -12.3172   16.2443  -39.6034 C   0  0  0  0  0  0  0  0  0  0  0  0
  -13.2928   15.4821  -36.9399 C   0  0  0  0  0  0  0  0  0  0  0  0
  -11.3621   16.1225  -38.4063 C   0  0  0  0  0  0  0  0  0  0  0  0
  -12.5171   14.0543  -38.6862 C   0  0  0  0  0  0  0  0  0  0  0  0
   -9.2266   13.7568  -38.1382 C   0  0  0  0  0  0  0  0  0  0  0  0
   -8.3430   14.7888  -37.4495 C   0  0  0  0  0  0  0  0  0  0  0  0
  -10.0706   15.3524  -35.9595 C   0  0  0  0  0  0  0  0  0  0  0  0
  -13.3658   15.1553  -39.3227 C   0  0  1  0  0  0  0  0  0  0  0  0
  -11.0156   14.3252  -36.5910 C   0  0  1  0  0  0  0  0  0  0  0  0
  -11.9843   14.9742  -37.5830 C   0  0  2  0  0  0  0  0  0  0  0  0
  -10.2494   13.2392  -37.2237 N   0  0  0  0  0  0  0  0  0  0  0  0
   -9.1394   15.8502  -36.9219 O   0  0  0  0  0  0  0  0  0  0  0  0
  1  3  1  0
  9  1  1  1
  2  4  1  0
  2  9  1  0
 11  3  1  1
  4 11  1  0
  5  9  1  0
  5 11  1  0
  6  7  1  0
  6 12  1  0
  7 13  1  0
 10  8  1  6
  8 13  1  0
 10 11  1  0
 10 12  1  0
M  END
>  <id>  (19) 
EN300-37409318

>  <smiles>  (19) 
Cl.C1CC2(CCC1C2)C3COCCN3

>  <IUPAC Name>  (19) 
3-{bicyclo[2.2.1]heptan-1-yl}morpholine hydrochloride

>  <URL>  (19) 
https://www.enaminestore.com/catalog/EN300-37409318

>  <ROCS_ShapeQuery>  (19) 
_x1247relevant_x1083L0AP1_x1305L0BP1_

>  <ROCS_TanimotoCombo>  (19) 
0.882 

>  <ROCS_ShapeTanimoto>  (19) 
0.492 

>  <ROCS_ColorTanimoto>  (19) 
0.390 

>  <ROCS_RefTversky>  (19) 
0.409 

>  <ROCS_RefColorTversky>  (19) 
0.424 

>  <ROCS_RefTverskyCombo>  (19) 
0.833 

>  <ROCS_FitTversky>  (19) 
1.709 

>  <ROCS_FitColorTversky>  (19) 
0.828 

>  <ROCS_FitTverskyCombo>  (19) 
2.537 

>  <ROCS_ColorScore>  (19) 
-9.024

>  <ROCS_Overlap>  (19) 
1202.036

>  <ROCS_Rank>  (19) 
20                  

>  <Score>  (19) 
-0.40119885288709156

$$$$
LIG
     RDKit          3D

 13 15  0  0  1  0  0  0  0  0999 V2000
  -14.2415   15.6056  -38.1418 C   0  0  0  0  0  0  0  0  0  0  0  0
  -12.3172   16.2443  -39.6034 C   0  0  0  0  0  0  0  0  0  0  0  0
  -13.2928   15.4821  -36.9399 C   0  0  0  0  0  0  0  0  0  0  0  0
  -11.3621   16.1225  -38.4063 C   0  0  0  0  0  0  0  0  0  0  0  0
  -12.5171   14.0543  -38.6862 C   0  0  0  0  0  0  0  0  0  0  0  0
   -9.2266   13.7568  -38.1382 C   0  0  0  0  0  0  0  0  0  0  0  0
   -8.3430   14.7888  -37.4495 C   0  0  0  0  0  0  0  0  0  0  0  0
  -10.0706   15.3524  -35.9595 C   0  0  0  0  0  0  0  0  0  0  0  0
  -13.3658   15.1553  -39.3227 C   0  0  1  0  0  0  0  0  0  0  0  0
  -11.0156   14.3252  -36.5910 C   0  0  1  0  0  0  0  0  0  0  0  0
  -11.9843   14.9742  -37.5830 C   0  0  2  0  0  0  0  0  0  0  0  0
  -10.2494   13.2392  -37.2237 N   0  0  0  0  0  0  0  0  0  0  0  0
   -9.1394   15.8502  -36.9219 O   0  0  0  0  0  0  0  0  0  0  0  0
  1  3  1  0
  9  1  1  1
  2  4  1  0
  2  9  1  0
 11  3  1  1
  4 11  1  0
  5  9  1  0
  5 11  1  0
  6  7  1  0
  6 12  1  0
  7 13  1  0
 10  8  1  6
  8 13  1  0
 10 11  1  0
 10 12  1  0
M  END
>  <id>  (20) 
EN300-37409319

>  <smiles>  (20) 
C1CC2(CCC1C2)C3COCCN3

>  <IUPAC Name>  (20) 
3-{bicyclo[2.2.1]heptan-1-yl}morpholine

>  <CAS>  (20) 
2803852-08-4

>  <Purity>  (20) 
95

>  <URL>  (20) 
https://www.enaminestore.com/catalog/EN300-37409319

>  <ROCS_ShapeQuery>  (20) 
_x1247relevant_x1083L0AP1_x1305L0BP1_

>  <ROCS_TanimotoCombo>  (20) 
0.882 

>  <ROCS_ShapeTanimoto>  (20) 
0.492 

>  <ROCS_ColorTanimoto>  (20) 
0.390 

>  <ROCS_RefTversky>  (20) 
0.409 

>  <ROCS_RefColorTversky>  (20) 
0.424 

>  <ROCS_RefTverskyCombo>  (20) 
0.833 

>  <ROCS_FitTversky>  (20) 
1.709 

>  <ROCS_FitColorTversky>  (20) 
0.828 

>  <ROCS_FitTverskyCombo>  (20) 
2.537 

>  <ROCS_ColorScore>  (20) 
-9.024

>  <ROCS_Overlap>  (20) 
1202.036

>  <ROCS_Rank>  (20) 
21                  

>  <Score>  (20) 
-0.40119885288709156

$$$$
LIG
     RDKit          3D

 12 14  0  0  1  0  0  0  0  0999 V2000
  -10.2208   14.4366  -36.8428 C   0  0  0  0  0  0  0  0  0  0  0  0
  -12.7268   14.4777  -36.7563 C   0  0  0  0  0  0  0  0  0  0  0  0
  -11.4766   14.2253  -37.6300 C   0  0  1  0  0  0  0  0  0  0  0  0
  -13.4122   15.6210  -37.5179 C   0  0  2  0  0  0  0  0  0  0  0  0
  -11.6305   15.2992  -38.7201 C   0  0  1  0  0  0  0  0  0  0  0  0
  -13.9634   15.0969  -38.8204 C   0  0  2  0  0  0  0  0  0  0  0  0
  -12.7467   14.8853  -39.6467 C   0  0  1  0  0  0  0  0  0  0  0  0
   -7.8654   14.4560  -37.0312 C   0  0  0  0  0  0  0  0  0  0  0  0
  -10.1974   14.7081  -35.6499 O   0  0  0  0  0  0  0  0  0  0  0  0
  -12.2415   16.3652  -37.9404 O   0  0  0  0  0  0  0  0  0  0  0  0
  -13.7150   15.8806  -39.9914 O   0  0  0  0  0  0  0  0  0  0  0  0
   -9.1396   14.2799  -37.6585 O   0  0  0  0  0  0  0  0  0  0  0  0
  3  1  1  1
  1  9  2  0
  1 12  1  0
  2  3  1  0
  4  2  1  1
  3  5  1  0
  4  6  1  0
  4 10  1  0
  5  7  1  0
  5 10  1  1
  6  7  1  0
  6 11  1  6
  7 11  1  6
  8 12  1  0
M  END
>  <id>  (21) 
EN300-718776

>  <smiles>  (21) 
COC(=O)C1CC2OC1C3OC32

>  <MDLNUMBER>  (21) 
MFCD00599873

>  <IUPAC Name>  (21) 
methyl 3,8-dioxatricyclo[3.2.1.0,2,4]octane-6-carboxylate

>  <CAS>  (21) 
827607-30-7

>  <URL>  (21) 
https://www.enaminestore.com/catalog/EN300-718776

>  <ROCS_ShapeQuery>  (21) 
_x1247relevant_x1083L0AP1_x1305L0BP1_

>  <ROCS_TanimotoCombo>  (21) 
0.873 

>  <ROCS_ShapeTanimoto>  (21) 
0.477 

>  <ROCS_ColorTanimoto>  (21) 
0.396 

>  <ROCS_RefTversky>  (21) 
0.398 

>  <ROCS_RefColorTversky>  (21) 
0.550 

>  <ROCS_RefTverskyCombo>  (21) 
0.948 

>  <ROCS_FitTversky>  (21) 
1.712 

>  <ROCS_FitColorTversky>  (21) 
0.587 

>  <ROCS_FitTverskyCombo>  (21) 
2.298 

>  <ROCS_ColorScore>  (21) 
-11.980

>  <ROCS_Overlap>  (21) 
1169.535

>  <ROCS_Rank>  (21) 
32                  

>  <Score>  (21) 
-0.024798642818723238

$$$$
LIG
     RDKit          3D

 12 13  0  0  1  0  0  0  0  0999 V2000
  -14.0781   15.5878  -39.1253 C   0  0  0  0  0  0  0  0  0  0  0  0
  -14.0507   15.7408  -37.6094 C   0  0  0  0  0  0  0  0  0  0  0  0
  -11.5882   15.5221  -39.6999 C   0  0  0  0  0  0  0  0  0  0  0  0
  -11.2583   16.4755  -38.5448 C   0  0  0  0  0  0  0  0  0  0  0  0
  -12.8654   14.7174  -39.4340 C   0  0  1  0  0  0  0  0  0  0  0  0
  -12.8048   14.9734  -37.1788 C   0  0  2  0  0  0  0  0  0  0  0  0
  -11.5433   15.8531  -37.1710 C   0  0  1  0  0  0  0  0  0  0  0  0
  -10.3986   13.4816  -37.5121 N   0  0  0  0  0  0  0  0  0  0  0  0
   -8.9473   15.5651  -37.1006 O   0  0  0  0  0  0  0  0  0  0  0  0
  -10.3328   14.6241  -35.2084 O   0  0  0  0  0  0  0  0  0  0  0  0
  -12.6591   13.9852  -38.2151 O   0  0  0  0  0  0  0  0  0  0  0  0
  -10.1428   14.9065  -36.6161 S   0  0  0  0  0  0  0  0  0  0  0  0
  1  2  1  0
  5  1  1  1
  6  2  1  6
  3  4  1  0
  3  5  1  0
  4  7  1  0
  5 11  1  0
  6  7  1  0
  6 11  1  0
  7 12  1  6
  8 12  1  0
  9 12  2  0
 10 12  2  0
M  END
>  <id>  (22) 
EN300-679912

>  <smiles>  (22) 
NS(=O)(=O)C1CCC2CCC1O2

>  <MDLNUMBER>  (22) 
MFCD31425581

>  <IUPAC Name>  (22) 
8-oxabicyclo[3.2.1]octane-2-sulfonamide

>  <CAS>  (22) 
1935968-48-1

>  <URL>  (22) 
https://www.enaminestore.com/catalog/EN300-679912

>  <ROCS_ShapeQuery>  (22) 
_x1247relevant_x1083L0AP1_x1305L0BP1_

>  <ROCS_TanimotoCombo>  (22) 
0.864 

>  <ROCS_ShapeTanimoto>  (22) 
0.463 

>  <ROCS_ColorTanimoto>  (22) 
0.401 

>  <ROCS_RefTversky>  (22) 
0.385 

>  <ROCS_RefColorTversky>  (22) 
0.427 

>  <ROCS_RefTverskyCombo>  (22) 
0.812 

>  <ROCS_FitTversky>  (22) 
1.775 

>  <ROCS_FitColorTversky>  (22) 
0.869 

>  <ROCS_FitTverskyCombo>  (22) 
2.644 

>  <ROCS_ColorScore>  (22) 
-9.071

>  <ROCS_Overlap>  (22) 
1130.418

>  <ROCS_Rank>  (22) 
57                  

>  <Score>  (22) 
-1.2807824651990813

$$$$
LIG
     RDKit          3D

 11 12  0  0  1  0  0  0  0  0999 V2000
  -13.8504   15.9221  -39.1422 C   0  0  0  0  0  0  0  0  0  0  0  0
  -13.9905   15.7842  -37.6248 C   0  0  0  0  0  0  0  0  0  0  0  0
  -11.3431   15.8324  -38.9376 C   0  0  0  0  0  0  0  0  0  0  0  0
  -12.5941   15.0991  -39.4235 C   0  0  1  0  0  0  0  0  0  0  0  0
  -12.7809   14.9206  -37.2702 C   0  0  2  0  0  0  0  0  0  0  0  0
  -11.4904   15.7298  -37.4172 C   0  0  1  0  0  0  0  0  0  0  0  0
  -10.2467   13.3843  -37.4703 N   0  0  0  0  0  0  0  0  0  0  0  0
   -8.9018   15.5475  -37.1118 O   0  0  0  0  0  0  0  0  0  0  0  0
  -10.4119   14.7050  -35.2691 O   0  0  0  0  0  0  0  0  0  0  0  0
  -12.7133   14.0557  -38.4306 O   0  0  0  0  0  0  0  0  0  0  0  0
  -10.1211   14.8888  -36.6794 S   0  0  0  0  0  0  0  0  0  0  0  0
  1  2  1  0
  4  1  1  1
  5  2  1  6
  3  4  1  0
  3  6  1  0
  4 10  1  0
  5  6  1  0
  5 10  1  0
  6 11  1  6
  7 11  1  0
  8 11  2  0
  9 11  2  0
M  END
>  <id>  (23) 
EN300-245165

>  <smiles>  (23) 
NS(=O)(=O)C1CC2CCC1O2

>  <MDLNUMBER>  (23) 
MFCD29041209

>  <IUPAC Name>  (23) 
7-oxabicyclo[2.2.1]heptane-2-sulfonamide

>  <CAS>  (23) 
1864058-40-1

>  <Purity>  (23) 
95

>  <URL>  (23) 
https://www.enaminestore.com/catalog/EN300-245165

>  <ROCS_ShapeQuery>  (23) 
_x1247relevant_x1083L0AP1_x1305L0BP1_

>  <ROCS_TanimotoCombo>  (23) 
0.859 

>  <ROCS_ShapeTanimoto>  (23) 
0.448 

>  <ROCS_ColorTanimoto>  (23) 
0.411 

>  <ROCS_RefTversky>  (23) 
0.373 

>  <ROCS_RefColorTversky>  (23) 
0.441 

>  <ROCS_RefTverskyCombo>  (23) 
0.814 

>  <ROCS_FitTversky>  (23) 
1.821 

>  <ROCS_FitColorTversky>  (23) 
0.858 

>  <ROCS_FitTverskyCombo>  (23) 
2.679 

>  <ROCS_ColorScore>  (23) 
-9.385

>  <ROCS_Overlap>  (23) 
1093.424

>  <ROCS_Rank>  (23) 
82                  

>  <Score>  (23) 
-1.4317071420889533

$$$$
LIG
     RDKit          3D

 13 16  0  0  1  0  0  0  0  0999 V2000
  -11.7177   15.0659  -39.4660 C   0  0  0  0  0  0  0  0  0  0  0  0
  -10.5064   13.4145  -37.1115 C   0  0  0  0  0  0  0  0  0  0  0  0
   -9.8857   15.7280  -37.0280 C   0  0  0  0  0  0  0  0  0  0  0  0
  -12.5413   14.0934  -38.5956 C   0  0  1  0  0  0  0  0  0  0  0  0
  -11.9603   16.2588  -38.5175 C   0  0  2  0  0  0  0  0  0  0  0  0
  -11.8121   14.2011  -37.2310 C   0  0  2  0  0  0  0  0  0  0  0  0
  -11.4073   15.7097  -37.1766 C   0  0  1  0  0  0  0  0  0  0  0  0
   -9.5624   14.3768  -36.3902 C   0  0  2  0  0  0  0  0  0  0  0  0
  -13.8671   14.8301  -38.4349 C   0  0  1  0  0  0  0  0  0  0  0  0
  -13.4796   16.2747  -38.3829 C   0  0  2  0  0  0  0  0  0  0  0  0
   -8.1001   13.9891  -36.5271 C   0  0  0  0  0  0  0  0  0  0  0  0
  -14.2573   15.7468  -39.4614 O   0  0  0  0  0  0  0  0  0  0  0  0
   -7.6261   13.9603  -38.2375 Cl  0  0  0  0  0  0  0  0  0  0  0  0
  4  1  1  6
  5  1  1  6
  6  2  1  6
  2  8  1  0
  7  3  1  6
  3  8  1  0
  4  6  1  0
  4  9  1  0
  5  7  1  0
  5 10  1  0
  6  7  1  0
  8 11  1  6
  9 10  1  0
  9 12  1  6
 10 12  1  6
 11 13  1  0
M  END
>  <id>  (24) 
EN300-8214141

>  <smiles>  (24) 
ClCC1CC2C3CC(C4OC43)C2C1

>  <MDLNUMBER>  (24) 
MFCD24512656

>  <IUPAC Name>  (24) 
4-(chloromethyl)-9-oxatetracyclo[5.3.1.0^{2,6}.0^{8,10}]undecane

>  <URL>  (24) 
https://www.enaminestore.com/catalog/EN300-8214141

>  <ROCS_ShapeQuery>  (24) 
_x1247relevant_x1083L0AP1_x1305L0BP1_

>  <ROCS_TanimotoCombo>  (24) 
0.855 

>  <ROCS_ShapeTanimoto>  (24) 
0.477 

>  <ROCS_ColorTanimoto>  (24) 
0.378 

>  <ROCS_RefTversky>  (24) 
0.401 

>  <ROCS_RefColorTversky>  (24) 
0.520 

>  <ROCS_RefTverskyCombo>  (24) 
0.921 

>  <ROCS_FitTversky>  (24) 
1.663 

>  <ROCS_FitColorTversky>  (24) 
0.581 

>  <ROCS_FitTverskyCombo>  (24) 
2.244 

>  <ROCS_ColorScore>  (24) 
-11.291

>  <ROCS_Overlap>  (24) 
1178.844

>  <ROCS_Rank>  (24) 
97                  

>  <Score>  (24) 
-0.75713347987516499

$$$$
LIG
     RDKit          3D

 15 16  0  0  0  0  0  0  0  0999 V2000
  -13.2893   16.3738  -40.2993 C   0  0  0  0  0  0  0  0  0  0  0  0
  -10.2253   14.6733  -36.7269 C   0  0  0  0  0  0  0  0  0  0  0  0
  -13.4935   16.0092  -37.6506 C   0  0  0  0  0  0  0  0  0  0  0  0
  -13.2591   14.2205  -38.7016 C   0  0  0  0  0  0  0  0  0  0  0  0
  -11.2862   15.7273  -38.7516 C   0  0  0  0  0  0  0  0  0  0  0  0
  -12.7546   14.6725  -37.2846 C   0  0  1  0  0  0  0  0  0  0  0  0
  -12.8019   15.6920  -39.0300 C   0  0  1  0  0  0  0  0  0  0  0  0
   -8.9433   14.4953  -37.4954 C   0  0  0  0  0  0  0  0  0  0  0  0
  -11.3251   14.9824  -37.4933 N   0  0  0  0  0  0  0  0  0  0  0  0
  -12.6075   17.0898  -41.0174 O   0  0  0  0  0  0  0  0  0  0  0  0
  -10.2521   14.5453  -35.5028 O   0  0  0  0  0  0  0  0  0  0  0  0
  -14.5928   16.0816  -40.5293 O   0  0  0  0  0  0  0  0  0  0  0  0
   -9.1494   14.6819  -38.8121 F   0  0  0  0  0  0  0  0  0  0  0  0
   -8.0157   15.3804  -37.0860 F   0  0  0  0  0  0  0  0  0  0  0  0
   -8.4475   13.2565  -37.3193 F   0  0  0  0  0  0  0  0  0  0  0  0
  7  1  1  6
  1 10  2  0
  1 12  1  0
  2  8  1  0
  2  9  1  0
  2 11  2  0
  6  3  1  6
  3  7  1  0
  4  6  1  0
  4  7  1  0
  5  7  1  0
  5  9  1  0
  6  9  1  0
  8 13  1  0
  8 14  1  0
  8 15  1  0
M  END
>  <id>  (25) 
EN300-28274149

>  <smiles>  (25) 
OC(=O)C1(CC2C1)CN2C(=O)C(F)(F)F

>  <IUPAC Name>  (25) 
2-(2,2,2-trifluoroacetyl)-2-azabicyclo[2.1.1]hexane-4-carboxylic acid

>  <CAS>  (25) 
2680841-96-5

>  <URL>  (25) 
https://www.enaminestore.com/catalog/EN300-28274149

>  <ROCS_ShapeQuery>  (25) 
_x1247relevant_x1083L0AP1_x1305L0BP1_

>  <ROCS_TanimotoCombo>  (25) 
0.852 

>  <ROCS_ShapeTanimoto>  (25) 
0.509 

>  <ROCS_ColorTanimoto>  (25) 
0.342 

>  <ROCS_RefTversky>  (25) 
0.430 

>  <ROCS_RefColorTversky>  (25) 
0.391 

>  <ROCS_RefTverskyCombo>  (25) 
0.821 

>  <ROCS_FitTversky>  (25) 
1.569 

>  <ROCS_FitColorTversky>  (25) 
0.734 

>  <ROCS_FitTverskyCombo>  (25) 
2.303 

>  <ROCS_ColorScore>  (25) 
-8.328

>  <ROCS_Overlap>  (25) 
1266.570

>  <ROCS_Rank>  (25) 
122                 

>  <Score>  (25) 
-0.66167648614100472

$$$$
LIG
     RDKit          3D

 11 13  0  0  1  0  0  0  0  0999 V2000
  -13.4064   13.9628  -38.3542 C   0  0  0  0  0  0  0  0  0  0  0  0
  -12.9706   14.4421  -37.1800 C   0  0  0  0  0  0  0  0  0  0  0  0
   -9.8288   15.2162  -36.1613 C   0  0  0  0  0  0  0  0  0  0  0  0
  -13.5266   16.2665  -38.4818 C   0  0  0  0  0  0  0  0  0  0  0  0
  -11.7144   15.2268  -39.6308 C   0  0  0  0  0  0  0  0  0  0  0  0
   -9.6343   13.6908  -36.1602 C   0  0  0  0  0  0  0  0  0  0  0  0
  -13.2299   15.0595  -39.3773 C   0  0  1  0  0  0  0  0  0  0  0  0
  -12.4951   15.8559  -37.4229 C   0  0  2  0  0  0  0  0  0  0  0  0
  -11.2065   15.8370  -38.2873 C   0  0  1  0  0  0  0  0  0  0  0  0
  -10.0735   15.0398  -37.6764 C   0  0  2  0  0  0  0  0  0  0  0  0
  -10.4651   13.6368  -37.3843 N   0  0  0  0  0  0  0  0  0  0  0  0
  1  2  2  0
  1  7  1  0
  8  2  1  6
  3  6  1  0
 10  3  1  1
  4  7  1  0
  4  8  1  0
  7  5  1  1
  9  5  1  6
  6 11  1  0
  8  9  1  0
  9 10  1  0
 10 11  1  0
M  END
>  <id>  (26) 
EN300-1819712

>  <smiles>  (26) 
C1CC(N1)C2CC3CC2C=C3

>  <IUPAC Name>  (26) 
2-{bicyclo[2.2.1]hept-5-en-2-yl}azetidine

>  <CAS>  (26) 
2228345-72-8

>  <URL>  (26) 
https://www.enaminestore.com/catalog/EN300-1819712

>  <ROCS_ShapeQuery>  (26) 
_x1247relevant_x1083L0AP1_x1305L0BP1_

>  <ROCS_TanimotoCombo>  (26) 
0.842 

>  <ROCS_ShapeTanimoto>  (26) 
0.454 

>  <ROCS_ColorTanimoto>  (26) 
0.389 

>  <ROCS_RefTversky>  (26) 
0.378 

>  <ROCS_RefColorTversky>  (26) 
0.411 

>  <ROCS_RefTverskyCombo>  (26) 
0.790 

>  <ROCS_FitTversky>  (26) 
1.783 

>  <ROCS_FitColorTversky>  (26) 
0.875 

>  <ROCS_FitTverskyCombo>  (26) 
2.658 

>  <ROCS_ColorScore>  (26) 
-8.734

>  <ROCS_Overlap>  (26) 
1110.676

>  <ROCS_Rank>  (26) 
174                 

>  <Score>  (26) 
-0.083619278679179843

$$$$
LIG
     RDKit          3D

 10 12  0  0  0  0  0  0  0  0999 V2000
  -11.9645   16.1743  -38.9214 C   0  0  0  0  0  0  0  0  0  0  0  0
  -13.3747   15.5282  -37.4615 C   0  0  0  0  0  0  0  0  0  0  0  0
  -12.6854   14.1700  -38.9520 C   0  0  0  0  0  0  0  0  0  0  0  0
  -10.0882   15.7035  -36.1488 C   0  0  0  0  0  0  0  0  0  0  0  0
   -9.4203   14.3895  -37.5897 C   0  0  0  0  0  0  0  0  0  0  0  0
  -10.7910   14.5903  -36.9338 C   0  0  0  0  0  0  0  0  0  0  0  0
  -11.9248   15.0117  -37.8438 C   0  0  1  0  0  0  0  0  0  0  0  0
  -13.3795   15.5525  -39.0093 C   0  0  2  0  0  0  0  0  0  0  0  0
   -8.7919   15.2823  -36.6382 O   0  0  0  0  0  0  0  0  0  0  0  0
  -14.4296   15.9479  -39.8552 O   0  0  0  0  0  0  0  0  0  0  0  0
  1  7  1  0
  1  8  1  0
  2  7  1  0
  2  8  1  0
  3  7  1  0
  3  8  1  0
  4  6  1  0
  4  9  1  0
  5  6  1  0
  5  9  1  0
  7  6  1  1
  8 10  1  6
M  END
>  <id>  (27) 
EN300-37274754

>  <smiles>  (27) 
O[C@]1(C[C@]2(C1)C3COC3)C2

>  <IUPAC Name>  (27) 
3-(oxetan-3-yl)bicyclo[1.1.1]pentan-1-ol

>  <CAS>  (27) 
2751620-38-7

>  <URL>  (27) 
https://www.enaminestore.com/catalog/EN300-37274754

>  <ROCS_ShapeQuery>  (27) 
_x1247relevant_x1083L0AP1_x1305L0BP1_

>  <ROCS_TanimotoCombo>  (27) 
0.841 

>  <ROCS_ShapeTanimoto>  (27) 
0.430 

>  <ROCS_ColorTanimoto>  (27) 
0.411 

>  <ROCS_RefTversky>  (27) 
0.359 

>  <ROCS_RefColorTversky>  (27) 
0.455 

>  <ROCS_RefTverskyCombo>  (27) 
0.815 

>  <ROCS_FitTversky>  (27) 
1.844 

>  <ROCS_FitColorTversky>  (27) 
0.807 

>  <ROCS_FitTverskyCombo>  (27) 
2.651 

>  <ROCS_ColorScore>  (27) 
-9.716

>  <ROCS_Overlap>  (27) 
1054.084

>  <ROCS_Rank>  (27) 
187                 

>  <Score>  (27) 
-0.56435044881538943

$$$$
LIG
     RDKit          3D

 10 12  0  0  0  0  0  0  0  0999 V2000
  -12.6798   14.1750  -38.9618 C   0  0  0  0  0  0  0  0  0  0  0  0
  -13.3767   15.5182  -37.4625 C   0  0  0  0  0  0  0  0  0  0  0  0
  -11.9657   16.1814  -38.9152 C   0  0  0  0  0  0  0  0  0  0  0  0
  -10.0914   15.6936  -36.1432 C   0  0  0  0  0  0  0  0  0  0  0  0
   -9.4188   14.3911  -37.5923 C   0  0  0  0  0  0  0  0  0  0  0  0
  -10.7910   14.5847  -36.9373 C   0  0  0  0  0  0  0  0  0  0  0  0
  -11.9241   15.0108  -37.8461 C   0  0  2  0  0  0  0  0  0  0  0  0
  -13.3784   15.5556  -39.0103 C   0  0  1  0  0  0  0  0  0  0  0  0
   -8.7936   15.2781  -36.6334 O   0  0  0  0  0  0  0  0  0  0  0  0
  -14.4313   15.9452  -39.8552 O   0  0  0  0  0  0  0  0  0  0  0  0
  1  7  1  0
  1  8  1  0
  2  7  1  0
  2  8  1  0
  3  7  1  0
  3  8  1  0
  4  6  1  0
  4  9  1  0
  5  6  1  0
  5  9  1  0
  7  6  1  1
  8 10  1  6
M  END
>  <id>  (28) 
EN300-37153681

>  <smiles>  (28) 
OC1(CC2(C1)C3COC3)C2

>  <MDLNUMBER>  (28) 
MFCD34594495

>  <IUPAC Name>  (28) 
3-(oxetan-3-yl)bicyclo[1.1.1]pentan-1-ol

>  <CAS>  (28) 
2751620-38-7

>  <Purity>  (28) 
95

>  <URL>  (28) 
https://www.enaminestore.com/catalog/EN300-37153681

>  <ROCS_ShapeQuery>  (28) 
_x1247relevant_x1083L0AP1_x1305L0BP1_

>  <ROCS_TanimotoCombo>  (28) 
0.841 

>  <ROCS_ShapeTanimoto>  (28) 
0.430 

>  <ROCS_ColorTanimoto>  (28) 
0.410 

>  <ROCS_RefTversky>  (28) 
0.359 

>  <ROCS_RefColorTversky>  (28) 
0.455 

>  <ROCS_RefTverskyCombo>  (28) 
0.815 

>  <ROCS_FitTversky>  (28) 
1.844 

>  <ROCS_FitColorTversky>  (28) 
0.807 

>  <ROCS_FitTverskyCombo>  (28) 
2.651 

>  <ROCS_ColorScore>  (28) 
-9.711

>  <ROCS_Overlap>  (28) 
1054.102

>  <ROCS_Rank>  (28) 
188                 

>  <Score>  (28) 
-0.72804351949639567

$$$$
LIG
     RDKit          3D

 11 12  0  0  1  0  0  0  0  0999 V2000
  -13.8231   15.9050  -38.9316 C   0  0  0  0  0  0  0  0  0  0  0  0
  -13.9621   15.3408  -37.7223 C   0  0  0  0  0  0  0  0  0  0  0  0
  -12.4020   14.0856  -38.8704 C   0  0  0  0  0  0  0  0  0  0  0  0
  -11.3838   16.2181  -38.6348 C   0  0  0  0  0  0  0  0  0  0  0  0
  -12.4696   15.4945  -39.4637 C   0  0  2  0  0  0  0  0  0  0  0  0
  -12.6938   14.5659  -37.4431 C   0  0  1  0  0  0  0  0  0  0  0  0
  -11.5736   15.6060  -37.2187 C   0  0  1  0  0  0  0  0  0  0  0  0
  -10.1378   13.3815  -37.4220 N   0  0  0  0  0  0  0  0  0  0  0  0
   -8.9644   15.6459  -37.0868 O   0  0  0  0  0  0  0  0  0  0  0  0
  -10.2689   14.6292  -35.1763 O   0  0  0  0  0  0  0  0  0  0  0  0
  -10.0932   14.8733  -36.5976 S   0  0  0  0  0  0  0  0  0  0  0  0
  1  2  2  0
  1  5  1  0
  6  2  1  6
  3  5  1  0
  3  6  1  0
  5  4  1  1
  4  7  1  0
  6  7  1  0
  7 11  1  6
  8 11  1  0
  9 11  2  0
 10 11  2  0
M  END
>  <id>  (29) 
EN300-243974

>  <smiles>  (29) 
NS(=O)(=O)C1C[C@H]2C[C@@H]1C=C2

>  <MDLNUMBER>  (29) 
MFCD29034908

>  <IUPAC Name>  (29) 
(1R,4R)-bicyclo[2.2.1]hept-5-ene-2-sulfonamide

>  <CAS>  (29) 
1864012-33-8

>  <URL>  (29) 
https://www.enaminestore.com/catalog/EN300-243974

>  <ROCS_ShapeQuery>  (29) 
_x1247relevant_x1083L0AP1_x1305L0BP1_

>  <ROCS_TanimotoCombo>  (29) 
0.835 

>  <ROCS_ShapeTanimoto>  (29) 
0.449 

>  <ROCS_ColorTanimoto>  (29) 
0.386 

>  <ROCS_RefTversky>  (29) 
0.373 

>  <ROCS_RefColorTversky>  (29) 
0.410 

>  <ROCS_RefTverskyCombo>  (29) 
0.783 

>  <ROCS_FitTversky>  (29) 
1.827 

>  <ROCS_FitColorTversky>  (29) 
0.870 

>  <ROCS_FitTverskyCombo>  (29) 
2.696 

>  <ROCS_ColorScore>  (29) 
-8.696

>  <ROCS_Overlap>  (29) 
1094.657

>  <ROCS_Rank>  (29) 
226                 

>  <Score>  (29) 
-2.1179699149796534

$$$$
LIG
     RDKit          3D

 13 14  0  0  1  0  0  0  0  0999 V2000
  -13.2695   16.4322  -40.3142 C   0  0  0  0  0  0  0  0  0  0  0  0
   -9.8880   14.8663  -36.9992 C   0  0  0  0  0  0  0  0  0  0  0  0
  -12.7722   14.2706  -39.0569 C   0  0  0  0  0  0  0  0  0  0  0  0
  -11.3011   16.1179  -38.7191 C   0  0  0  0  0  0  0  0  0  0  0  0
  -13.2960   15.0954  -36.9469 C   0  0  0  0  0  0  0  0  0  0  0  0
  -12.2386   14.2309  -37.6355 C   0  0  2  0  0  0  0  0  0  0  0  0
  -12.7579   15.7940  -39.0693 C   0  0  1  0  0  0  0  0  0  0  0  0
   -9.9147   13.6728  -36.0792 C   0  0  0  0  0  0  0  0  0  0  0  0
  -11.0304   15.0575  -37.7455 N   0  0  0  0  0  0  0  0  0  0  0  0
  -12.6236   17.1746  -41.0388 O   0  0  0  0  0  0  0  0  0  0  0  0
   -8.8964   15.5946  -37.0531 O   0  0  0  0  0  0  0  0  0  0  0  0
  -13.5674   16.1370  -37.9273 O   0  0  0  0  0  0  0  0  0  0  0  0
  -14.5590   16.0795  -40.5379 O   0  0  0  0  0  0  0  0  0  0  0  0
  7  1  1  6
  1 10  2  0
  1 13  1  0
  2  8  1  0
  2  9  1  0
  2 11  2  0
  3  6  1  0
  3  7  1  0
  4  7  1  0
  4  9  1  0
  6  5  1  1
  5 12  1  0
  6  9  1  0
  7 12  1  0
M  END
>  <id>  (30) 
EN300-39689768

>  <smiles>  (30) 
CC(=O)N1CC2(CC1CO2)C(=O)O

>  <IUPAC Name>  (30) 
5-acetyl-2-oxa-5-azabicyclo[2.2.1]heptane-1-carboxylic acid

>  <URL>  (30) 
https://www.enaminestore.com/catalog/EN300-39689768

>  <ROCS_ShapeQuery>  (30) 
_x1247relevant_x1083L0AP1_x1305L0BP1_

>  <ROCS_TanimotoCombo>  (30) 
0.833 

>  <ROCS_ShapeTanimoto>  (30) 
0.500 

>  <ROCS_ColorTanimoto>  (30) 
0.333 

>  <ROCS_RefTversky>  (30) 
0.415 

>  <ROCS_RefColorTversky>  (30) 
0.390 

>  <ROCS_RefTverskyCombo>  (30) 
0.805 

>  <ROCS_FitTversky>  (30) 
1.698 

>  <ROCS_FitColorTversky>  (30) 
0.695 

>  <ROCS_FitTverskyCombo>  (30) 
2.393 

>  <ROCS_ColorScore>  (30) 
-8.320

>  <ROCS_Overlap>  (30) 
1220.029

>  <ROCS_Rank>  (30) 
238                 

>  <Score>  (30) 
-0.45654615593821291

$$$$
LIG
     RDKit          3D

 13 14  0  0  1  0  0  0  0  0999 V2000
  -13.2694   16.4332  -40.3134 C   0  0  0  0  0  0  0  0  0  0  0  0
   -9.8867   14.8649  -37.0007 C   0  0  0  0  0  0  0  0  0  0  0  0
  -12.7721   14.2710  -39.0572 C   0  0  0  0  0  0  0  0  0  0  0  0
  -11.3004   16.1178  -38.7192 C   0  0  0  0  0  0  0  0  0  0  0  0
  -13.2948   15.0951  -36.9466 C   0  0  0  0  0  0  0  0  0  0  0  0
  -12.2379   14.2305  -37.6360 C   0  0  2  0  0  0  0  0  0  0  0  0
  -12.7574   15.7945  -39.0689 C   0  0  1  0  0  0  0  0  0  0  0  0
   -9.9135   13.6710  -36.0812 C   0  0  0  0  0  0  0  0  0  0  0  0
  -11.0295   15.0568  -37.7462 N   0  0  0  0  0  0  0  0  0  0  0  0
  -12.6237   17.1757  -41.0380 O   0  0  0  0  0  0  0  0  0  0  0  0
   -8.8948   15.5925  -37.0549 O   0  0  0  0  0  0  0  0  0  0  0  0
  -13.5662   16.1372  -37.9264 O   0  0  0  0  0  0  0  0  0  0  0  0
  -14.5591   16.0809  -40.5366 O   0  0  0  0  0  0  0  0  0  0  0  0
  7  1  1  6
  1 10  2  0
  1 13  1  0
  2  8  1  0
  2  9  1  0
  2 11  2  0
  3  6  1  0
  3  7  1  0
  4  7  1  0
  4  9  1  0
  6  5  1  1
  5 12  1  0
  6  9  1  0
  7 12  1  0
M  END
>  <id>  (31) 
EN300-39918118

>  <smiles>  (31) 
CC(=O)N1C[C@]2(C[C@@H]1CO2)C(=O)O

>  <IUPAC Name>  (31) 
(1R,4R)-5-acetyl-2-oxa-5-azabicyclo[2.2.1]heptane-1-carboxylic acid

>  <URL>  (31) 
https://www.enaminestore.com/catalog/EN300-39918118

>  <ROCS_ShapeQuery>  (31) 
_x1247relevant_x1083L0AP1_x1305L0BP1_

>  <ROCS_TanimotoCombo>  (31) 
0.833 

>  <ROCS_ShapeTanimoto>  (31) 
0.500 

>  <ROCS_ColorTanimoto>  (31) 
0.333 

>  <ROCS_RefTversky>  (31) 
0.415 

>  <ROCS_RefColorTversky>  (31) 
0.390 

>  <ROCS_RefTverskyCombo>  (31) 
0.805 

>  <ROCS_FitTversky>  (31) 
1.698 

>  <ROCS_FitColorTversky>  (31) 
0.695 

>  <ROCS_FitTverskyCombo>  (31) 
2.393 

>  <ROCS_ColorScore>  (31) 
-8.320

>  <ROCS_Overlap>  (31) 
1219.995

>  <ROCS_Rank>  (31) 
240                 

>  <Score>  (31) 
-0.45226456584964581

$$$$
LIG
     RDKit          3D

 14 15  0  0  1  0  0  0  0  0999 V2000
  -12.9156   16.4181  -39.2530 C   0  0  0  0  0  0  0  0  0  0  0  0
  -13.5228   15.2356  -39.4417 C   0  0  0  0  0  0  0  0  0  0  0  0
  -10.0642   15.2366  -37.0335 C   0  0  0  0  0  0  0  0  0  0  0  0
  -13.1781   15.4670  -37.1673 C   0  0  0  0  0  0  0  0  0  0  0  0
  -12.1664   16.3128  -37.9415 C   0  0  1  0  0  0  0  0  0  0  0  0
  -13.2000   14.3808  -38.2362 C   0  0  2  0  0  0  0  0  0  0  0  0
  -11.0341   15.2942  -38.1695 C   0  0  2  0  0  0  0  0  0  0  0  0
   -8.6851   14.7720  -34.5884 C   0  0  0  0  0  0  0  0  0  0  0  0
  -10.2824   12.8606  -34.2651 C   0  0  0  0  0  0  0  0  0  0  0  0
   -8.7117   12.8600  -36.2249 C   0  0  0  0  0  0  0  0  0  0  0  0
   -9.5525   13.7271  -35.2890 C   0  0  0  0  0  0  0  0  0  0  0  0
  -11.7636   13.9964  -38.2460 N   0  0  0  0  0  0  0  0  0  0  0  0
   -9.0069   15.8517  -37.0035 O   0  0  0  0  0  0  0  0  0  0  0  0
  -10.5449   14.4056  -36.0654 O   0  0  0  0  0  0  0  0  0  0  0  0
  1  2  2  0
  5  1  1  6
  2  6  1  0
  7  3  1  1
  3 13  2  0
  3 14  1  0
  4  5  1  0
  4  6  1  0
  5  7  1  0
  6 12  1  6
  7 12  1  0
  8 11  1  0
  9 11  1  0
 10 11  1  0
 11 14  1  0
M  END
>  <id>  (32) 
EN300-8631625

>  <smiles>  (32) 
CC(C)(C)OC(=O)C1NC2CC1C=C2

>  <MDLNUMBER>  (32) 
MFCD20690171

>  <IUPAC Name>  (32) 
tert-butyl 2-azabicyclo[2.2.1]hept-5-ene-3-carboxylate

>  <CAS>  (32) 
1378298-62-4

>  <URL>  (32) 
https://www.enaminestore.com/catalog/EN300-8631625

>  <ROCS_ShapeQuery>  (32) 
_x1247relevant_x1083L0AP1_x1305L0BP1_

>  <ROCS_TanimotoCombo>  (32) 
0.831 

>  <ROCS_ShapeTanimoto>  (32) 
0.467 

>  <ROCS_ColorTanimoto>  (32) 
0.365 

>  <ROCS_RefTversky>  (32) 
0.399 

>  <ROCS_RefColorTversky>  (32) 
0.405 

>  <ROCS_RefTverskyCombo>  (32) 
0.804 

>  <ROCS_FitTversky>  (32) 
1.565 

>  <ROCS_FitColorTversky>  (32) 
0.786 

>  <ROCS_FitTverskyCombo>  (32) 
2.350 

>  <ROCS_ColorScore>  (32) 
-8.619

>  <ROCS_Overlap>  (32) 
1175.167

>  <ROCS_Rank>  (32) 
260                 

>  <Score>  (32) 
-0.91335920322057973

$$$$
LIG
     RDKit          3D

 11 12  0  0  1  0  0  0  0  0999 V2000
  -13.8421   15.9729  -39.0116 C   0  0  0  0  0  0  0  0  0  0  0  0
  -14.0110   15.3132  -37.6338 C   0  0  0  0  0  0  0  0  0  0  0  0
  -12.4110   14.0775  -38.8762 C   0  0  0  0  0  0  0  0  0  0  0  0
  -11.3735   16.2048  -38.6277 C   0  0  0  0  0  0  0  0  0  0  0  0
  -12.4524   15.4874  -39.4608 C   0  0  2  0  0  0  0  0  0  0  0  0
  -12.6814   14.5599  -37.4487 C   0  0  1  0  0  0  0  0  0  0  0  0
  -11.5676   15.6016  -37.2272 C   0  0  1  0  0  0  0  0  0  0  0  0
  -10.1272   13.3793  -37.4214 N   0  0  0  0  0  0  0  0  0  0  0  0
   -8.9590   15.6461  -37.0844 O   0  0  0  0  0  0  0  0  0  0  0  0
  -10.2698   14.6299  -35.1780 O   0  0  0  0  0  0  0  0  0  0  0  0
  -10.0878   14.8719  -36.5986 S   0  0  0  0  0  0  0  0  0  0  0  0
  1  2  1  0
  5  1  1  1
  6  2  1  6
  3  5  1  0
  3  6  1  0
  4  5  1  0
  4  7  1  0
  6  7  1  0
  7 11  1  6
  8 11  1  0
  9 11  2  0
 10 11  2  0
M  END
>  <id>  (33) 
EN300-6861790

>  <smiles>  (33) 
NS(=O)(=O)C1C[C@@H]2CC[C@H]1C2 |&1:6,9,r|

>  <IUPAC Name>  (33) 
rac-(1R,4S)-bicyclo[2.2.1]heptane-2-sulfonamide

>  <CAS>  (33) 
1864012-28-1

>  <Purity>  (33) 
95

>  <URL>  (33) 
https://www.enaminestore.com/catalog/EN300-6861790

>  <ROCS_ShapeQuery>  (33) 
_x1247relevant_x1083L0AP1_x1305L0BP1_

>  <ROCS_TanimotoCombo>  (33) 
0.830 

>  <ROCS_ShapeTanimoto>  (33) 
0.445 

>  <ROCS_ColorTanimoto>  (33) 
0.385 

>  <ROCS_RefTversky>  (33) 
0.370 

>  <ROCS_RefColorTversky>  (33) 
0.409 

>  <ROCS_RefTverskyCombo>  (33) 
0.779 

>  <ROCS_FitTversky>  (33) 
1.835 

>  <ROCS_FitColorTversky>  (33) 
0.871 

>  <ROCS_FitTverskyCombo>  (33) 
2.706 

>  <ROCS_ColorScore>  (33) 
-8.670

>  <ROCS_Overlap>  (33) 
1085.937

>  <ROCS_Rank>  (33) 
277                 

>  <Score>  (33) 
-0.75673767650062018

$$$$
LIG
     RDKit          3D

 11 12  0  0  1  0  0  0  0  0999 V2000
  -13.8421   15.9729  -39.0116 C   0  0  0  0  0  0  0  0  0  0  0  0
  -14.0110   15.3132  -37.6338 C   0  0  0  0  0  0  0  0  0  0  0  0
  -12.4110   14.0775  -38.8762 C   0  0  0  0  0  0  0  0  0  0  0  0
  -11.3735   16.2048  -38.6277 C   0  0  0  0  0  0  0  0  0  0  0  0
  -12.4524   15.4874  -39.4608 C   0  0  2  0  0  0  0  0  0  0  0  0
  -12.6814   14.5599  -37.4487 C   0  0  1  0  0  0  0  0  0  0  0  0
  -11.5676   15.6016  -37.2272 C   0  0  1  0  0  0  0  0  0  0  0  0
  -10.1272   13.3793  -37.4214 N   0  0  0  0  0  0  0  0  0  0  0  0
   -8.9590   15.6461  -37.0844 O   0  0  0  0  0  0  0  0  0  0  0  0
  -10.2698   14.6299  -35.1780 O   0  0  0  0  0  0  0  0  0  0  0  0
  -10.0878   14.8719  -36.5986 S   0  0  0  0  0  0  0  0  0  0  0  0
  1  2  1  0
  5  1  1  1
  6  2  1  6
  3  5  1  0
  3  6  1  0
  4  5  1  0
  4  7  1  0
  6  7  1  0
  7 11  1  6
  8 11  1  0
  9 11  2  0
 10 11  2  0
M  END
>  <id>  (34) 
EN300-244104

>  <smiles>  (34) 
NS(=O)(=O)C1C[C@@H]2CC[C@H]1C2

>  <MDLNUMBER>  (34) 
MFCD32198603

>  <IUPAC Name>  (34) 
(1S,4R)-bicyclo[2.2.1]heptane-2-sulfonamide

>  <CAS>  (34) 
1864012-28-1

>  <URL>  (34) 
https://www.enaminestore.com/catalog/EN300-244104

>  <ROCS_ShapeQuery>  (34) 
_x1247relevant_x1083L0AP1_x1305L0BP1_

>  <ROCS_TanimotoCombo>  (34) 
0.830 

>  <ROCS_ShapeTanimoto>  (34) 
0.445 

>  <ROCS_ColorTanimoto>  (34) 
0.385 

>  <ROCS_RefTversky>  (34) 
0.370 

>  <ROCS_RefColorTversky>  (34) 
0.409 

>  <ROCS_RefTverskyCombo>  (34) 
0.779 

>  <ROCS_FitTversky>  (34) 
1.835 

>  <ROCS_FitColorTversky>  (34) 
0.871 

>  <ROCS_FitTverskyCombo>  (34) 
2.706 

>  <ROCS_ColorScore>  (34) 
-8.670

>  <ROCS_Overlap>  (34) 
1085.937

>  <ROCS_Rank>  (34) 
278                 

>  <Score>  (34) 
-0.75673767650062018

$$$$
LIG
     RDKit          3D

 12 14  0  0  1  0  0  0  0  0999 V2000
  -13.2832   13.9804  -38.8671 C   0  0  0  0  0  0  0  0  0  0  0  0
  -13.1872   14.1348  -37.5384 C   0  0  0  0  0  0  0  0  0  0  0  0
   -8.6069   14.8371  -35.7842 C   0  0  0  0  0  0  0  0  0  0  0  0
  -10.1280   14.9939  -35.5742 C   0  0  0  0  0  0  0  0  0  0  0  0
   -8.8143   15.2234  -37.2640 C   0  0  0  0  0  0  0  0  0  0  0  0
  -13.5574   16.2325  -38.4300 C   0  0  0  0  0  0  0  0  0  0  0  0
  -11.4410   15.5641  -39.3014 C   0  0  0  0  0  0  0  0  0  0  0  0
  -12.9537   15.3132  -39.4963 C   0  0  1  0  0  0  0  0  0  0  0  0
  -12.7846   15.5688  -37.2827 C   0  0  2  0  0  0  0  0  0  0  0  0
  -11.3273   15.8004  -37.7630 C   0  0  1  0  0  0  0  0  0  0  0  0
  -10.3181   14.8877  -37.1075 C   0  0  0  0  0  0  0  0  0  0  0  0
  -10.5301   13.4775  -37.4596 N   0  0  0  0  0  0  0  0  0  0  0  0
  1  2  2  0
  1  8  1  0
  9  2  1  6
  3  4  1  0
  3  5  1  0
  4 11  1  0
  5 11  1  0
  6  8  1  0
  6  9  1  0
  8  7  1  1
  7 10  1  0
  9 10  1  0
 10 11  1  1
 11 12  1  0
M  END
>  <id>  (35) 
EN300-1823236

>  <smiles>  (35) 
NC1(CCC1)C2CC3CC2C=C3

>  <IUPAC Name>  (35) 
1-{bicyclo[2.2.1]hept-5-en-2-yl}cyclobutan-1-amine

>  <CAS>  (35) 
2228904-07-0

>  <URL>  (35) 
https://www.enaminestore.com/catalog/EN300-1823236

>  <ROCS_ShapeQuery>  (35) 
_x1247relevant_x1083L0AP1_x1305L0BP1_

>  <ROCS_TanimotoCombo>  (35) 
0.829 

>  <ROCS_ShapeTanimoto>  (35) 
0.471 

>  <ROCS_ColorTanimoto>  (35) 
0.359 

>  <ROCS_RefTversky>  (35) 
0.393 

>  <ROCS_RefColorTversky>  (35) 
0.388 

>  <ROCS_RefTverskyCombo>  (35) 
0.781 

>  <ROCS_FitTversky>  (35) 
1.730 

>  <ROCS_FitColorTversky>  (35) 
0.825 

>  <ROCS_FitTverskyCombo>  (35) 
2.556 

>  <ROCS_ColorScore>  (35) 
-8.239

>  <ROCS_Overlap>  (35) 
1153.893

>  <ROCS_Rank>  (35) 
287                 

>  <Score>  (35) 
-0.29055024334093105

$$$$
LIG
     RDKit          3D

 13 15  0  0  1  0  0  0  0  0999 V2000
  -12.1313   16.6504  -38.6704 C   0  0  0  0  0  0  0  0  0  0  0  0
  -11.2979   15.6134  -38.8393 C   0  0  0  0  0  0  0  0  0  0  0  0
   -9.5341   14.9431  -36.8238 C   0  0  0  0  0  0  0  0  0  0  0  0
  -13.4067   14.8788  -39.4272 C   0  0  0  0  0  0  0  0  0  0  0  0
  -13.5654   15.3929  -37.1043 C   0  0  0  0  0  0  0  0  0  0  0  0
  -10.5782   12.8996  -36.5354 C   0  0  0  0  0  0  0  0  0  0  0  0
  -13.5187   16.0828  -38.4866 C   0  0  1  0  0  0  0  0  0  0  0  0
  -12.1292   14.3539  -38.7591 C   0  0  2  0  0  0  0  0  0  0  0  0
  -12.6410   14.1522  -37.3080 C   0  0  1  0  0  0  0  0  0  0  0  0
  -11.5540   14.0237  -36.2520 C   0  0  2  0  0  0  0  0  0  0  0  0
   -9.4346   13.5878  -37.0361 N   0  0  0  0  0  0  0  0  0  0  0  0
   -8.6870   15.7888  -37.0735 O   0  0  0  0  0  0  0  0  0  0  0  0
  -10.7533   15.2238  -36.2625 O   0  0  0  0  0  0  0  0  0  0  0  0
  1  2  2  0
  1  7  1  0
  8  2  1  1
  3 11  1  0
  3 12  2  0
  3 13  1  0
  4  7  1  0
  4  8  1  0
  7  5  1  1
  9  5  1  1
 10  6  1  6
  6 11  1  0
  8  9  1  0
  9 10  1  0
 10 13  1  0
M  END
>  <id>  (36) 
EN300-1823247

>  <smiles>  (36) 
O=C1NCC(O1)C2CC3CC2C=C3

>  <IUPAC Name>  (36) 
5-{bicyclo[2.2.1]hept-5-en-2-yl}-1,3-oxazolidin-2-one

>  <CAS>  (36) 
2228987-40-2

>  <URL>  (36) 
https://www.enaminestore.com/catalog/EN300-1823247

>  <ROCS_ShapeQuery>  (36) 
_x1247relevant_x1083L0AP1_x1305L0BP1_

>  <ROCS_TanimotoCombo>  (36) 
0.826 

>  <ROCS_ShapeTanimoto>  (36) 
0.496 

>  <ROCS_ColorTanimoto>  (36) 
0.330 

>  <ROCS_RefTversky>  (36) 
0.413 

>  <ROCS_RefColorTversky>  (36) 
0.364 

>  <ROCS_RefTverskyCombo>  (36) 
0.778 

>  <ROCS_FitTversky>  (36) 
1.680 

>  <ROCS_FitColorTversky>  (36) 
0.775 

>  <ROCS_FitTverskyCombo>  (36) 
2.455 

>  <ROCS_ColorScore>  (36) 
-7.736

>  <ROCS_Overlap>  (36) 
1215.140

>  <ROCS_Rank>  (36) 
332                 

>  <Score>  (36) 
-0.933962676644569

$$$$
LIG
     RDKit          3D

 16 17  0  0  0  0  0  0  0  0999 V2000
  -13.3297   16.4311  -40.2488 C   0  0  0  0  0  0  0  0  0  0  0  0
  -10.2210   14.8906  -36.6385 C   0  0  0  0  0  0  0  0  0  0  0  0
  -12.9948   14.1478  -38.8814 C   0  0  0  0  0  0  0  0  0  0  0  0
  -13.6107   15.7360  -37.6741 C   0  0  0  0  0  0  0  0  0  0  0  0
  -11.3295   15.9750  -38.6303 C   0  0  0  0  0  0  0  0  0  0  0  0
  -12.6606   14.5177  -37.3921 C   0  0  2  0  0  0  0  0  0  0  0  0
  -12.7963   15.7051  -39.0234 C   0  0  2  0  0  0  0  0  0  0  0  0
   -9.0706   12.6234  -37.2629 C   0  0  0  0  0  0  0  0  0  0  0  0
   -7.3996   13.9016  -38.6352 C   0  0  0  0  0  0  0  0  0  0  0  0
   -7.2513   13.9414  -36.1283 C   0  0  0  0  0  0  0  0  0  0  0  0
   -8.1922   13.8719  -37.3302 C   0  0  0  0  0  0  0  0  0  0  0  0
  -11.3038   15.0970  -37.4620 N   0  0  0  0  0  0  0  0  0  0  0  0
  -12.6485   17.0657  -41.0404 O   0  0  0  0  0  0  0  0  0  0  0  0
  -10.3054   14.6179  -35.4437 O   0  0  0  0  0  0  0  0  0  0  0  0
  -14.6734   16.2820  -40.3464 O   0  0  0  0  0  0  0  0  0  0  0  0
   -9.0392   15.0264  -37.3135 O   0  0  0  0  0  0  0  0  0  0  0  0
  7  1  1  6
  1 13  2  0
  1 15  1  0
  2 12  1  0
  2 14  2  0
  2 16  1  0
  6  3  1  6
  3  7  1  0
  4  6  1  0
  4  7  1  0
  5  7  1  0
  5 12  1  0
  6 12  1  0
  8 11  1  0
  9 11  1  0
 10 11  1  0
 11 16  1  0
M  END
>  <id>  (37) 
EN300-7354076

>  <smiles>  (37) 
CC(C)(C)OC(=O)N1CC2(CC1C2)C(=O)O

>  <MDLNUMBER>  (37) 
MFCD28501912

>  <IUPAC Name>  (37) 
2-[(tert-butoxy)carbonyl]-2-azabicyclo[2.1.1]hexane-4-carboxylic acid

>  <CAS>  (37) 
220598-45-8

>  <Purity>  (37) 
95

>  <URL>  (37) 
https://www.enaminestore.com/catalog/EN300-7354076

>  <ROCS_ShapeQuery>  (37) 
_x1247relevant_x1083L0AP1_x1305L0BP1_

>  <ROCS_TanimotoCombo>  (37) 
0.825 

>  <ROCS_ShapeTanimoto>  (37) 
0.492 

>  <ROCS_ColorTanimoto>  (37) 
0.332 

>  <ROCS_RefTversky>  (37) 
0.423 

>  <ROCS_RefColorTversky>  (37) 
0.393 

>  <ROCS_RefTverskyCombo>  (37) 
0.816 

>  <ROCS_FitTversky>  (37) 
1.500 

>  <ROCS_FitColorTversky>  (37) 
0.682 

>  <ROCS_FitTverskyCombo>  (37) 
2.182 

>  <ROCS_ColorScore>  (37) 
-8.389

>  <ROCS_Overlap>  (37) 
1246.337

>  <ROCS_Rank>  (37) 
353                 

>  <Score>  (37) 
-1.4555626504518386

$$$$
LIG
     RDKit          3D

 16 17  0  0  0  0  0  0  0  0999 V2000
  -13.3298   16.4310  -40.2488 C   0  0  0  0  0  0  0  0  0  0  0  0
  -10.2210   14.8907  -36.6385 C   0  0  0  0  0  0  0  0  0  0  0  0
  -12.9949   14.1481  -38.8814 C   0  0  0  0  0  0  0  0  0  0  0  0
  -13.6105   15.7361  -37.6736 C   0  0  0  0  0  0  0  0  0  0  0  0
  -11.3296   15.9752  -38.6303 C   0  0  0  0  0  0  0  0  0  0  0  0
  -12.6604   14.5177  -37.3921 C   0  0  2  0  0  0  0  0  0  0  0  0
  -12.7964   15.7054  -39.0231 C   0  0  2  0  0  0  0  0  0  0  0  0
   -9.0697   12.6238  -37.2637 C   0  0  0  0  0  0  0  0  0  0  0  0
   -7.3992   13.9032  -38.6356 C   0  0  0  0  0  0  0  0  0  0  0  0
   -7.2508   13.9422  -36.1287 C   0  0  0  0  0  0  0  0  0  0  0  0
   -8.1918   13.8727  -37.3306 C   0  0  0  0  0  0  0  0  0  0  0  0
  -11.3037   15.0969  -37.4622 N   0  0  0  0  0  0  0  0  0  0  0  0
  -12.6486   17.0657  -41.0404 O   0  0  0  0  0  0  0  0  0  0  0  0
  -10.3054   14.6177  -35.4438 O   0  0  0  0  0  0  0  0  0  0  0  0
  -14.6734   16.2816  -40.3466 O   0  0  0  0  0  0  0  0  0  0  0  0
   -9.0392   15.0268  -37.3134 O   0  0  0  0  0  0  0  0  0  0  0  0
  7  1  1  6
  1 13  2  0
  1 15  1  0
  2 12  1  0
  2 14  2  0
  2 16  1  0
  6  3  1  6
  3  7  1  0
  4  6  1  0
  4  7  1  0
  5  7  1  0
  5 12  1  0
  6 12  1  0
  8 11  1  0
  9 11  1  0
 10 11  1  0
 11 16  1  0
M  END
>  <id>  (38) 
EN300-28309295

>  <smiles>  (38) 
CC(C)(C)OC(=O)N1C[C@]2(C[C@@H]1C2)C(=O)O

>  <IUPAC Name>  (38) 
(4r)-2-[(tert-butoxy)carbonyl]-2-azabicyclo[2.1.1]hexane-4-carboxylic acid

>  <CAS>  (38) 
220598-45-8

>  <URL>  (38) 
https://www.enaminestore.com/catalog/EN300-28309295

>  <ROCS_ShapeQuery>  (38) 
_x1247relevant_x1083L0AP1_x1305L0BP1_

>  <ROCS_TanimotoCombo>  (38) 
0.825 

>  <ROCS_ShapeTanimoto>  (38) 
0.492 

>  <ROCS_ColorTanimoto>  (38) 
0.332 

>  <ROCS_RefTversky>  (38) 
0.423 

>  <ROCS_RefColorTversky>  (38) 
0.393 

>  <ROCS_RefTverskyCombo>  (38) 
0.816 

>  <ROCS_FitTversky>  (38) 
1.500 

>  <ROCS_FitColorTversky>  (38) 
0.682 

>  <ROCS_FitTverskyCombo>  (38) 
2.182 

>  <ROCS_ColorScore>  (38) 
-8.389

>  <ROCS_Overlap>  (38) 
1246.328

>  <ROCS_Rank>  (38) 
354                 

>  <Score>  (38) 
-1.457278432440944

$$$$
LIG
     RDKit          3D

 20 22  0  0  1  0  0  0  0  0999 V2000
  -11.7581   16.0732  -40.6569 C   0  0  0  0  0  0  0  0  0  0  0  0
  -13.9975   15.6000  -37.8466 C   0  0  0  0  0  0  0  0  0  0  0  0
   -9.7268   15.6953  -38.1300 C   0  0  0  0  0  0  0  0  0  0  0  0
   -9.6963   15.2923  -36.0139 C   0  0  0  0  0  0  0  0  0  0  0  0
  -12.6554   14.1194  -39.2802 C   0  0  0  0  0  0  0  0  0  0  0  0
  -13.0926   14.3032  -37.8187 C   0  0  1  0  0  0  0  0  0  0  0  0
  -12.0922   15.2784  -37.0835 C   0  0  2  0  0  0  0  0  0  0  0  0
  -12.5960   16.2126  -38.2450 C   0  0  1  0  0  0  0  0  0  0  0  0
  -10.6355   14.8902  -37.1737 C   0  0  0  0  0  0  0  0  0  0  0  0
   -8.6140   15.6719  -37.0538 C   0  0  0  0  0  0  0  0  0  0  0  0
  -10.3863   16.7375  -43.0727 C   0  0  0  0  0  0  0  0  0  0  0  0
  -10.0736   14.2616  -43.3585 C   0  0  0  0  0  0  0  0  0  0  0  0
  -12.3892   15.2335  -43.3198 C   0  0  0  0  0  0  0  0  0  0  0  0
  -10.9663   15.3553  -42.7762 C   0  0  0  0  0  0  0  0  0  0  0  0
  -12.2833   15.5170  -39.5140 N   0  0  0  0  0  0  0  0  0  0  0  0
  -10.4548   13.4594  -37.4523 N   0  0  0  0  0  0  0  0  0  0  0  0
  -11.9430   17.2363  -41.0059 O   0  0  0  0  0  0  0  0  0  0  0  0
  -11.0033   15.1716  -41.3566 O   0  0  0  0  0  0  0  0  0  0  0  0
   -7.6468   14.7449  -37.2443 F   0  0  0  0  0  0  0  0  0  0  0  0
   -7.9869   16.8497  -36.8385 F   0  0  0  0  0  0  0  0  0  0  0  0
  1 15  1  0
  1 17  2  0
  1 18  1  0
  6  2  1  6
  8  2  1  1
  3  9  1  0
  3 10  1  0
  4  9  1  0
  4 10  1  0
  5  6  1  0
  5 15  1  0
  6  7  1  0
  7  8  1  0
  7  9  1  6
  8 15  1  0
  9 16  1  0
 10 19  1  0
 10 20  1  0
 11 14  1  0
 12 14  1  0
 13 14  1  0
 14 18  1  0
M  END
>  <id>  (39) 
EN300-1885773

>  <smiles>  (39) 
CC(C)(C)OC(=O)N1C[C@@H]2C[C@H]1C2C3(N)CC(F)(F)C3

>  <IUPAC Name>  (39) 
tert-butyl (1S,4R)-5-(1-amino-3,3-difluorocyclobutyl)-2-azabicyclo[2.1.1]hexane-2-carboxylate

>  <CAS>  (39) 
2227947-22-8

>  <URL>  (39) 
https://www.enaminestore.com/catalog/EN300-1885773

>  <ROCS_ShapeQuery>  (39) 
_x1247relevant_x1083L0AP1_x1305L0BP1_

>  <ROCS_TanimotoCombo>  (39) 
0.824 

>  <ROCS_ShapeTanimoto>  (39) 
0.464 

>  <ROCS_ColorTanimoto>  (39) 
0.360 

>  <ROCS_RefTversky>  (39) 
0.426 

>  <ROCS_RefColorTversky>  (39) 
0.417 

>  <ROCS_RefTverskyCombo>  (39) 
0.843 

>  <ROCS_FitTversky>  (39) 
1.239 

>  <ROCS_FitColorTversky>  (39) 
0.725 

>  <ROCS_FitTverskyCombo>  (39) 
1.965 

>  <ROCS_ColorScore>  (39) 
-8.899

>  <ROCS_Overlap>  (39) 
1259.242

>  <ROCS_Rank>  (39) 
362                 

>  <Score>  (39) 
-1.2207011233041385

$$$$
LIG
     RDKit          3D

 11 13  0  0  1  0  0  0  0  0999 V2000
   -9.5300   14.7397  -36.9304 C   0  0  0  0  0  0  0  0  0  0  0  0
  -13.6695   14.6025  -39.6895 C   0  0  0  0  0  0  0  0  0  0  0  0
  -13.4085   16.1298  -39.7223 C   0  0  0  0  0  0  0  0  0  0  0  0
  -13.7557   15.4510  -37.4829 C   0  0  0  0  0  0  0  0  0  0  0  0
  -10.9745   14.9847  -37.0427 C   0  0  2  0  0  0  0  0  0  0  0  0
  -13.2546   14.2172  -38.2499 C   0  0  2  0  0  0  0  0  0  0  0  0
  -12.8787   16.4150  -38.2972 C   0  0  1  0  0  0  0  0  0  0  0  0
  -11.7341   14.3301  -38.1757 C   0  0  1  0  0  0  0  0  0  0  0  0
  -11.4816   15.8065  -38.2075 C   0  0  2  0  0  0  0  0  0  0  0  0
   -9.1958   13.4071  -36.8805 N   0  0  0  0  0  0  0  0  0  0  0  0
   -8.7126   15.6565  -36.9028 O   0  0  0  0  0  0  0  0  0  0  0  0
  5  1  1  6
  1 10  1  0
  1 11  2  0
  2  3  1  0
  6  2  1  6
  7  3  1  6
  4  6  1  0
  4  7  1  0
  5  8  1  0
  5  9  1  0
  8  6  1  1
  9  7  1  1
  8  9  1  0
M  END
>  <id>  (40) 
EN300-764787

>  <smiles>  (40) 
NC(=O)[C@H]1[C@H]2[C@@H]1[C@@H]3CC[C@H]2C3

>  <IUPAC Name>  (40) 
(1R,2S,3R,4R,5S)-tricyclo[3.2.1.0,2,4]octane-3-carboxamide

>  <CAS>  (40) 
16529-69-4

>  <URL>  (40) 
https://www.enaminestore.com/catalog/EN300-764787

>  <ROCS_ShapeQuery>  (40) 
_x1247relevant_x1083L0AP1_x1305L0BP1_

>  <ROCS_TanimotoCombo>  (40) 
0.823 

>  <ROCS_ShapeTanimoto>  (40) 
0.463 

>  <ROCS_ColorTanimoto>  (40) 
0.360 

>  <ROCS_RefTversky>  (40) 
0.384 

>  <ROCS_RefColorTversky>  (40) 
0.499 

>  <ROCS_RefTverskyCombo>  (40) 
0.882 

>  <ROCS_FitTversky>  (40) 
1.805 

>  <ROCS_FitColorTversky>  (40) 
0.564 

>  <ROCS_FitTverskyCombo>  (40) 
2.369 

>  <ROCS_ColorScore>  (40) 
-10.823

>  <ROCS_Overlap>  (40) 
1126.724

>  <ROCS_Rank>  (40) 
384                 

>  <Score>  (40) 
-3.6381750038005976

$$$$
LIG
     RDKit          3D

 13 14  0  0  1  0  0  0  0  0999 V2000
  -11.4576   16.2373  -37.8328 C   0  0  0  0  0  0  0  0  0  0  0  0
  -10.9319   15.0511  -37.4859 C   0  0  0  0  0  0  0  0  0  0  0  0
   -9.5106   14.9866  -37.1486 C   0  0  0  0  0  0  0  0  0  0  0  0
  -11.7552   13.7899  -37.4473 C   0  0  0  0  0  0  0  0  0  0  0  0
  -13.7321   15.3286  -37.3688 C   0  0  0  0  0  0  0  0  0  0  0  0
  -13.2714   14.2661  -39.4632 C   0  0  0  0  0  0  0  0  0  0  0  0
  -12.9216   16.3324  -38.2043 C   0  0  2  0  0  0  0  0  0  0  0  0
  -13.2072   14.0096  -37.9413 C   0  0  1  0  0  0  0  0  0  0  0  0
  -13.1060   15.7898  -39.6323 C   0  0  2  0  0  0  0  0  0  0  0  0
   -7.8265   13.4787  -36.4739 C   0  0  0  0  0  0  0  0  0  0  0  0
   -8.7649   15.9553  -37.1633 O   0  0  0  0  0  0  0  0  0  0  0  0
  -14.2949   16.3259  -40.2041 O   0  0  0  0  0  0  0  0  0  0  0  0
   -9.1942   13.7048  -36.8306 O   0  0  0  0  0  0  0  0  0  0  0  0
  1  2  2  0
  7  1  1  1
  2  3  1  0
  2  4  1  0
  3 11  2  0
  3 13  1  0
  8  4  1  1
  5  7  1  0
  5  8  1  0
  6  8  1  0
  6  9  1  0
  7  9  1  0
  9 12  1  1
 10 13  1  0
M  END
>  <id>  (41) 
EN300-27100534

>  <smiles>  (41) 
COC(=O)C1=C[C@@H]2C[C@@H](C[C@H]2O)C1 |&1:6,8,10,r|

>  <IUPAC Name>  (41) 
rac-methyl (1R,5S,7S)-7-hydroxybicyclo[3.2.1]oct-2-ene-3-carboxylate

>  <CAS>  (41) 
2470279-69-5

>  <Purity>  (41) 
95

>  <URL>  (41) 
https://www.enaminestore.com/catalog/EN300-27100534

>  <ROCS_ShapeQuery>  (41) 
_x1247relevant_x1083L0AP1_x1305L0BP1_

>  <ROCS_TanimotoCombo>  (41) 
0.823 

>  <ROCS_ShapeTanimoto>  (41) 
0.469 

>  <ROCS_ColorTanimoto>  (41) 
0.354 

>  <ROCS_RefTversky>  (41) 
0.395 

>  <ROCS_RefColorTversky>  (41) 
0.378 

>  <ROCS_RefTverskyCombo>  (41) 
0.773 

>  <ROCS_FitTversky>  (41) 
1.664 

>  <ROCS_FitColorTversky>  (41) 
0.850 

>  <ROCS_FitTverskyCombo>  (41) 
2.514 

>  <ROCS_ColorScore>  (41) 
-8.008

>  <ROCS_Overlap>  (41) 
1160.698

>  <ROCS_Rank>  (41) 
385                 

>  <Score>  (41) 
-0.41580056151838107

$$$$
LIG
     RDKit          3D

 15 17  0  0  1  0  0  0  0  0999 V2000
  -11.6784   16.0315  -38.7728 C   0  0  0  0  0  0  0  0  0  0  0  0
  -11.9878   14.9688  -37.9132 C   0  0  0  0  0  0  0  0  0  0  0  0
  -12.7637   16.1333  -39.6129 C   0  0  0  0  0  0  0  0  0  0  0  0
  -15.2048   15.7626  -40.8998 C   0  0  0  0  0  0  0  0  0  0  0  0
  -14.8750   14.9688  -39.8761 C   0  0  0  0  0  0  0  0  0  0  0  0
  -14.1859   16.7880  -41.2392 C   0  0  0  0  0  0  0  0  0  0  0  0
   -9.1214   13.6501  -37.9198 C   0  0  0  0  0  0  0  0  0  0  0  0
   -8.3035   14.6301  -37.0926 C   0  0  0  0  0  0  0  0  0  0  0  0
  -10.2497   15.4371  -36.0353 C   0  0  0  0  0  0  0  0  0  0  0  0
  -11.1339   14.4168  -36.7768 C   0  0  2  0  0  0  0  0  0  0  0  0
  -13.1756   14.4221  -38.1702 N   0  0  0  0  0  0  0  0  0  0  0  0
  -13.0439   16.9740  -40.6497 N   0  0  0  0  0  0  0  0  0  0  0  0
  -13.6592   15.1375  -39.2192 N   0  0  0  0  0  0  0  0  0  0  0  0
  -10.3230   13.2587  -37.1880 N   0  0  0  0  0  0  0  0  0  0  0  0
   -9.0824   15.7838  -36.7835 O   0  0  0  0  0  0  0  0  0  0  0  0
  1  2  1  0
  1  3  2  0
 10  2  1  6
  2 11  2  0
  3 12  1  0
  3 13  1  0
  4  5  2  0
  4  6  1  0
  5 13  1  0
  6 12  2  0
  7  8  1  0
  7 14  1  0
  8 15  1  0
  9 10  1  0
  9 15  1  0
 10 14  1  0
 11 13  1  0
M  END
>  <id>  (42) 
EN300-1746838

>  <smiles>  (42) 
C1COCC(N1)C=2C=C3N=CC=CN3N2

>  <IUPAC Name>  (42) 
3-{pyrazolo[1,5-a]pyrimidin-2-yl}morpholine

>  <CAS>  (42) 
2228484-85-1

>  <URL>  (42) 
https://www.enaminestore.com/catalog/EN300-1746838

>  <ROCS_ShapeQuery>  (42) 
_x1247relevant_x1083L0AP1_x1305L0BP1_

>  <ROCS_TanimotoCombo>  (42) 
0.820 

>  <ROCS_ShapeTanimoto>  (42) 
0.511 

>  <ROCS_ColorTanimoto>  (42) 
0.309 

>  <ROCS_RefTversky>  (42) 
0.432 

>  <ROCS_RefColorTversky>  (42) 
0.333 

>  <ROCS_RefTverskyCombo>  (42) 
0.765 

>  <ROCS_FitTversky>  (42) 
1.562 

>  <ROCS_FitColorTversky>  (42) 
0.809 

>  <ROCS_FitTverskyCombo>  (42) 
2.371 

>  <ROCS_ColorScore>  (42) 
-7.055

>  <ROCS_Overlap>  (42) 
1271.245

>  <ROCS_Rank>  (42) 
433                 

>  <Score>  (42) 
-0.79591481862917135

$$$$
LIG
     RDKit          3D

 15 16  0  0  0  0  0  0  0  0999 V2000
  -10.0206   15.0603  -36.7860 C   0  0  0  0  0  0  0  0  0  0  0  0
  -13.4956   15.7311  -37.6621 C   0  0  0  0  0  0  0  0  0  0  0  0
  -12.8530   14.1702  -38.9005 C   0  0  0  0  0  0  0  0  0  0  0  0
  -11.2730   16.0846  -38.7234 C   0  0  0  0  0  0  0  0  0  0  0  0
  -12.4702   14.5623  -37.4264 C   0  0  1  0  0  0  0  0  0  0  0  0
  -12.7406   15.7377  -39.0481 C   0  0  2  0  0  0  0  0  0  0  0  0
   -8.4191   13.1154  -36.9594 C   0  0  0  0  0  0  0  0  0  0  0  0
   -8.5794   13.0376  -34.4539 C   0  0  0  0  0  0  0  0  0  0  0  0
  -10.2340   11.7676  -35.8529 C   0  0  0  0  0  0  0  0  0  0  0  0
  -13.3403   16.4330  -40.2358 C   0  0  0  0  0  0  0  0  0  0  0  0
   -9.3652   13.0214  -35.7632 C   0  0  0  0  0  0  0  0  0  0  0  0
  -11.1493   15.2108  -37.5584 N   0  0  0  0  0  0  0  0  0  0  0  0
   -8.9634   15.6528  -36.9867 O   0  0  0  0  0  0  0  0  0  0  0  0
  -14.7426   16.1888  -40.2711 O   0  0  0  0  0  0  0  0  0  0  0  0
  -10.2203   14.1697  -35.7673 O   0  0  0  0  0  0  0  0  0  0  0  0
  1 12  1  0
  1 13  2  0
  1 15  1  0
  5  2  1  6
  2  6  1  0
  3  5  1  0
  3  6  1  0
  4  6  1  0
  4 12  1  0
  5 12  1  0
  6 10  1  6
  7 11  1  0
  8 11  1  0
  9 11  1  0
 10 14  1  0
 11 15  1  0
M  END
>  <id>  (43) 
EN300-7456668

>  <smiles>  (43) 
CC(C)(C)OC(=O)N1CC2(CO)CC1C2

>  <MDLNUMBER>  (43) 
MFCD18073347

>  <IUPAC Name>  (43) 
tert-butyl 4-(hydroxymethyl)-2-azabicyclo[2.1.1]hexane-2-carboxylate

>  <CAS>  (43) 
220598-43-6

>  <Purity>  (43) 
95

>  <URL>  (43) 
https://www.enaminestore.com/catalog/EN300-7456668

>  <ROCS_ShapeQuery>  (43) 
_x1247relevant_x1083L0AP1_x1305L0BP1_

>  <ROCS_TanimotoCombo>  (43) 
0.819 

>  <ROCS_ShapeTanimoto>  (43) 
0.482 

>  <ROCS_ColorTanimoto>  (43) 
0.338 

>  <ROCS_RefTversky>  (43) 
0.411 

>  <ROCS_RefColorTversky>  (43) 
0.387 

>  <ROCS_RefTverskyCombo>  (43) 
0.798 

>  <ROCS_FitTversky>  (43) 
1.550 

>  <ROCS_FitColorTversky>  (43) 
0.727 

>  <ROCS_FitTverskyCombo>  (43) 
2.277 

>  <ROCS_ColorScore>  (43) 
-8.242

>  <ROCS_Overlap>  (43) 
1210.884

>  <ROCS_Rank>  (43) 
440                 

>  <Score>  (43) 
-3.1401611771600528

$$$$
LIG
     RDKit          3D

 11 12  0  0  1  0  0  0  0  0999 V2000
  -12.6248   14.1996  -39.4523 C   0  0  0  0  0  0  0  0  0  0  0  0
  -11.4590   15.1878  -39.4950 C   0  0  0  0  0  0  0  0  0  0  0  0
  -12.9025   14.5650  -36.9821 C   0  0  0  0  0  0  0  0  0  0  0  0
  -13.5120   14.8024  -38.3649 C   0  0  1  0  0  0  0  0  0  0  0  0
  -11.8247   16.1662  -38.3788 C   0  0  2  0  0  0  0  0  0  0  0  0
  -11.7425   15.5619  -36.9771 C   0  0  2  0  0  0  0  0  0  0  0  0
  -10.3044   13.3696  -37.3977 N   0  0  0  0  0  0  0  0  0  0  0  0
   -9.1380   15.6504  -37.1653 O   0  0  0  0  0  0  0  0  0  0  0  0
  -10.1800   14.5761  -35.1293 O   0  0  0  0  0  0  0  0  0  0  0  0
  -13.2656   16.2173  -38.5486 O   0  0  0  0  0  0  0  0  0  0  0  0
  -10.1958   14.8528  -36.5594 S   0  0  0  0  0  0  0  0  0  0  0  0
  1  2  1  0
  4  1  1  6
  5  2  1  6
  3  4  1  0
  3  6  1  0
  4 10  1  0
  5  6  1  0
  5 10  1  0
  6 11  1  6
  7 11  1  0
  8 11  2  0
  9 11  2  0
M  END
>  <id>  (44) 
EN300-27734302

>  <smiles>  (44) 
NS(=O)(=O)[C@@H]1C[C@@H]2CC[C@H]1O2 |&1:4,6,9,r|

>  <IUPAC Name>  (44) 
rac-(1R,2R,4S)-7-oxabicyclo[2.2.1]heptane-2-sulfonamide

>  <CAS>  (44) 
2580094-55-7

>  <URL>  (44) 
https://www.enaminestore.com/catalog/EN300-27734302

>  <ROCS_ShapeQuery>  (44) 
_x1247relevant_x1083L0AP1_x1305L0BP1_

>  <ROCS_TanimotoCombo>  (44) 
0.819 

>  <ROCS_ShapeTanimoto>  (44) 
0.434 

>  <ROCS_ColorTanimoto>  (44) 
0.385 

>  <ROCS_RefTversky>  (44) 
0.364 

>  <ROCS_RefColorTversky>  (44) 
0.421 

>  <ROCS_RefTverskyCombo>  (44) 
0.785 

>  <ROCS_FitTversky>  (44) 
1.782 

>  <ROCS_FitColorTversky>  (44) 
0.820 

>  <ROCS_FitTverskyCombo>  (44) 
2.602 

>  <ROCS_ColorScore>  (44) 
-8.954

>  <ROCS_Overlap>  (44) 
1068.836

>  <ROCS_Rank>  (44) 
458                 

>  <Score>  (44) 
-0.26134218174888701

$$$$
LIG
     RDKit          3D

 13 15  0  0  1  0  0  0  0  0999 V2000
   -9.3387   15.5189  -36.6503 C   0  0  0  0  0  0  0  0  0  0  0  0
  -14.4329   15.4968  -38.7530 C   0  0  0  0  0  0  0  0  0  0  0  0
  -13.4509   16.4788  -39.4101 C   0  0  0  0  0  0  0  0  0  0  0  0
  -11.7121   13.5982  -36.6282 C   0  0  0  0  0  0  0  0  0  0  0  0
  -10.2001   14.9800  -37.7492 C   0  0  2  0  0  0  0  0  0  0  0  0
  -13.2796   14.5217  -38.4940 C   0  0  1  0  0  0  0  0  0  0  0  0
  -12.3109   15.4765  -39.1905 C   0  0  2  0  0  0  0  0  0  0  0  0
  -12.5508   14.7538  -37.1554 C   0  0  2  0  0  0  0  0  0  0  0  0
  -11.5495   15.6809  -37.8643 C   0  0  1  0  0  0  0  0  0  0  0  0
   -9.3057   15.9476  -34.3267 C   0  0  0  0  0  0  0  0  0  0  0  0
  -10.4708   13.5743  -37.4148 N   0  0  0  0  0  0  0  0  0  0  0  0
   -8.2019   15.9405  -36.8149 O   0  0  0  0  0  0  0  0  0  0  0  0
  -10.0172   15.4610  -35.4691 O   0  0  0  0  0  0  0  0  0  0  0  0
  5  1  1  1
  1 12  2  0
  1 13  1  0
  2  3  1  0
  6  2  1  1
  7  3  1  1
  8  4  1  6
  4 11  1  0
  9  5  1  6
  5 11  1  0
  6  7  1  0
  6  8  1  0
  7  9  1  0
  8  9  1  0
 10 13  1  0
M  END
>  <id>  (45) 
EN300-37419434

>  <smiles>  (45) 
COC(=O)C1NCC2C3CCC3C21

>  <IUPAC Name>  (45) 
methyl 8-azatricyclo[4.3.0.0,2,5]nonane-7-carboxylate

>  <URL>  (45) 
https://www.enaminestore.com/catalog/EN300-37419434

>  <ROCS_ShapeQuery>  (45) 
_x1247relevant_x1083L0AP1_x1305L0BP1_

>  <ROCS_TanimotoCombo>  (45) 
0.818 

>  <ROCS_ShapeTanimoto>  (45) 
0.463 

>  <ROCS_ColorTanimoto>  (45) 
0.355 

>  <ROCS_RefTversky>  (45) 
0.393 

>  <ROCS_RefColorTversky>  (45) 
0.433 

>  <ROCS_RefTverskyCombo>  (45) 
0.826 

>  <ROCS_FitTversky>  (45) 
1.627 

>  <ROCS_FitColorTversky>  (45) 
0.663 

>  <ROCS_FitTverskyCombo>  (45) 
2.290 

>  <ROCS_ColorScore>  (45) 
-9.288

>  <ROCS_Overlap>  (45) 
1155.905

>  <ROCS_Rank>  (45) 
466                 

>  <Score>  (45) 
-1.8213060490703583

$$$$
LIG
     RDKit          3D

 14 16  0  0  1  0  0  0  0  0999 V2000
   -9.7164   14.2573  -36.0207 C   0  0  0  0  0  0  0  0  0  0  0  0
   -9.0885   15.1622  -36.9001 C   0  0  0  0  0  0  0  0  0  0  0  0
  -11.0497   13.8827  -36.2038 C   0  0  0  0  0  0  0  0  0  0  0  0
   -9.7795   15.7136  -37.9829 C   0  0  0  0  0  0  0  0  0  0  0  0
  -11.7173   14.4262  -37.2799 C   0  0  0  0  0  0  0  0  0  0  0  0
  -11.0921   15.3310  -38.1608 C   0  0  0  0  0  0  0  0  0  0  0  0
  -11.6493   16.2529  -40.4702 C   0  0  0  0  0  0  0  0  0  0  0  0
  -13.8811   15.5943  -37.4802 C   0  0  0  0  0  0  0  0  0  0  0  0
  -13.1928   16.5981  -38.4493 C   0  0  0  0  0  0  0  0  0  0  0  0
  -12.8932   14.3832  -39.2677 C   0  0  0  0  0  0  0  0  0  0  0  0
  -13.1434   14.2665  -37.7529 C   0  0  1  0  0  0  0  0  0  0  0  0
  -12.1433   15.7277  -39.1725 C   0  0  2  0  0  0  0  0  0  0  0  0
  -10.5947   15.9358  -41.0000 O   0  0  0  0  0  0  0  0  0  0  0  0
  -12.5296   17.1409  -40.9936 O   0  0  0  0  0  0  0  0  0  0  0  0
  1  2  2  0
  1  3  1  0
  2  4  1  0
  3  5  2  0
  4  6  2  0
  5  6  1  0
  5 11  1  0
  6 12  1  0
 12  7  1  6
  7 13  2  0
  7 14  1  0
  8  9  1  0
 11  8  1  1
  9 12  1  0
 10 11  1  0
 10 12  1  0
M  END
>  <id>  (46) 
EN300-7354809

>  <smiles>  (46) 
OC(=O)C1(CCC2C1)C=3C=CC=CC23

>  <MDLNUMBER>  (46) 
MFCD20640097

>  <IUPAC Name>  (46) 
tricyclo[6.2.1.0,2,7]undeca-2,4,6-triene-1-carboxylic acid

>  <CAS>  (46) 
13733-46-5

>  <Purity>  (46) 
95

>  <URL>  (46) 
https://www.enaminestore.com/catalog/EN300-7354809

>  <MP>  (46) 
93-94

>  <ROCS_ShapeQuery>  (46) 
_x1247relevant_x1083L0AP1_x1305L0BP1_

>  <ROCS_TanimotoCombo>  (46) 
0.818 

>  <ROCS_ShapeTanimoto>  (46) 
0.511 

>  <ROCS_ColorTanimoto>  (46) 
0.306 

>  <ROCS_RefTversky>  (46) 
0.427 

>  <ROCS_RefColorTversky>  (46) 
0.355 

>  <ROCS_RefTverskyCombo>  (46) 
0.782 

>  <ROCS_FitTversky>  (46) 
1.628 

>  <ROCS_FitColorTversky>  (46) 
0.688 

>  <ROCS_FitTverskyCombo>  (46) 
2.317 

>  <ROCS_ColorScore>  (46) 
-7.561

>  <ROCS_Overlap>  (46) 
1257.452

>  <ROCS_Rank>  (46) 
477                 

>  <Score>  (46) 
-1.1279876405460527

$$$$
LIG
     RDKit          3D

 10 12  0  0  1  0  0  0  0  0999 V2000
  -10.0491   14.7043  -36.2276 C   0  0  0  0  0  0  0  0  0  0  0  0
  -10.2784   15.8792  -36.8199 C   0  0  0  0  0  0  0  0  0  0  0  0
  -13.1495   16.0827  -39.3617 C   0  0  0  0  0  0  0  0  0  0  0  0
  -13.3893   14.7646  -39.4445 C   0  0  0  0  0  0  0  0  0  0  0  0
  -10.6722   13.5573  -36.9521 C   0  0  0  0  0  0  0  0  0  0  0  0
  -13.2805   15.2852  -37.2035 C   0  0  0  0  0  0  0  0  0  0  0  0
  -12.5101   16.3369  -38.0142 C   0  0  1  0  0  0  0  0  0  0  0  0
  -12.9095   14.1393  -38.1520 C   0  0  2  0  0  0  0  0  0  0  0  0
  -11.0810   15.7402  -38.0716 C   0  0  2  0  0  0  0  0  0  0  0  0
  -11.3573   14.1988  -38.1669 C   0  0  1  0  0  0  0  0  0  0  0  0
  1  2  2  0
  1  5  1  0
  9  2  1  1
  3  4  2  0
  7  3  1  6
  8  4  1  6
 10  5  1  1
  6  7  1  0
  6  8  1  0
  7  9  1  0
  8 10  1  0
  9 10  1  0
M  END
>  <id>  (47) 
EN300-19736

>  <smiles>  (47) 
C1C=CC2C3CC(C=C3)C12

>  <MDLNUMBER>  (47) 
MFCD00078246

>  <IUPAC Name>  (47) 
tricyclo[5.2.1.0,2,6]deca-3,8-diene

>  <CAS>  (47) 
77-73-6

>  <Purity>  (47) 
95

>  <URL>  (47) 
https://www.enaminestore.com/catalog/EN300-19736

>  <MP>  (47) 
33-34

>  <ROCS_ShapeQuery>  (47) 
_x1247relevant_x1083L0AP1_x1305L0BP1_

>  <ROCS_TanimotoCombo>  (47) 
1.103 

>  <ROCS_ShapeTanimoto>  (47) 
0.471 

>  <ROCS_ColorTanimoto>  (47) 
0.632 

>  <ROCS_RefTversky>  (47) 
0.394 

>  <ROCS_RefColorTversky>  (47) 
0.696 

>  <ROCS_RefTverskyCombo>  (47) 
1.090 

>  <ROCS_FitTversky>  (47) 
1.707 

>  <ROCS_FitColorTversky>  (47) 
0.874 

>  <ROCS_FitTverskyCombo>  (47) 
2.581 

>  <ROCS_ColorScore>  (47) 
-6.647

>  <ROCS_Overlap>  (47) 
967.707

>  <ROCS_Rank>  (47) 
19                  

>  <Score>  (47) 
-0.85684983350074617

$$$$
LIG
     RDKit          3D

 12 14  0  0  0  0  0  0  0  0999 V2000
   -8.9478   14.8489  -36.6567 C   0  0  0  0  0  0  0  0  0  0  0  0
   -9.7032   13.8506  -36.0378 C   0  0  0  0  0  0  0  0  0  0  0  0
   -9.5292   15.6768  -37.6137 C   0  0  0  0  0  0  0  0  0  0  0  0
  -11.0490   13.6714  -36.3714 C   0  0  0  0  0  0  0  0  0  0  0  0
  -10.8714   15.4881  -37.9374 C   0  0  0  0  0  0  0  0  0  0  0  0
  -11.6654   14.4855  -37.3290 C   0  0  0  0  0  0  0  0  0  0  0  0
  -11.5756   16.3303  -38.9522 C   0  0  0  0  0  0  0  0  0  0  0  0
  -13.9173   15.7627  -37.8383 C   0  0  0  0  0  0  0  0  0  0  0  0
  -13.3627   14.4076  -39.3476 C   0  0  0  0  0  0  0  0  0  0  0  0
  -13.1898   14.3697  -37.7851 C   0  0  1  0  0  0  0  0  0  0  0  0
  -13.1036   15.9454  -39.1682 C   0  0  2  0  0  0  0  0  0  0  0  0
  -10.9654   17.2250  -39.5312 O   0  0  0  0  0  0  0  0  0  0  0  0
  1  2  2  0
  1  3  1  0
  2  4  1  0
  3  5  2  0
  4  6  2  0
  5  6  1  0
  5  7  1  0
  6 10  1  0
  7 11  1  0
  7 12  2  0
 10  8  1  1
 11  8  1  1
  9 10  1  0
  9 11  1  0
M  END
>  <id>  (48) 
EN300-650580

>  <smiles>  (48) 
O=C1C2CC(C2)C=3C=CC=CC13

>  <MDLNUMBER>  (48) 
MFCD24692444

>  <IUPAC Name>  (48) 
tricyclo[7.1.1.0,2,7]undeca-2,4,6-trien-8-one

>  <CAS>  (48) 
69584-47-0

>  <Purity>  (48) 
95

>  <URL>  (48) 
https://www.enaminestore.com/catalog/EN300-650580

>  <ROCS_ShapeQuery>  (48) 
_x1247relevant_x1083L0AP1_x1305L0BP1_

>  <ROCS_TanimotoCombo>  (48) 
1.102 

>  <ROCS_ShapeTanimoto>  (48) 
0.496 

>  <ROCS_ColorTanimoto>  (48) 
0.606 

>  <ROCS_RefTversky>  (48) 
0.418 

>  <ROCS_RefColorTversky>  (48) 
0.694 

>  <ROCS_RefTverskyCombo>  (48) 
1.112 

>  <ROCS_FitTversky>  (48) 
1.597 

>  <ROCS_FitColorTversky>  (48) 
0.827 

>  <ROCS_FitTverskyCombo>  (48) 
2.424 

>  <ROCS_ColorScore>  (48) 
-6.650

>  <ROCS_Overlap>  (48) 
1028.795

>  <ROCS_Rank>  (48) 
20                  

>  <Score>  (48) 
-4.3904457344922321

$$$$
LIG
     RDKit          3D

 12 14  0  0  0  0  0  0  0  0999 V2000
   -8.9461   14.8518  -36.6556 C   0  0  0  0  0  0  0  0  0  0  0  0
   -9.6968   13.8429  -36.0483 C   0  0  0  0  0  0  0  0  0  0  0  0
   -9.5309   15.6865  -37.6046 C   0  0  0  0  0  0  0  0  0  0  0  0
  -11.0412   13.6597  -36.3856 C   0  0  0  0  0  0  0  0  0  0  0  0
  -10.8716   15.4938  -37.9321 C   0  0  0  0  0  0  0  0  0  0  0  0
  -11.6608   14.4805  -37.3353 C   0  0  0  0  0  0  0  0  0  0  0  0
  -11.5791   16.3426  -38.9391 C   0  0  0  0  0  0  0  0  0  0  0  0
  -13.3551   14.4144  -39.3569 C   0  0  0  0  0  0  0  0  0  0  0  0
  -13.9191   15.7505  -37.8342 C   0  0  0  0  0  0  0  0  0  0  0  0
  -13.1839   14.3611  -37.7948 C   0  0  2  0  0  0  0  0  0  0  0  0
  -13.1047   15.9517  -39.1610 C   0  0  1  0  0  0  0  0  0  0  0  0
  -10.9732   17.2466  -39.5080 O   0  0  0  0  0  0  0  0  0  0  0  0
  1  2  2  0
  1  3  1  0
  2  4  1  0
  3  5  2  0
  4  6  2  0
  5  6  1  0
  5  7  1  0
  6 10  1  0
  7 11  1  0
  7 12  2  0
 10  8  1  6
 11  8  1  1
  9 10  1  0
  9 11  1  0
M  END
>  <id>  (49) 
EN300-37375128

>  <smiles>  (49) 
O=C1[C@H]2C[C@H](C2)C=3C=CC=CC13

>  <IUPAC Name>  (49) 
(1s,9s)-tricyclo[7.1.1.0,2,7]undeca-2,4,6-trien-8-one

>  <CAS>  (49) 
69584-47-0

>  <URL>  (49) 
https://www.enaminestore.com/catalog/EN300-37375128

>  <ROCS_ShapeQuery>  (49) 
_x1247relevant_x1083L0AP1_x1305L0BP1_

>  <ROCS_TanimotoCombo>  (49) 
1.102 

>  <ROCS_ShapeTanimoto>  (49) 
0.495 

>  <ROCS_ColorTanimoto>  (49) 
0.606 

>  <ROCS_RefTversky>  (49) 
0.418 

>  <ROCS_RefColorTversky>  (49) 
0.694 

>  <ROCS_RefTverskyCombo>  (49) 
1.112 

>  <ROCS_FitTversky>  (49) 
1.597 

>  <ROCS_FitColorTversky>  (49) 
0.827 

>  <ROCS_FitTverskyCombo>  (49) 
2.424 

>  <ROCS_ColorScore>  (49) 
-6.651

>  <ROCS_Overlap>  (49) 
1028.638

>  <ROCS_Rank>  (49) 
21                  

>  <Score>  (49) 
-4.4431177894819029

$$$$
LIG
     RDKit          3D

 11 13  0  0  1  0  0  0  0  0999 V2000
   -9.5183   14.3145  -36.5491 C   0  0  0  0  0  0  0  0  0  0  0  0
  -10.6890   15.2125  -36.1038 C   0  0  0  0  0  0  0  0  0  0  0  0
   -9.9137   14.4634  -38.0308 C   0  0  0  0  0  0  0  0  0  0  0  0
  -13.2819   14.8228  -39.6866 C   0  0  0  0  0  0  0  0  0  0  0  0
  -12.1591   15.8715  -39.6808 C   0  0  0  0  0  0  0  0  0  0  0  0
  -13.4068   16.0686  -37.6613 C   0  0  0  0  0  0  0  0  0  0  0  0
  -12.4467   13.8833  -37.5135 C   0  0  0  0  0  0  0  0  0  0  0  0
  -13.6037   14.6490  -38.1932 C   0  0  2  0  0  0  0  0  0  0  0  0
  -11.9698   16.1692  -38.1831 C   0  0  1  0  0  0  0  0  0  0  0  0
  -11.3160   14.9409  -37.5182 C   0  0  0  0  0  0  0  0  0  0  0  0
   -8.6420   13.7160  -35.9641 O   0  0  0  0  0  0  0  0  0  0  0  0
  1  2  1  0
  1  3  1  0
  1 11  2  0
  2 10  1  0
  3 10  1  0
  4  5  1  0
  8  4  1  6
  9  5  1  6
  6  8  1  0
  6  9  1  0
  7  8  1  0
  7 10  1  0
  9 10  1  0
M  END
>  <id>  (50) 
EN300-6497331

>  <smiles>  (50) 
O=C1CC2(C1)CC3CCC2C3

>  <MDLNUMBER>  (50) 
MFCD31718762

>  <IUPAC Name>  (50) 
spiro[bicyclo[2.2.1]heptane-2,1'-cyclobutane]-3'-one

>  <CAS>  (50) 
2248287-18-3

>  <Purity>  (50) 
95

>  <URL>  (50) 
https://www.enaminestore.com/catalog/EN300-6497331

>  <ROCS_ShapeQuery>  (50) 
_x1247relevant_x1083L0AP1_x1305L0BP1_

>  <ROCS_TanimotoCombo>  (50) 
1.099 

>  <ROCS_ShapeTanimoto>  (50) 
0.492 

>  <ROCS_ColorTanimoto>  (50) 
0.606 

>  <ROCS_RefTversky>  (50) 
0.410 

>  <ROCS_RefColorTversky>  (50) 
0.708 

>  <ROCS_RefTverskyCombo>  (50) 
1.117 

>  <ROCS_FitTversky>  (50) 
1.693 

>  <ROCS_FitColorTversky>  (50) 
0.809 

>  <ROCS_FitTverskyCombo>  (50) 
2.502 

>  <ROCS_ColorScore>  (50) 
-6.792

>  <ROCS_Overlap>  (50) 
1007.155

>  <ROCS_Rank>  (50) 
24                  

>  <Score>  (50) 
-1.1619825621513655

$$$$
LIG
     RDKit          3D

 10 12  0  0  1  0  0  0  0  0999 V2000
   -9.6594   14.5994  -37.5054 C   0  0  0  0  0  0  0  0  0  0  0  0
  -10.6006   13.6503  -37.5395 C   0  0  0  0  0  0  0  0  0  0  0  0
  -12.4051   14.6821  -39.6841 C   0  0  0  0  0  0  0  0  0  0  0  0
  -12.1845   15.9946  -39.5212 C   0  0  0  0  0  0  0  0  0  0  0  0
  -10.2043   15.9596  -37.2030 C   0  0  0  0  0  0  0  0  0  0  0  0
  -13.8456   15.4029  -38.0371 C   0  0  0  0  0  0  0  0  0  0  0  0
  -13.0094   14.1652  -38.3979 C   0  0  2  0  0  0  0  0  0  0  0  0
  -12.6453   16.3595  -38.1291 C   0  0  1  0  0  0  0  0  0  0  0  0
  -11.9590   14.1974  -37.2563 C   0  0  2  0  0  0  0  0  0  0  0  0
  -11.7122   15.7308  -37.0585 C   0  0  1  0  0  0  0  0  0  0  0  0
  1  2  2  0
  1  5  1  0
  9  2  1  6
  3  4  2  0
  7  3  1  6
  8  4  1  6
 10  5  1  6
  6  7  1  0
  6  8  1  0
  7  9  1  0
  8 10  1  0
  9 10  1  0
M  END
>  <id>  (51) 
EN300-7541081

>  <smiles>  (51) 
C1C=C[C@@H]2[C@H]3C[C@H](C=C3)[C@H]12 |&1:3,4,6,9,r|

>  <IUPAC Name>  (51) 
rac-(1R,2S,6R,7S)-tricyclo[5.2.1.0,2,6]deca-3,8-diene

>  <CAS>  (51) 
1755-01-7

>  <Purity>  (51) 
95

>  <URL>  (51) 
https://www.enaminestore.com/catalog/EN300-7541081

>  <MP>  (51) 
30-32

>  <ROCS_ShapeQuery>  (51) 
_x1247relevant_x1083L0AP1_x1305L0BP1_

>  <ROCS_TanimotoCombo>  (51) 
1.082 

>  <ROCS_ShapeTanimoto>  (51) 
0.467 

>  <ROCS_ColorTanimoto>  (51) 
0.614 

>  <ROCS_RefTversky>  (51) 
0.392 

>  <ROCS_RefColorTversky>  (51) 
0.682 

>  <ROCS_RefTverskyCombo>  (51) 
1.074 

>  <ROCS_FitTversky>  (51) 
1.698 

>  <ROCS_FitColorTversky>  (51) 
0.861 

>  <ROCS_FitTverskyCombo>  (51) 
2.559 

>  <ROCS_ColorScore>  (51) 
-6.516

>  <ROCS_Overlap>  (51) 
963.058

>  <ROCS_Rank>  (51) 
29                  

>  <Score>  (51) 
-0.32034207112178592

$$$$
LIG
     RDKit          3D

 10 12  0  0  1  0  0  0  0  0999 V2000
  -10.3715   14.0050  -36.7720 C   0  0  0  0  0  0  0  0  0  0  0  0
  -10.2367   13.6139  -38.2164 C   0  0  0  0  0  0  0  0  0  0  0  0
  -13.4182   15.5242  -37.3141 C   0  0  0  0  0  0  0  0  0  0  0  0
  -13.2631   14.1714  -39.2672 C   0  0  0  0  0  0  0  0  0  0  0  0
  -11.2426   16.0560  -38.1536 C   0  0  0  0  0  0  0  0  0  0  0  0
  -12.7835   14.2139  -37.8028 C   0  0  1  0  0  0  0  0  0  0  0  0
  -12.7395   16.3722  -38.4012 C   0  0  1  0  0  0  0  0  0  0  0  0
  -13.2000   15.6547  -39.6875 C   0  0  2  0  0  0  0  0  0  0  0  0
  -11.3110   14.5849  -37.7991 C   0  0  0  0  0  0  0  0  0  0  0  0
  -14.4952   16.0973  -40.0682 O   0  0  0  0  0  0  0  0  0  0  0  0
  1  2  1  0
  1  9  1  0
  2  9  1  0
  3  6  1  0
  3  7  1  0
  6  4  1  6
  4  8  1  0
  7  5  1  1
  5  9  1  0
  6  9  1  0
  7  8  1  0
  8 10  1  1
M  END
>  <id>  (52) 
EN300-7682466

>  <smiles>  (52) 
OC1CC2CC1CC32CC3

>  <MDLNUMBER>  (52) 
MFCD34168683

>  <IUPAC Name>  (52) 
spiro[bicyclo[2.2.1]heptane-2,1'-cyclopropane]-5-ol

>  <CAS>  (52) 
111266-25-2

>  <Purity>  (52) 
95

>  <URL>  (52) 
https://www.enaminestore.com/catalog/EN300-7682466

>  <ROCS_ShapeQuery>  (52) 
_x1247relevant_x1083L0AP1_x1305L0BP1_

>  <ROCS_TanimotoCombo>  (52) 
1.078 

>  <ROCS_ShapeTanimoto>  (52) 
0.464 

>  <ROCS_ColorTanimoto>  (52) 
0.614 

>  <ROCS_RefTversky>  (52) 
0.388 

>  <ROCS_RefColorTversky>  (52) 
0.713 

>  <ROCS_RefTverskyCombo>  (52) 
1.101 

>  <ROCS_FitTversky>  (52) 
1.729 

>  <ROCS_FitColorTversky>  (52) 
0.815 

>  <ROCS_FitTverskyCombo>  (52) 
2.544 

>  <ROCS_ColorScore>  (52) 
-6.845

>  <ROCS_Overlap>  (52) 
953.659

>  <ROCS_Rank>  (52) 
34                  

>  <Score>  (52) 
-2.2023373633542178

$$$$
LIG
     RDKit          3D

  9 10  0  0  1  0  0  0  0  0999 V2000
  -15.4346   14.0181  -40.7048 C   0  0  0  0  0  0  0  0  0  0  0  0
  -14.3646   14.2886  -40.2326 C   0  0  0  0  0  0  0  0  0  0  0  0
  -11.2913   15.6866  -37.6766 C   0  0  0  0  0  0  0  0  0  0  0  0
  -11.5089   14.3650  -37.7503 C   0  0  0  0  0  0  0  0  0  0  0  0
  -12.8388   16.1628  -39.5492 C   0  0  0  0  0  0  0  0  0  0  0  0
  -13.5666   15.3664  -37.4325 C   0  0  0  0  0  0  0  0  0  0  0  0
  -13.0543   14.6203  -39.6547 C   0  0  1  0  0  0  0  0  0  0  0  0
  -12.5872   16.3739  -38.0383 C   0  0  1  0  0  0  0  0  0  0  0  0
  -12.9485   14.1723  -38.1735 C   0  0  1  0  0  0  0  0  0  0  0  0
  1  2  3  0
  7  2  1  1
  3  4  2  0
  3  8  1  0
  9  4  1  1
  5  7  1  0
  8  5  1  6
  6  8  1  0
  6  9  1  0
  7  9  1  0
M  END
>  <id>  (53) 
EN300-1825497

>  <smiles>  (53) 
C#CC1CC2CC1C=C2

>  <MDLNUMBER>  (53) 
MFCD32775357

>  <IUPAC Name>  (53) 
5-ethynylbicyclo[2.2.1]hept-2-ene

>  <CAS>  (53) 
77891-01-1

>  <Purity>  (53) 
95

>  <URL>  (53) 
https://www.enaminestore.com/catalog/EN300-1825497

>  <ROCS_ShapeQuery>  (53) 
_x1247relevant_x1083L0AP1_x1305L0BP1_

>  <ROCS_TanimotoCombo>  (53) 
1.072 

>  <ROCS_ShapeTanimoto>  (53) 
0.411 

>  <ROCS_ColorTanimoto>  (53) 
0.661 

>  <ROCS_RefTversky>  (53) 
0.351 

>  <ROCS_RefColorTversky>  (53) 
0.710 

>  <ROCS_RefTverskyCombo>  (53) 
1.061 

>  <ROCS_FitTversky>  (53) 
1.704 

>  <ROCS_FitColorTversky>  (53) 
0.906 

>  <ROCS_FitTverskyCombo>  (53) 
2.610 

>  <ROCS_ColorScore>  (53) 
-6.779

>  <ROCS_Overlap>  (53) 
861.984

>  <ROCS_Rank>  (53) 
54                  

>  <Score>  (53) 
-3.9878795297918259

$$$$
LIG
     RDKit          3D

 10 11  0  0  1  0  0  0  0  0999 V2000
  -13.3373   15.6520  -37.3048 C   0  0  0  0  0  0  0  0  0  0  0  0
  -13.3488   14.1590  -39.1674 C   0  0  0  0  0  0  0  0  0  0  0  0
  -11.1797   15.9414  -38.2961 C   0  0  0  0  0  0  0  0  0  0  0  0
  -12.8244   14.2729  -37.7250 C   0  0  1  0  0  0  0  0  0  0  0  0
  -12.6548   16.3606  -38.4822 C   0  0  1  0  0  0  0  0  0  0  0  0
  -13.2248   15.6019  -39.7036 C   0  0  2  0  0  0  0  0  0  0  0  0
  -11.3145   14.5237  -37.7447 C   0  0  0  0  0  0  0  0  0  0  0  0
  -14.5326   16.1206  -40.0922 N   0  0  0  0  0  0  0  0  0  0  0  0
  -10.8141   14.4653  -36.4886 F   0  0  0  0  0  0  0  0  0  0  0  0
  -10.6538   13.6184  -38.4882 F   0  0  0  0  0  0  0  0  0  0  0  0
  1  4  1  0
  1  5  1  0
  4  2  1  6
  2  6  1  0
  5  3  1  1
  3  7  1  0
  4  7  1  0
  5  6  1  0
  6  8  1  1
  7  9  1  0
  7 10  1  0
M  END
>  <id>  (54) 
EN300-1723889

>  <smiles>  (54) 
Cl.NC1CC2CC1CC2(F)F

>  <MDLNUMBER>  (54) 
MFCD31665268

>  <IUPAC Name>  (54) 
5,5-difluorobicyclo[2.2.1]heptan-2-amine hydrochloride

>  <CAS>  (54) 
2228261-05-8

>  <Purity>  (54) 
95

>  <URL>  (54) 
https://www.enaminestore.com/catalog/EN300-1723889

>  <Saltdate>  (54) 
Cl

>  <ROCS_ShapeQuery>  (54) 
_x1247relevant_x1083L0AP1_x1305L0BP1_

>  <ROCS_TanimotoCombo>  (54) 
1.072 

>  <ROCS_ShapeTanimoto>  (54) 
0.462 

>  <ROCS_ColorTanimoto>  (54) 
0.610 

>  <ROCS_RefTversky>  (54) 
0.387 

>  <ROCS_RefColorTversky>  (54) 
0.710 

>  <ROCS_RefTverskyCombo>  (54) 
1.097 

>  <ROCS_FitTversky>  (54) 
1.715 

>  <ROCS_FitColorTversky>  (54) 
0.813 

>  <ROCS_FitTverskyCombo>  (54) 
2.527 

>  <ROCS_ColorScore>  (54) 
-6.813

>  <ROCS_Overlap>  (54) 
951.459

>  <ROCS_Rank>  (54) 
55                  

>  <Score>  (54) 
-0.80984551897108759

$$$$
LIG
     RDKit          3D

 10 11  0  0  1  0  0  0  0  0999 V2000
  -13.3373   15.6520  -37.3048 C   0  0  0  0  0  0  0  0  0  0  0  0
  -13.3488   14.1590  -39.1674 C   0  0  0  0  0  0  0  0  0  0  0  0
  -11.1797   15.9414  -38.2961 C   0  0  0  0  0  0  0  0  0  0  0  0
  -12.8244   14.2729  -37.7250 C   0  0  1  0  0  0  0  0  0  0  0  0
  -12.6548   16.3606  -38.4822 C   0  0  1  0  0  0  0  0  0  0  0  0
  -13.2248   15.6019  -39.7036 C   0  0  2  0  0  0  0  0  0  0  0  0
  -11.3145   14.5237  -37.7447 C   0  0  0  0  0  0  0  0  0  0  0  0
  -14.5326   16.1206  -40.0922 N   0  0  0  0  0  0  0  0  0  0  0  0
  -10.8141   14.4653  -36.4886 F   0  0  0  0  0  0  0  0  0  0  0  0
  -10.6538   13.6184  -38.4882 F   0  0  0  0  0  0  0  0  0  0  0  0
  1  4  1  0
  1  5  1  0
  4  2  1  6
  2  6  1  0
  5  3  1  1
  3  7  1  0
  4  7  1  0
  5  6  1  0
  6  8  1  1
  7  9  1  0
  7 10  1  0
M  END
>  <id>  (55) 
EN300-1723890

>  <smiles>  (55) 
NC1CC2CC1CC2(F)F

>  <MDLNUMBER>  (55) 
MFCD24505798

>  <IUPAC Name>  (55) 
5,5-difluorobicyclo[2.2.1]heptan-2-amine

>  <CAS>  (55) 
1824236-91-0

>  <URL>  (55) 
https://www.enaminestore.com/catalog/EN300-1723890

>  <ROCS_ShapeQuery>  (55) 
_x1247relevant_x1083L0AP1_x1305L0BP1_

>  <ROCS_TanimotoCombo>  (55) 
1.072 

>  <ROCS_ShapeTanimoto>  (55) 
0.462 

>  <ROCS_ColorTanimoto>  (55) 
0.610 

>  <ROCS_RefTversky>  (55) 
0.387 

>  <ROCS_RefColorTversky>  (55) 
0.710 

>  <ROCS_RefTverskyCombo>  (55) 
1.097 

>  <ROCS_FitTversky>  (55) 
1.715 

>  <ROCS_FitColorTversky>  (55) 
0.813 

>  <ROCS_FitTverskyCombo>  (55) 
2.527 

>  <ROCS_ColorScore>  (55) 
-6.813

>  <ROCS_Overlap>  (55) 
951.459

>  <ROCS_Rank>  (55) 
56                  

>  <Score>  (55) 
-0.80984551897108759

$$$$
LIG
     RDKit          3D

 10 12  0  0  1  0  0  0  0  0999 V2000
  -10.1922   14.4266  -36.7403 C   0  0  0  0  0  0  0  0  0  0  0  0
   -9.7857   14.7087  -38.1590 C   0  0  0  0  0  0  0  0  0  0  0  0
  -13.4125   15.5307  -37.2842 C   0  0  0  0  0  0  0  0  0  0  0  0
  -12.2982   16.5096  -39.1518 C   0  0  0  0  0  0  0  0  0  0  0  0
  -12.2192   13.6850  -38.2276 C   0  0  0  0  0  0  0  0  0  0  0  0
  -12.0270   16.0443  -37.7071 C   0  0  2  0  0  0  0  0  0  0  0  0
  -13.5026   14.5318  -38.4476 C   0  0  2  0  0  0  0  0  0  0  0  0
  -13.2942   15.4470  -39.6801 C   0  0  1  0  0  0  0  0  0  0  0  0
  -11.2420   14.7479  -37.7737 C   0  0  0  0  0  0  0  0  0  0  0  0
  -14.5334   16.0727  -40.1323 N   0  0  0  0  0  0  0  0  0  0  0  0
  1  2  1  0
  1  9  1  0
  2  9  1  0
  3  6  1  0
  3  7  1  0
  6  4  1  6
  4  8  1  0
  7  5  1  1
  5  9  1  0
  6  9  1  0
  7  8  1  0
  8 10  1  1
M  END
>  <id>  (56) 
EN300-37153678

>  <smiles>  (56) 
Cl.NC1CC2CC1CC32CC3

>  <MDLNUMBER>  (56) 
MFCD34575840

>  <IUPAC Name>  (56) 
spiro[bicyclo[2.2.1]heptane-2,1'-cyclopropan]-5-amine hydrochloride

>  <CAS>  (56) 
2742657-57-2

>  <Purity>  (56) 
95

>  <URL>  (56) 
https://www.enaminestore.com/catalog/EN300-37153678

>  <Saltdate>  (56) 
Cl

>  <ROCS_ShapeQuery>  (56) 
_x1247relevant_x1083L0AP1_x1305L0BP1_

>  <ROCS_TanimotoCombo>  (56) 
1.068 

>  <ROCS_ShapeTanimoto>  (56) 
0.477 

>  <ROCS_ColorTanimoto>  (56) 
0.592 

>  <ROCS_RefTversky>  (56) 
0.395 

>  <ROCS_RefColorTversky>  (56) 
0.697 

>  <ROCS_RefTverskyCombo>  (56) 
1.092 

>  <ROCS_FitTversky>  (56) 
1.766 

>  <ROCS_FitColorTversky>  (56) 
0.797 

>  <ROCS_FitTverskyCombo>  (56) 
2.563 

>  <ROCS_ColorScore>  (56) 
-6.686

>  <ROCS_Overlap>  (56) 
969.940

>  <ROCS_Rank>  (56) 
70                  

>  <Score>  (56) 
-2.9760911922030573

$$$$
LIG
     RDKit          3D

 10 12  0  0  1  0  0  0  0  0999 V2000
  -10.1922   14.4266  -36.7403 C   0  0  0  0  0  0  0  0  0  0  0  0
   -9.7857   14.7087  -38.1590 C   0  0  0  0  0  0  0  0  0  0  0  0
  -13.4125   15.5307  -37.2842 C   0  0  0  0  0  0  0  0  0  0  0  0
  -12.2982   16.5096  -39.1518 C   0  0  0  0  0  0  0  0  0  0  0  0
  -12.2192   13.6850  -38.2276 C   0  0  0  0  0  0  0  0  0  0  0  0
  -12.0270   16.0443  -37.7071 C   0  0  2  0  0  0  0  0  0  0  0  0
  -13.5026   14.5318  -38.4476 C   0  0  2  0  0  0  0  0  0  0  0  0
  -13.2942   15.4470  -39.6801 C   0  0  1  0  0  0  0  0  0  0  0  0
  -11.2420   14.7479  -37.7737 C   0  0  0  0  0  0  0  0  0  0  0  0
  -14.5334   16.0727  -40.1323 N   0  0  0  0  0  0  0  0  0  0  0  0
  1  2  1  0
  1  9  1  0
  2  9  1  0
  3  6  1  0
  3  7  1  0
  6  4  1  6
  4  8  1  0
  7  5  1  1
  5  9  1  0
  6  9  1  0
  7  8  1  0
  8 10  1  1
M  END
>  <id>  (57) 
EN300-22878943

>  <smiles>  (57) 
NC1CC2CC1CC32CC3

>  <MDLNUMBER>  (57) 
MFCD34575382

>  <IUPAC Name>  (57) 
spiro[bicyclo[2.2.1]heptane-2,1'-cyclopropane]-5-amine

>  <CAS>  (57) 
2742657-56-1

>  <URL>  (57) 
https://www.enaminestore.com/catalog/EN300-22878943

>  <ROCS_ShapeQuery>  (57) 
_x1247relevant_x1083L0AP1_x1305L0BP1_

>  <ROCS_TanimotoCombo>  (57) 
1.068 

>  <ROCS_ShapeTanimoto>  (57) 
0.477 

>  <ROCS_ColorTanimoto>  (57) 
0.592 

>  <ROCS_RefTversky>  (57) 
0.395 

>  <ROCS_RefColorTversky>  (57) 
0.697 

>  <ROCS_RefTverskyCombo>  (57) 
1.092 

>  <ROCS_FitTversky>  (57) 
1.766 

>  <ROCS_FitColorTversky>  (57) 
0.797 

>  <ROCS_FitTverskyCombo>  (57) 
2.563 

>  <ROCS_ColorScore>  (57) 
-6.686

>  <ROCS_Overlap>  (57) 
969.940

>  <ROCS_Rank>  (57) 
71                  

>  <Score>  (57) 
-2.9760911922030573

$$$$
LIG
     RDKit          3D

 13 15  0  0  1  0  0  0  0  0999 V2000
   -9.1201   15.8448  -38.5392 C   0  0  0  0  0  0  0  0  0  0  0  0
  -13.3407   14.8490  -39.7015 C   0  0  0  0  0  0  0  0  0  0  0  0
  -12.3252   16.0002  -39.6783 C   0  0  0  0  0  0  0  0  0  0  0  0
   -9.2763   13.8988  -37.0512 C   0  0  0  0  0  0  0  0  0  0  0  0
  -13.4768   15.9621  -37.6048 C   0  0  0  0  0  0  0  0  0  0  0  0
  -12.3209   13.8716  -37.6340 C   0  0  0  0  0  0  0  0  0  0  0  0
   -9.7733   14.6365  -35.8220 C   0  0  0  0  0  0  0  0  0  0  0  0
   -9.9267   14.6590  -38.1924 C   0  0  1  0  0  0  0  0  0  0  0  0
  -13.5735   14.5639  -38.2083 C   0  0  2  0  0  0  0  0  0  0  0  0
  -12.0741   16.2101  -38.1750 C   0  0  1  0  0  0  0  0  0  0  0  0
  -11.2793   15.0248  -37.5754 C   0  0  1  0  0  0  0  0  0  0  0  0
   -8.4857   16.7772  -38.8120 N   0  0  0  0  0  0  0  0  0  0  0  0
  -11.0001   15.2877  -36.1816 O   0  0  0  0  0  0  0  0  0  0  0  0
  8  1  1  1
  1 12  3  0
  2  3  1  0
  9  2  1  6
 10  3  1  6
  4  7  1  0
  4  8  1  0
  5  9  1  0
  5 10  1  0
  6  9  1  0
 11  6  1  1
  7 13  1  0
  8 11  1  0
 10 11  1  0
 11 13  1  0
M  END
>  <id>  (58) 
EN300-744258

>  <smiles>  (58) 
N#CC1CCOC21CC3CCC2C3

>  <IUPAC Name>  (58) 
spiro[bicyclo[2.2.1]heptane-2,2'-oxolane]-3'-carbonitrile

>  <CAS>  (58) 
2137675-51-3

>  <URL>  (58) 
https://www.enaminestore.com/catalog/EN300-744258

>  <ROCS_ShapeQuery>  (58) 
_x1247relevant_x1083L0AP1_x1305L0BP1_

>  <ROCS_TanimotoCombo>  (58) 
1.067 

>  <ROCS_ShapeTanimoto>  (58) 
0.506 

>  <ROCS_ColorTanimoto>  (58) 
0.561 

>  <ROCS_RefTversky>  (58) 
0.430 

>  <ROCS_RefColorTversky>  (58) 
0.707 

>  <ROCS_RefTverskyCombo>  (58) 
1.137 

>  <ROCS_FitTversky>  (58) 
1.539 

>  <ROCS_FitColorTversky>  (58) 
0.731 

>  <ROCS_FitTverskyCombo>  (58) 
2.270 

>  <ROCS_ColorScore>  (58) 
-6.821

>  <ROCS_Overlap>  (58) 
1057.831

>  <ROCS_Rank>  (58) 
76                  

>  <Score>  (58) 
-1.8870342119255383

$$$$
LIG
     RDKit          3D

 10 11  0  0  1  0  0  0  0  0999 V2000
  -13.5013   15.3792  -37.3353 C   0  0  0  0  0  0  0  0  0  0  0  0
  -12.3783   16.5949  -39.0503 C   0  0  0  0  0  0  0  0  0  0  0  0
  -12.0846   13.7458  -38.3596 C   0  0  0  0  0  0  0  0  0  0  0  0
  -12.1574   16.0468  -37.6292 C   0  0  2  0  0  0  0  0  0  0  0  0
  -13.4248   14.4762  -38.5739 C   0  0  2  0  0  0  0  0  0  0  0  0
  -13.2432   15.5059  -39.7064 C   0  0  1  0  0  0  0  0  0  0  0  0
  -11.2382   14.8224  -37.6812 C   0  0  0  0  0  0  0  0  0  0  0  0
  -14.4971   16.0552  -40.0864 O   0  0  0  0  0  0  0  0  0  0  0  0
  -10.0934   15.0682  -38.3432 F   0  0  0  0  0  0  0  0  0  0  0  0
  -10.9095   14.4313  -36.4277 F   0  0  0  0  0  0  0  0  0  0  0  0
  1  4  1  0
  1  5  1  0
  4  2  1  6
  2  6  1  0
  5  3  1  1
  3  7  1  0
  4  7  1  0
  5  6  1  0
  6  8  1  1
  7  9  1  0
  7 10  1  0
M  END
>  <id>  (59) 
EN300-6764026

>  <smiles>  (59) 
OC1CC2CC1CC2(F)F

>  <IUPAC Name>  (59) 
5,5-difluorobicyclo[2.2.1]heptan-2-ol

>  <CAS>  (59) 
2770545-59-8

>  <URL>  (59) 
https://www.enaminestore.com/catalog/EN300-6764026

>  <ROCS_ShapeQuery>  (59) 
_x1247relevant_x1083L0AP1_x1305L0BP1_

>  <ROCS_TanimotoCombo>  (59) 
1.066 

>  <ROCS_ShapeTanimoto>  (59) 
0.469 

>  <ROCS_ColorTanimoto>  (59) 
0.597 

>  <ROCS_RefTversky>  (59) 
0.392 

>  <ROCS_RefColorTversky>  (59) 
0.701 

>  <ROCS_RefTverskyCombo>  (59) 
1.092 

>  <ROCS_FitTversky>  (59) 
1.727 

>  <ROCS_FitColorTversky>  (59) 
0.802 

>  <ROCS_FitTverskyCombo>  (59) 
2.529 

>  <ROCS_ColorScore>  (59) 
-6.723

>  <ROCS_Overlap>  (59) 
961.991

>  <ROCS_Rank>  (59) 
78                  

>  <Score>  (59) 
-0.29409879406796335

$$$$
LIG
     RDKit          3D

 11 13  0  0  1  0  0  0  0  0999 V2000
   -9.1827   13.9899  -37.1267 C   0  0  0  0  0  0  0  0  0  0  0  0
  -13.2991   14.8114  -39.7146 C   0  0  0  0  0  0  0  0  0  0  0  0
  -12.3065   15.9818  -39.6885 C   0  0  0  0  0  0  0  0  0  0  0  0
   -9.9618   14.7261  -38.2064 C   0  0  0  0  0  0  0  0  0  0  0  0
  -13.5070   15.9738  -37.6466 C   0  0  0  0  0  0  0  0  0  0  0  0
  -12.3312   13.8912  -37.5968 C   0  0  0  0  0  0  0  0  0  0  0  0
   -9.8470   14.3862  -35.8168 C   0  0  0  0  0  0  0  0  0  0  0  0
  -13.5728   14.5594  -38.2225 C   0  0  2  0  0  0  0  0  0  0  0  0
  -12.0914   16.2210  -38.1816 C   0  0  1  0  0  0  0  0  0  0  0  0
  -11.2972   15.0502  -37.5499 C   0  0  2  0  0  0  0  0  0  0  0  0
  -10.8806   15.3569  -36.1733 N   0  0  0  0  0  0  0  0  0  0  0  0
  1  4  1  0
  1  7  1  0
  2  3  1  0
  8  2  1  6
  9  3  1  6
 10  4  1  6
  5  8  1  0
  5  9  1  0
  6  8  1  0
  6 10  1  0
  7 11  1  0
  9 10  1  0
 10 11  1  0
M  END
>  <id>  (60) 
EN300-6880612

>  <smiles>  (60) 
C1CNC2(C1)CC3CCC2C3

>  <MDLNUMBER>  (60) 
MFCD32859448

>  <IUPAC Name>  (60) 
spiro[bicyclo[2.2.1]heptane-2,2'-pyrrolidine]

>  <CAS>  (60) 
172-64-5

>  <URL>  (60) 
https://www.enaminestore.com/catalog/EN300-6880612

>  <ROCS_ShapeQuery>  (60) 
_x1247relevant_x1083L0AP1_x1305L0BP1_

>  <ROCS_TanimotoCombo>  (60) 
1.064 

>  <ROCS_ShapeTanimoto>  (60) 
0.502 

>  <ROCS_ColorTanimoto>  (60) 
0.562 

>  <ROCS_RefTversky>  (60) 
0.416 

>  <ROCS_RefColorTversky>  (60) 
0.707 

>  <ROCS_RefTverskyCombo>  (60) 
1.123 

>  <ROCS_FitTversky>  (60) 
1.708 

>  <ROCS_FitColorTversky>  (60) 
0.732 

>  <ROCS_FitTverskyCombo>  (60) 
2.440 

>  <ROCS_ColorScore>  (60) 
-6.823

>  <ROCS_Overlap>  (60) 
1021.641

>  <ROCS_Rank>  (60) 
88                  

>  <Score>  (60) 
-0.29877403559328286

$$$$
LIG
     RDKit          3D

 11 13  0  0  1  0  0  0  0  0999 V2000
   -9.1827   13.9899  -37.1267 C   0  0  0  0  0  0  0  0  0  0  0  0
  -13.2991   14.8114  -39.7146 C   0  0  0  0  0  0  0  0  0  0  0  0
  -12.3065   15.9818  -39.6885 C   0  0  0  0  0  0  0  0  0  0  0  0
   -9.9618   14.7261  -38.2064 C   0  0  0  0  0  0  0  0  0  0  0  0
  -13.5070   15.9738  -37.6466 C   0  0  0  0  0  0  0  0  0  0  0  0
  -12.3312   13.8912  -37.5968 C   0  0  0  0  0  0  0  0  0  0  0  0
   -9.8470   14.3862  -35.8168 C   0  0  0  0  0  0  0  0  0  0  0  0
  -13.5728   14.5594  -38.2225 C   0  0  2  0  0  0  0  0  0  0  0  0
  -12.0914   16.2210  -38.1816 C   0  0  1  0  0  0  0  0  0  0  0  0
  -11.2972   15.0502  -37.5499 C   0  0  2  0  0  0  0  0  0  0  0  0
  -10.8806   15.3569  -36.1733 N   0  0  0  0  0  0  0  0  0  0  0  0
  1  4  1  0
  1  7  1  0
  2  3  1  0
  8  2  1  6
  9  3  1  6
 10  4  1  6
  5  8  1  0
  5  9  1  0
  6  8  1  0
  6 10  1  0
  7 11  1  0
  9 10  1  0
 10 11  1  0
M  END
>  <id>  (61) 
EN300-27150167

>  <smiles>  (61) 
Cl.C1CNC2(C1)CC3CCC2C3

>  <MDLNUMBER>  (61) 
MFCD32859429

>  <IUPAC Name>  (61) 
spiro[bicyclo[2.2.1]heptane-2,2'-pyrrolidine] hydrochloride

>  <CAS>  (61) 
2503208-78-2

>  <Purity>  (61) 
95

>  <URL>  (61) 
https://www.enaminestore.com/catalog/EN300-27150167

>  <Saltdate>  (61) 
Cl

>  <ROCS_ShapeQuery>  (61) 
_x1247relevant_x1083L0AP1_x1305L0BP1_

>  <ROCS_TanimotoCombo>  (61) 
1.064 

>  <ROCS_ShapeTanimoto>  (61) 
0.502 

>  <ROCS_ColorTanimoto>  (61) 
0.562 

>  <ROCS_RefTversky>  (61) 
0.416 

>  <ROCS_RefColorTversky>  (61) 
0.707 

>  <ROCS_RefTverskyCombo>  (61) 
1.123 

>  <ROCS_FitTversky>  (61) 
1.708 

>  <ROCS_FitColorTversky>  (61) 
0.732 

>  <ROCS_FitTverskyCombo>  (61) 
2.440 

>  <ROCS_ColorScore>  (61) 
-6.823

>  <ROCS_Overlap>  (61) 
1021.641

>  <ROCS_Rank>  (61) 
89                  

>  <Score>  (61) 
-0.29877403559328286

$$$$
LIG
     RDKit          3D

  8  9  0  0  1  0  0  0  0  0999 V2000
  -11.3636   15.6301  -37.8391 C   0  0  0  0  0  0  0  0  0  0  0  0
  -11.6300   14.3154  -37.8712 C   0  0  0  0  0  0  0  0  0  0  0  0
  -13.6312   15.3941  -37.4734 C   0  0  0  0  0  0  0  0  0  0  0  0
  -12.9909   16.1218  -39.6435 C   0  0  0  0  0  0  0  0  0  0  0  0
  -12.6523   16.3553  -38.1517 C   0  0  2  0  0  0  0  0  0  0  0  0
  -13.0946   14.1644  -38.2199 C   0  0  1  0  0  0  0  0  0  0  0  0
  -13.2404   14.5912  -39.6948 C   0  0  1  0  0  0  0  0  0  0  0  0
  -15.0216   14.1850  -40.3612 Br  0  0  0  0  0  0  0  0  0  0  0  0
  1  2  2  0
  1  5  1  0
  6  2  1  1
  3  5  1  0
  3  6  1  0
  5  4  1  6
  4  7  1  0
  6  7  1  0
  7  8  1  1
M  END
>  <id>  (62) 
EN300-1899746

>  <smiles>  (62) 
BrC1CC2CC1C=C2

>  <MDLNUMBER>  (62) 
MFCD20622311

>  <IUPAC Name>  (62) 
5-bromobicyclo[2.2.1]hept-2-ene

>  <CAS>  (62) 
15403-87-9

>  <URL>  (62) 
https://www.enaminestore.com/catalog/EN300-1899746

>  <ROCS_ShapeQuery>  (62) 
_x1247relevant_x1083L0AP1_x1305L0BP1_

>  <ROCS_TanimotoCombo>  (62) 
1.061 

>  <ROCS_ShapeTanimoto>  (62) 
0.388 

>  <ROCS_ColorTanimoto>  (62) 
0.673 

>  <ROCS_RefTversky>  (62) 
0.331 

>  <ROCS_RefColorTversky>  (62) 
0.718 

>  <ROCS_RefTverskyCombo>  (62) 
1.049 

>  <ROCS_FitTversky>  (62) 
1.791 

>  <ROCS_FitColorTversky>  (62) 
0.916 

>  <ROCS_FitTverskyCombo>  (62) 
2.706 

>  <ROCS_ColorScore>  (62) 
-6.858

>  <ROCS_Overlap>  (62) 
810.926

>  <ROCS_Rank>  (62) 
103                 

>  <Score>  (62) 
-2.3615145943574589

$$$$
LIG
     RDKit          3D

 12 14  0  0  1  0  0  0  0  0999 V2000
   -9.6569   13.7852  -36.1327 C   0  0  0  0  0  0  0  0  0  0  0  0
   -8.9753   14.9035  -36.6114 C   0  0  0  0  0  0  0  0  0  0  0  0
  -10.9775   13.5481  -36.5181 C   0  0  0  0  0  0  0  0  0  0  0  0
   -9.6076   15.7890  -37.4820 C   0  0  0  0  0  0  0  0  0  0  0  0
  -11.6360   14.4225  -37.3914 C   0  0  0  0  0  0  0  0  0  0  0  0
  -10.9274   15.5498  -37.8807 C   0  0  0  0  0  0  0  0  0  0  0  0
  -13.9237   15.6262  -37.7963 C   0  0  0  0  0  0  0  0  0  0  0  0
  -13.2740   14.4757  -39.4360 C   0  0  0  0  0  0  0  0  0  0  0  0
  -13.1312   14.2729  -37.8861 C   0  0  1  0  0  0  0  0  0  0  0  0
  -11.6707   16.4954  -38.8268 C   0  0  2  0  0  0  0  0  0  0  0  0
  -13.1218   15.9983  -39.0899 C   0  0  2  0  0  0  0  0  0  0  0  0
  -10.9833   16.6248  -40.1150 N   0  0  0  0  0  0  0  0  0  0  0  0
  1  2  2  0
  1  3  1  0
  2  4  1  0
  3  5  2  0
  4  6  2  0
  5  6  1  0
  5  9  1  0
  6 10  1  0
  9  7  1  1
 11  7  1  1
  8  9  1  0
  8 11  1  0
 10 11  1  0
 10 12  1  6
M  END
>  <id>  (63) 
EN300-7427797

>  <smiles>  (63) 
NC1C2CC(C2)C=3C=CC=CC13

>  <MDLNUMBER>  (63) 
MFCD20716962

>  <IUPAC Name>  (63) 
tricyclo[7.1.1.0,2,7]undeca-2,4,6-trien-8-amine

>  <CAS>  (63) 
81569-22-4

>  <Purity>  (63) 
95

>  <URL>  (63) 
https://www.enaminestore.com/catalog/EN300-7427797

>  <ROCS_ShapeQuery>  (63) 
_x1247relevant_x1083L0AP1_x1305L0BP1_

>  <ROCS_TanimotoCombo>  (63) 
1.061 

>  <ROCS_ShapeTanimoto>  (63) 
0.503 

>  <ROCS_ColorTanimoto>  (63) 
0.558 

>  <ROCS_RefTversky>  (63) 
0.422 

>  <ROCS_RefColorTversky>  (63) 
0.694 

>  <ROCS_RefTverskyCombo>  (63) 
1.116 

>  <ROCS_FitTversky>  (63) 
1.623 

>  <ROCS_FitColorTversky>  (63) 
0.739 

>  <ROCS_FitTverskyCombo>  (63) 
2.362 

>  <ROCS_ColorScore>  (63) 
-6.686

>  <ROCS_Overlap>  (63) 
1037.401

>  <ROCS_Rank>  (63) 
104                 

>  <Score>  (63) 
-5.3786923934492279

$$$$
LIG
     RDKit          3D

  8  9  0  0  1  0  0  0  0  0999 V2000
  -11.3032   15.7317  -37.8526 C   0  0  0  0  0  0  0  0  0  0  0  0
  -11.5950   14.2226  -37.8785 C   0  0  0  0  0  0  0  0  0  0  0  0
  -13.6226   15.3803  -37.4581 C   0  0  0  0  0  0  0  0  0  0  0  0
  -13.0223   16.1230  -39.6400 C   0  0  0  0  0  0  0  0  0  0  0  0
  -12.6772   16.3561  -38.1553 C   0  0  2  0  0  0  0  0  0  0  0  0
  -13.0932   14.1682  -38.2314 C   0  0  1  0  0  0  0  0  0  0  0  0
  -13.2469   14.6061  -39.6980 C   0  0  1  0  0  0  0  0  0  0  0  0
  -15.0257   14.1799  -40.3630 Br  0  0  0  0  0  0  0  0  0  0  0  0
  1  2  1  0
  5  1  1  6
  6  2  1  1
  3  5  1  0
  3  6  1  0
  4  5  1  0
  4  7  1  0
  6  7  1  0
  7  8  1  1
M  END
>  <id>  (64) 
EN300-200689

>  <smiles>  (64) 
BrC1CC2CCC1C2

>  <IUPAC Name>  (64) 
2-bromobicyclo[2.2.1]heptane

>  <CAS>  (64) 
29342-65-2

>  <URL>  (64) 
https://www.enaminestore.com/catalog/EN300-200689

>  <ROCS_ShapeQuery>  (64) 
_x1247relevant_x1083L0AP1_x1305L0BP1_

>  <ROCS_TanimotoCombo>  (64) 
1.056 

>  <ROCS_ShapeTanimoto>  (64) 
0.383 

>  <ROCS_ColorTanimoto>  (64) 
0.674 

>  <ROCS_RefTversky>  (64) 
0.327 

>  <ROCS_RefColorTversky>  (64) 
0.716 

>  <ROCS_RefTverskyCombo>  (64) 
1.043 

>  <ROCS_FitTversky>  (64) 
1.800 

>  <ROCS_FitColorTversky>  (64) 
0.919 

>  <ROCS_FitTverskyCombo>  (64) 
2.719 

>  <ROCS_ColorScore>  (64) 
-6.838

>  <ROCS_Overlap>  (64) 
801.623

>  <ROCS_Rank>  (64) 
123                 

>  <Score>  (64) 
-2.3160959266399459

$$$$
LIG
     RDKit          3D

  9 10  0  0  1  0  0  0  0  0999 V2000
  -15.4373   14.0061  -40.7037 C   0  0  0  0  0  0  0  0  0  0  0  0
  -14.7163   14.1745  -39.7589 C   0  0  0  0  0  0  0  0  0  0  0  0
  -11.6752   15.6432  -37.0770 C   0  0  0  0  0  0  0  0  0  0  0  0
  -11.4875   14.2679  -37.7354 C   0  0  0  0  0  0  0  0  0  0  0  0
  -14.0070   15.7865  -37.9889 C   0  0  0  0  0  0  0  0  0  0  0  0
  -12.0979   15.8364  -39.4106 C   0  0  0  0  0  0  0  0  0  0  0  0
  -13.8335   14.3809  -38.6011 C   0  0  2  0  0  0  0  0  0  0  0  0
  -12.5880   16.3814  -38.0714 C   0  0  2  0  0  0  0  0  0  0  0  0
  -12.3421   14.3775  -39.0117 C   0  0  2  0  0  0  0  0  0  0  0  0
  1  2  3  0
  7  2  1  6
  3  4  1  0
  8  3  1  1
  9  4  1  1
  5  7  1  0
  5  8  1  0
  6  8  1  0
  6  9  1  0
  7  9  1  0
M  END
>  <id>  (65) 
EN300-787599

>  <smiles>  (65) 
C#CC1CC2CCC1C2

>  <MDLNUMBER>  (65) 
MFCD18826822

>  <IUPAC Name>  (65) 
2-ethynylbicyclo[2.2.1]heptane

>  <CAS>  (65) 
942577-24-4

>  <URL>  (65) 
https://www.enaminestore.com/catalog/EN300-787599

>  <ROCS_ShapeQuery>  (65) 
_x1247relevant_x1083L0AP1_x1305L0BP1_

>  <ROCS_TanimotoCombo>  (65) 
1.054 

>  <ROCS_ShapeTanimoto>  (65) 
0.387 

>  <ROCS_ColorTanimoto>  (65) 
0.667 

>  <ROCS_RefTversky>  (65) 
0.336 

>  <ROCS_RefColorTversky>  (65) 
0.712 

>  <ROCS_RefTverskyCombo>  (65) 
1.048 

>  <ROCS_FitTversky>  (65) 
1.652 

>  <ROCS_FitColorTversky>  (65) 
0.914 

>  <ROCS_FitTverskyCombo>  (65) 
2.567 

>  <ROCS_ColorScore>  (65) 
-6.796

>  <ROCS_Overlap>  (65) 
823.849

>  <ROCS_Rank>  (65) 
134                 

>  <Score>  (65) 
-0.25161084461353767

$$$$
LIG
     RDKit          3D

 11 13  0  0  0  0  0  0  0  0999 V2000
   -9.9195   15.2280  -37.8658 C   0  0  0  0  0  0  0  0  0  0  0  0
  -13.3364   15.8656  -37.4252 C   0  0  0  0  0  0  0  0  0  0  0  0
  -13.1649   14.0471  -38.4724 C   0  0  0  0  0  0  0  0  0  0  0  0
  -11.8588   15.9539  -39.4526 C   0  0  0  0  0  0  0  0  0  0  0  0
  -11.3764   14.2131  -36.3507 C   0  0  0  0  0  0  0  0  0  0  0  0
  -13.2835   15.5490  -38.9831 C   0  0  2  0  0  0  0  0  0  0  0  0
  -12.2032   14.7736  -37.4601 C   0  0  2  0  0  0  0  0  0  0  0  0
  -14.4156   15.9588  -39.8798 C   0  0  0  0  0  0  0  0  0  0  0  0
  -11.1852   15.3622  -38.3146 N   0  0  0  0  0  0  0  0  0  0  0  0
   -8.8827   15.6229  -38.3751 O   0  0  0  0  0  0  0  0  0  0  0  0
   -9.9885   14.5366  -36.6747 O   0  0  0  0  0  0  0  0  0  0  0  0
  1  9  1  0
  1 10  2  0
  1 11  1  0
  2  6  1  0
  2  7  1  0
  3  6  1  0
  3  7  1  0
  4  6  1  0
  4  9  1  0
  7  5  1  1
  5 11  1  0
  6  8  1  6
  7  9  1  0
M  END
>  <id>  (66) 
EN300-37351327

>  <smiles>  (66) 
CC1(CC23C1)CN3C(=O)OC2

>  <IUPAC Name>  (66) 
7-methyl-3-oxa-5-azatricyclo[5.1.1.0,1,5]nonan-4-one

>  <CAS>  (66) 
2763776-36-7

>  <Purity>  (66) 
95

>  <URL>  (66) 
https://www.enaminestore.com/catalog/EN300-37351327

>  <ROCS_ShapeQuery>  (66) 
_x1247relevant_x1083L0AP1_x1305L0BP1_

>  <ROCS_TanimotoCombo>  (66) 
1.053 

>  <ROCS_ShapeTanimoto>  (66) 
0.499 

>  <ROCS_ColorTanimoto>  (66) 
0.554 

>  <ROCS_RefTversky>  (66) 
0.416 

>  <ROCS_RefColorTversky>  (66) 
0.688 

>  <ROCS_RefTverskyCombo>  (66) 
1.104 

>  <ROCS_FitTversky>  (66) 
1.661 

>  <ROCS_FitColorTversky>  (66) 
0.740 

>  <ROCS_FitTverskyCombo>  (66) 
2.402 

>  <ROCS_ColorScore>  (66) 
-6.625

>  <ROCS_Overlap>  (66) 
1023.135

>  <ROCS_Rank>  (66) 
140                 

>  <Score>  (66) 
-0.20641585444013799

$$$$
LIG
     RDKit          3D

 12 15  0  0  1  0  0  0  0  0999 V2000
  -12.9641   16.0718  -39.3971 C   0  0  0  0  0  0  0  0  0  0  0  0
  -13.4598   14.6417  -39.4269 C   0  0  0  0  0  0  0  0  0  0  0  0
  -13.2181   15.4443  -37.1903 C   0  0  0  0  0  0  0  0  0  0  0  0
  -10.8028   13.4794  -36.7744 C   0  0  0  0  0  0  0  0  0  0  0  0
  -12.3292   16.3487  -38.0487 C   0  0  1  0  0  0  0  0  0  0  0  0
  -12.9601   14.1918  -38.0335 C   0  0  2  0  0  0  0  0  0  0  0  0
  -11.4098   14.1081  -38.0475 C   0  0  1  0  0  0  0  0  0  0  0  0
  -10.9797   15.6152  -38.0783 C   0  0  2  0  0  0  0  0  0  0  0  0
  -10.0571   14.5705  -36.0800 C   0  0  2  0  0  0  0  0  0  0  0  0
  -10.1611   15.8335  -36.8482 C   0  0  1  0  0  0  0  0  0  0  0  0
  -13.0326   16.8628  -40.3244 O   0  0  0  0  0  0  0  0  0  0  0  0
   -8.9337   15.0951  -36.7972 O   0  0  0  0  0  0  0  0  0  0  0  0
  1  2  1  0
  5  1  1  6
  1 11  2  0
  6  2  1  6
  3  5  1  0
  3  6  1  0
  7  4  1  1
  9  4  1  6
  8  5  1  1
  6  7  1  0
  7  8  1  0
  8 10  1  0
  9 10  1  0
  9 12  1  0
 10 12  1  6
M  END
>  <id>  (67) 
EN300-23613550

>  <smiles>  (67) 
O=C1CC2CC1C3C4OC4CC23

>  <MDLNUMBER>  (67) 
MFCD24698301

>  <IUPAC Name>  (67) 
4-oxatetracyclo[6.2.1.0^{2,7}.0^{3,5}]undecan-10-one

>  <CAS>  (67) 
85652-76-2

>  <URL>  (67) 
https://www.enaminestore.com/catalog/EN300-23613550

>  <ROCS_ShapeQuery>  (67) 
_x1247relevant_x1083L0AP1_x1305L0BP1_

>  <ROCS_TanimotoCombo>  (67) 
1.051 

>  <ROCS_ShapeTanimoto>  (67) 
0.527 

>  <ROCS_ColorTanimoto>  (67) 
0.524 

>  <ROCS_RefTversky>  (67) 
0.438 

>  <ROCS_RefColorTversky>  (67) 
0.772 

>  <ROCS_RefTverskyCombo>  (67) 
1.210 

>  <ROCS_FitTversky>  (67) 
1.629 

>  <ROCS_FitColorTversky>  (67) 
0.620 

>  <ROCS_FitTverskyCombo>  (67) 
2.249 

>  <ROCS_ColorScore>  (67) 
-7.568

>  <ROCS_Overlap>  (67) 
1077.731

>  <ROCS_Rank>  (67) 
149                 

>  <Score>  (67) 
-1.3662609316390899

$$$$
LIG
     RDKit          3D

 12 14  0  0  1  0  0  0  0  0999 V2000
   -9.6936   13.8856  -36.0195 C   0  0  0  0  0  0  0  0  0  0  0  0
   -8.9402   14.8456  -36.6951 C   0  0  0  0  0  0  0  0  0  0  0  0
  -11.0457   13.7115  -36.3207 C   0  0  0  0  0  0  0  0  0  0  0  0
   -9.5338   15.6389  -37.6748 C   0  0  0  0  0  0  0  0  0  0  0  0
  -11.6655   14.4955  -37.3008 C   0  0  0  0  0  0  0  0  0  0  0  0
  -10.8886   15.4707  -37.9755 C   0  0  0  0  0  0  0  0  0  0  0  0
  -13.3498   14.3886  -39.3032 C   0  0  0  0  0  0  0  0  0  0  0  0
  -13.8702   15.8057  -37.8343 C   0  0  0  0  0  0  0  0  0  0  0  0
  -13.1826   14.3961  -37.7404 C   0  0  2  0  0  0  0  0  0  0  0  0
  -11.5836   16.3074  -39.0418 C   0  0  1  0  0  0  0  0  0  0  0  0
  -13.0783   15.9260  -39.1810 C   0  0  1  0  0  0  0  0  0  0  0  0
  -11.4992   17.6822  -38.6813 O   0  0  0  0  0  0  0  0  0  0  0  0
  1  2  2  0
  1  3  1  0
  2  4  1  0
  3  5  2  0
  4  6  2  0
  5  6  1  0
  5  9  1  0
  6 10  1  0
  9  7  1  6
 11  7  1  1
  8  9  1  0
  8 11  1  0
 10 11  1  0
 10 12  1  1
M  END
>  <id>  (68) 
EN300-39870082

>  <smiles>  (68) 
OC1[C@H]2C[C@H](C2)C=3C=CC=CC13

>  <IUPAC Name>  (68) 
(1s,9s)-tricyclo[7.1.1.0,2,7]undeca-2,4,6-trien-8-ol

>  <URL>  (68) 
https://www.enaminestore.com/catalog/EN300-39870082

>  <ROCS_ShapeQuery>  (68) 
_x1247relevant_x1083L0AP1_x1305L0BP1_

>  <ROCS_TanimotoCombo>  (68) 
1.050 

>  <ROCS_ShapeTanimoto>  (68) 
0.493 

>  <ROCS_ColorTanimoto>  (68) 
0.558 

>  <ROCS_RefTversky>  (68) 
0.416 

>  <ROCS_RefColorTversky>  (68) 
0.694 

>  <ROCS_RefTverskyCombo>  (68) 
1.110 

>  <ROCS_FitTversky>  (68) 
1.595 

>  <ROCS_FitColorTversky>  (68) 
0.739 

>  <ROCS_FitTverskyCombo>  (68) 
2.334 

>  <ROCS_ColorScore>  (68) 
-6.687

>  <ROCS_Overlap>  (68) 
1024.060

>  <ROCS_Rank>  (68) 
153                 

>  <Score>  (68) 
-4.7459579894051558

$$$$
LIG
     RDKit          3D

 12 14  0  0  1  0  0  0  0  0999 V2000
   -9.6936   13.8849  -36.0197 C   0  0  0  0  0  0  0  0  0  0  0  0
   -8.9405   14.8459  -36.6941 C   0  0  0  0  0  0  0  0  0  0  0  0
  -11.0455   13.7101  -36.3218 C   0  0  0  0  0  0  0  0  0  0  0  0
   -9.5341   15.6399  -37.6733 C   0  0  0  0  0  0  0  0  0  0  0  0
  -11.6653   14.4947  -37.3014 C   0  0  0  0  0  0  0  0  0  0  0  0
  -10.8887   15.4712  -37.9748 C   0  0  0  0  0  0  0  0  0  0  0  0
  -13.3489   14.3893  -39.3046 C   0  0  0  0  0  0  0  0  0  0  0  0
  -13.8706   15.8043  -37.8340 C   0  0  0  0  0  0  0  0  0  0  0  0
  -13.1821   14.3950  -37.7417 C   0  0  2  0  0  0  0  0  0  0  0  0
  -11.5838   16.3086  -39.0404 C   0  0  1  0  0  0  0  0  0  0  0  0
  -13.0783   15.9267  -39.1804 C   0  0  1  0  0  0  0  0  0  0  0  0
  -11.5001   17.6830  -38.6786 O   0  0  0  0  0  0  0  0  0  0  0  0
  1  2  2  0
  1  3  1  0
  2  4  1  0
  3  5  2  0
  4  6  2  0
  5  6  1  0
  5  9  1  0
  6 10  1  0
  9  7  1  6
 11  7  1  1
  8  9  1  0
  8 11  1  0
 10 11  1  0
 10 12  1  1
M  END
>  <id>  (69) 
EN300-7426764

>  <smiles>  (69) 
OC1C2CC(C2)C=3C=CC=CC13

>  <MDLNUMBER>  (69) 
MFCD31924524

>  <IUPAC Name>  (69) 
tricyclo[7.1.1.0,2,7]undeca-2,4,6-trien-8-ol

>  <CAS>  (69) 
81569-16-6

>  <Purity>  (69) 
95

>  <URL>  (69) 
https://www.enaminestore.com/catalog/EN300-7426764

>  <ROCS_ShapeQuery>  (69) 
_x1247relevant_x1083L0AP1_x1305L0BP1_

>  <ROCS_TanimotoCombo>  (69) 
1.050 

>  <ROCS_ShapeTanimoto>  (69) 
0.493 

>  <ROCS_ColorTanimoto>  (69) 
0.558 

>  <ROCS_RefTversky>  (69) 
0.416 

>  <ROCS_RefColorTversky>  (69) 
0.694 

>  <ROCS_RefTverskyCombo>  (69) 
1.110 

>  <ROCS_FitTversky>  (69) 
1.595 

>  <ROCS_FitColorTversky>  (69) 
0.739 

>  <ROCS_FitTverskyCombo>  (69) 
2.334 

>  <ROCS_ColorScore>  (69) 
-6.687

>  <ROCS_Overlap>  (69) 
1023.997

>  <ROCS_Rank>  (69) 
154                 

>  <Score>  (69) 
-4.7536872314776701

$$$$
LIG
     RDKit          3D

 12 14  0  0  1  0  0  0  0  0999 V2000
   -9.6946   13.8810  -36.0191 C   0  0  0  0  0  0  0  0  0  0  0  0
   -8.9379   14.8375  -36.6949 C   0  0  0  0  0  0  0  0  0  0  0  0
  -11.0469   13.7119  -36.3215 C   0  0  0  0  0  0  0  0  0  0  0  0
   -9.5292   15.6345  -37.6733 C   0  0  0  0  0  0  0  0  0  0  0  0
  -11.6651   14.4992  -37.3006 C   0  0  0  0  0  0  0  0  0  0  0  0
  -10.8873   15.4772  -37.9719 C   0  0  0  0  0  0  0  0  0  0  0  0
  -13.3407   14.3873  -39.3068 C   0  0  0  0  0  0  0  0  0  0  0  0
  -13.8809   15.7923  -37.8344 C   0  0  0  0  0  0  0  0  0  0  0  0
  -13.1796   14.3909  -37.7443 C   0  0  2  0  0  0  0  0  0  0  0  0
  -11.5827   16.3194  -39.0436 C   0  0  1  0  0  0  0  0  0  0  0  0
  -13.0828   15.9274  -39.1781 C   0  0  1  0  0  0  0  0  0  0  0  0
  -11.4734   17.7523  -38.7604 N   0  0  0  0  0  0  0  0  0  0  0  0
  1  2  2  0
  1  3  1  0
  2  4  1  0
  3  5  2  0
  4  6  2  0
  5  6  1  0
  5  9  1  0
  6 10  1  0
  9  7  1  6
 11  7  1  1
  8  9  1  0
  8 11  1  0
 10 11  1  0
 10 12  1  1
M  END
>  <id>  (70) 
EN300-39870068

>  <smiles>  (70) 
NC1[C@H]2C[C@H](C2)C=3C=CC=CC13

>  <IUPAC Name>  (70) 
(1s,9s)-tricyclo[7.1.1.0,2,7]undeca-2,4,6-trien-8-amine

>  <URL>  (70) 
https://www.enaminestore.com/catalog/EN300-39870068

>  <ROCS_ShapeQuery>  (70) 
_x1247relevant_x1083L0AP1_x1305L0BP1_

>  <ROCS_TanimotoCombo>  (70) 
1.048 

>  <ROCS_ShapeTanimoto>  (70) 
0.491 

>  <ROCS_ColorTanimoto>  (70) 
0.557 

>  <ROCS_RefTversky>  (70) 
0.415 

>  <ROCS_RefColorTversky>  (70) 
0.694 

>  <ROCS_RefTverskyCombo>  (70) 
1.109 

>  <ROCS_FitTversky>  (70) 
1.596 

>  <ROCS_FitColorTversky>  (70) 
0.739 

>  <ROCS_FitTverskyCombo>  (70) 
2.336 

>  <ROCS_ColorScore>  (70) 
-6.683

>  <ROCS_Overlap>  (70) 
1020.585

>  <ROCS_Rank>  (70) 
164                 

>  <Score>  (70) 
-5.7183979571241252

$$$$
LIG
     RDKit          3D

 13 15  0  0  0  0  0  0  0  0999 V2000
  -11.0271   13.6453  -36.4135 C   0  0  0  0  0  0  0  0  0  0  0  0
   -9.6838   13.8352  -36.0756 C   0  0  0  0  0  0  0  0  0  0  0  0
   -9.5365   15.7023  -37.6056 C   0  0  0  0  0  0  0  0  0  0  0  0
  -10.8760   15.5027  -37.9338 C   0  0  0  0  0  0  0  0  0  0  0  0
  -11.6554   14.4742  -37.3504 C   0  0  0  0  0  0  0  0  0  0  0  0
   -8.9429   14.8592  -36.6695 C   0  0  0  0  0  0  0  0  0  0  0  0
  -11.5924   16.3598  -38.9273 C   0  0  0  0  0  0  0  0  0  0  0  0
  -13.9255   15.7315  -37.8277 C   0  0  0  0  0  0  0  0  0  0  0  0
  -13.3523   14.4224  -39.3702 C   0  0  0  0  0  0  0  0  0  0  0  0
  -13.1782   14.3481  -37.8092 C   0  0  1  0  0  0  0  0  0  0  0  0
  -13.1149   15.9588  -39.1527 C   0  0  2  0  0  0  0  0  0  0  0  0
  -10.9954   17.2772  -39.4839 O   0  0  0  0  0  0  0  0  0  0  0  0
   -7.1271   15.1002  -36.2002 Br  0  0  0  0  0  0  0  0  0  0  0  0
  1  2  1  0
  1  5  2  0
  2  6  2  0
  3  4  2  0
  3  6  1  0
  4  5  1  0
  4  7  1  0
  5 10  1  0
  6 13  1  0
  7 11  1  0
  7 12  2  0
 10  8  1  1
 11  8  1  1
  9 10  1  0
  9 11  1  0
M  END
>  <id>  (71) 
EN300-6734323

>  <smiles>  (71) 
BrC=1C=CC=2C3CC(C3)C(=O)C2C1

>  <MDLNUMBER>  (71) 
MFCD29059230

>  <IUPAC Name>  (71) 
5-bromotricyclo[7.1.1.0,2,7]undeca-2,4,6-trien-8-one

>  <CAS>  (71) 
1451085-10-1

>  <Purity>  (71) 
95

>  <URL>  (71) 
https://www.enaminestore.com/catalog/EN300-6734323

>  <ROCS_ShapeQuery>  (71) 
_x1247relevant_x1083L0AP1_x1305L0BP1_

>  <ROCS_TanimotoCombo>  (71) 
1.048 

>  <ROCS_ShapeTanimoto>  (71) 
0.492 

>  <ROCS_ColorTanimoto>  (71) 
0.556 

>  <ROCS_RefTversky>  (71) 
0.420 

>  <ROCS_RefColorTversky>  (71) 
0.691 

>  <ROCS_RefTverskyCombo>  (71) 
1.111 

>  <ROCS_FitTversky>  (71) 
1.534 

>  <ROCS_FitColorTversky>  (71) 
0.740 

>  <ROCS_FitTverskyCombo>  (71) 
2.274 

>  <ROCS_ColorScore>  (71) 
-6.650

>  <ROCS_Overlap>  (71) 
1034.452

>  <ROCS_Rank>  (71) 
167                 

>  <Score>  (71) 
-4.6163084928045919

$$$$
LIG
     RDKit          3D

 13 15  0  0  0  0  0  0  0  0999 V2000
  -11.0361   13.6708  -36.3788 C   0  0  0  0  0  0  0  0  0  0  0  0
   -9.6927   13.8589  -36.0404 C   0  0  0  0  0  0  0  0  0  0  0  0
   -9.5294   15.6961  -37.6045 C   0  0  0  0  0  0  0  0  0  0  0  0
  -10.8691   15.4986  -37.9330 C   0  0  0  0  0  0  0  0  0  0  0  0
  -11.6566   14.4859  -37.3330 C   0  0  0  0  0  0  0  0  0  0  0  0
   -8.9438   14.8671  -36.6510 C   0  0  0  0  0  0  0  0  0  0  0  0
  -11.5773   16.3412  -38.9447 C   0  0  0  0  0  0  0  0  0  0  0  0
  -13.9173   15.7479  -37.8406 C   0  0  0  0  0  0  0  0  0  0  0  0
  -13.3478   14.4066  -39.3566 C   0  0  0  0  0  0  0  0  0  0  0  0
  -13.1787   14.3605  -37.7940 C   0  0  1  0  0  0  0  0  0  0  0  0
  -13.1016   15.9454  -39.1671 C   0  0  2  0  0  0  0  0  0  0  0  0
  -10.9729   17.2442  -39.5166 O   0  0  0  0  0  0  0  0  0  0  0  0
   -7.1280   15.1063  -36.1800 Br  0  0  0  0  0  0  0  0  0  0  0  0
  1  2  1  0
  1  5  2  0
  2  6  2  0
  3  4  2  0
  3  6  1  0
  4  5  1  0
  4  7  1  0
  5 10  1  0
  6 13  1  0
  7 11  1  0
  7 12  2  0
 10  8  1  1
 11  8  1  1
  9 10  1  0
  9 11  1  0
M  END
>  <id>  (72) 
EN300-37375145

>  <smiles>  (72) 
BrC=1C=CC=2[C@H]3C[C@H](C3)C(=O)C2C1

>  <IUPAC Name>  (72) 
(1s,9s)-5-bromotricyclo[7.1.1.0,2,7]undeca-2,4,6-trien-8-one

>  <CAS>  (72) 
1451085-10-1

>  <URL>  (72) 
https://www.enaminestore.com/catalog/EN300-37375145

>  <ROCS_ShapeQuery>  (72) 
_x1247relevant_x1083L0AP1_x1305L0BP1_

>  <ROCS_TanimotoCombo>  (72) 
1.047 

>  <ROCS_ShapeTanimoto>  (72) 
0.491 

>  <ROCS_ColorTanimoto>  (72) 
0.556 

>  <ROCS_RefTversky>  (72) 
0.420 

>  <ROCS_RefColorTversky>  (72) 
0.691 

>  <ROCS_RefTverskyCombo>  (72) 
1.110 

>  <ROCS_FitTversky>  (72) 
1.532 

>  <ROCS_FitColorTversky>  (72) 
0.740 

>  <ROCS_FitTverskyCombo>  (72) 
2.272 

>  <ROCS_ColorScore>  (72) 
-6.651

>  <ROCS_Overlap>  (72) 
1032.992

>  <ROCS_Rank>  (72) 
170                 

>  <Score>  (72) 
-4.5752046793452337

$$$$
LIG
     RDKit          3D

 11 13  0  0  1  0  0  0  0  0999 V2000
  -12.5812   14.6062  -39.6645 C   0  0  0  0  0  0  0  0  0  0  0  0
  -12.3062   15.9157  -39.5968 C   0  0  0  0  0  0  0  0  0  0  0  0
  -10.5476   13.5807  -37.6595 C   0  0  0  0  0  0  0  0  0  0  0  0
   -9.5213   14.4850  -36.9815 C   0  0  0  0  0  0  0  0  0  0  0  0
  -13.7942   15.4674  -37.9180 C   0  0  0  0  0  0  0  0  0  0  0  0
  -13.0462   14.1761  -38.2973 C   0  0  2  0  0  0  0  0  0  0  0  0
  -12.5708   16.3722  -38.1810 C   0  0  1  0  0  0  0  0  0  0  0  0
  -11.8775   14.2241  -37.2862 C   0  0  2  0  0  0  0  0  0  0  0  0
  -11.5838   15.7558  -37.1542 C   0  0  1  0  0  0  0  0  0  0  0  0
  -10.0624   15.9042  -37.1671 C   0  0  2  0  0  0  0  0  0  0  0  0
   -9.2865   16.7270  -38.7386 Br  0  0  0  0  0  0  0  0  0  0  0  0
  1  2  2  0
  6  1  1  6
  7  2  1  6
  3  4  1  0
  8  3  1  6
  4 10  1  0
  5  6  1  0
  5  7  1  0
  6  8  1  0
  7  9  1  0
  8  9  1  0
  9 10  1  6
 10 11  1  6
M  END
>  <id>  (73) 
EN300-26975684

>  <smiles>  (73) 
Br[C@@H]1CC[C@@H]2[C@H]3C[C@H](C=C3)[C@H]12 |&1:1,4,5,7,10,r|

>  <IUPAC Name>  (73) 
rac-(1R,2S,3R,6R,7S)-3-bromotricyclo[5.2.1.0,2,6]dec-8-ene

>  <CAS>  (73) 
2445750-72-9

>  <Purity>  (73) 
95

>  <URL>  (73) 
https://www.enaminestore.com/catalog/EN300-26975684

>  <ROCS_ShapeQuery>  (73) 
_x1247relevant_x1083L0AP1_x1305L0BP1_

>  <ROCS_TanimotoCombo>  (73) 
1.045 

>  <ROCS_ShapeTanimoto>  (73) 
0.473 

>  <ROCS_ColorTanimoto>  (73) 
0.573 

>  <ROCS_RefTversky>  (73) 
0.398 

>  <ROCS_RefColorTversky>  (73) 
0.687 

>  <ROCS_RefTverskyCombo>  (73) 
1.085 

>  <ROCS_FitTversky>  (73) 
1.655 

>  <ROCS_FitColorTversky>  (73) 
0.775 

>  <ROCS_FitTverskyCombo>  (73) 
2.430 

>  <ROCS_ColorScore>  (73) 
-6.602

>  <ROCS_Overlap>  (73) 
978.399

>  <ROCS_Rank>  (73) 
177                 

>  <Score>  (73) 
-1.7481878552536045

$$$$
LIG
     RDKit          3D

 11 13  0  0  1  0  0  0  0  0999 V2000
  -12.3916   14.6802  -39.6793 C   0  0  0  0  0  0  0  0  0  0  0  0
  -12.1834   15.9951  -39.5199 C   0  0  0  0  0  0  0  0  0  0  0  0
  -13.8618   15.3990  -38.0490 C   0  0  0  0  0  0  0  0  0  0  0  0
  -13.0122   14.1672  -38.3998 C   0  0  2  0  0  0  0  0  0  0  0  0
  -12.6649   16.3592  -38.1338 C   0  0  1  0  0  0  0  0  0  0  0  0
  -11.9685   14.2195  -37.2569 C   0  0  2  0  0  0  0  0  0  0  0  0
  -11.7298   15.7262  -37.0740 C   0  0  1  0  0  0  0  0  0  0  0  0
   -8.7279   14.3689  -36.2605 O   0  0  0  0  0  0  0  0  0  0  0  0
  -10.7370   13.5991  -37.5646 O   0  0  0  0  0  0  0  0  0  0  0  0
  -10.3574   15.9957  -37.2739 O   0  0  0  0  0  0  0  0  0  0  0  0
   -9.5064   14.6440  -37.5128 S   0  0  0  0  0  0  0  0  0  0  0  0
  1  2  2  0
  4  1  1  6
  5  2  1  6
  3  4  1  0
  3  5  1  0
  4  6  1  0
  5  7  1  0
  6  7  1  0
  6  9  1  6
  7 10  1  6
  8 11  2  0
 11  9  1  1
 10 11  1  0
M  END
>  <id>  (74) 
EN300-1700454

>  <smiles>  (74) 
O=S1O[C@H]2[C@@H]3C[C@@H](C=C3)[C@H]2O1

>  <MDLNUMBER>  (74) 
MFCD31617441

>  <IUPAC Name>  (74) 
(1R,2S,6R,7S)-3,5-dioxa-4lambda4-thiatricyclo[5.2.1.0,2,6]dec-8-en-4-one

>  <CAS>  (74) 
2193052-20-7

>  <Purity>  (74) 
95

>  <URL>  (74) 
https://www.enaminestore.com/catalog/EN300-1700454

>  <ROCS_ShapeQuery>  (74) 
_x1247relevant_x1083L0AP1_x1305L0BP1_

>  <ROCS_TanimotoCombo>  (74) 
1.045 

>  <ROCS_ShapeTanimoto>  (74) 
0.486 

>  <ROCS_ColorTanimoto>  (74) 
0.559 

>  <ROCS_RefTversky>  (74) 
0.408 

>  <ROCS_RefColorTversky>  (74) 
0.677 

>  <ROCS_RefTverskyCombo>  (74) 
1.085 

>  <ROCS_FitTversky>  (74) 
1.656 

>  <ROCS_FitColorTversky>  (74) 
0.762 

>  <ROCS_FitTverskyCombo>  (74) 
2.418 

>  <ROCS_ColorScore>  (74) 
-6.503

>  <ROCS_Overlap>  (74) 
1002.663

>  <ROCS_Rank>  (74) 
184                 

>  <Score>  (74) 
-0.7859687561398232

$$$$
LIG
     RDKit          3D

  8  9  0  0  0  0  0  0  0  0999 V2000
  -15.2565   14.0904  -40.5729 C   0  0  0  0  0  0  0  0  0  0  0  0
  -14.3684   14.4724  -39.8612 C   0  0  0  0  0  0  0  0  0  0  0  0
  -11.1976   15.6881  -38.4049 C   0  0  0  0  0  0  0  0  0  0  0  0
  -11.9689   15.2687  -39.6632 C   0  0  0  0  0  0  0  0  0  0  0  0
  -13.5815   16.0854  -38.0057 C   0  0  0  0  0  0  0  0  0  0  0  0
  -12.9489   14.1121  -37.7355 C   0  0  0  0  0  0  0  0  0  0  0  0
  -12.2937   15.4801  -37.3603 C   0  0  1  0  0  0  0  0  0  0  0  0
  -13.3099   14.9278  -39.0135 C   0  0  1  0  0  0  0  0  0  0  0  0
  1  2  3  0
  8  2  1  6
  3  4  1  0
  7  3  1  6
  4  8  1  0
  5  7  1  0
  5  8  1  0
  6  7  1  0
  6  8  1  0
M  END
>  <id>  (75) 
EN300-6499589

>  <smiles>  (75) 
C#CC1(CC2C1)CC2

>  <IUPAC Name>  (75) 
1-ethynylbicyclo[2.1.1]hexane

>  <Purity>  (75) 
95

>  <URL>  (75) 
https://www.enaminestore.com/catalog/EN300-6499589

>  <ROCS_ShapeQuery>  (75) 
_x1247relevant_x1083L0AP1_x1305L0BP1_

>  <ROCS_TanimotoCombo>  (75) 
1.042 

>  <ROCS_ShapeTanimoto>  (75) 
0.366 

>  <ROCS_ColorTanimoto>  (75) 
0.676 

>  <ROCS_RefTversky>  (75) 
0.318 

>  <ROCS_RefColorTversky>  (75) 
0.735 

>  <ROCS_RefTverskyCombo>  (75) 
1.053 

>  <ROCS_FitTversky>  (75) 
1.700 

>  <ROCS_FitColorTversky>  (75) 
0.893 

>  <ROCS_FitTverskyCombo>  (75) 
2.593 

>  <ROCS_ColorScore>  (75) 
-7.034

>  <ROCS_Overlap>  (75) 
780.460

>  <ROCS_Rank>  (75) 
197                 

>  <Score>  (75) 
-2.9389530675231299

$$$$
LIG
     RDKit          3D

 11 13  0  0  1  0  0  0  0  0999 V2000
   -9.4165   14.3838  -36.5842 C   0  0  0  0  0  0  0  0  0  0  0  0
  -11.5289   14.3787  -37.1223 C   0  0  0  0  0  0  0  0  0  0  0  0
  -11.1329   15.5179  -37.7941 C   0  0  0  0  0  0  0  0  0  0  0  0
  -12.9569   13.9392  -37.1572 C   0  0  0  0  0  0  0  0  0  0  0  0
  -12.3559   15.6568  -39.9585 C   0  0  0  0  0  0  0  0  0  0  0  0
  -13.3735   14.5654  -39.6255 C   0  0  0  0  0  0  0  0  0  0  0  0
  -12.0809   16.3262  -38.6194 C   0  0  1  0  0  0  0  0  0  0  0  0
  -13.7535   14.8191  -38.1635 C   0  0  2  0  0  0  0  0  0  0  0  0
  -10.5457   13.7229  -36.4211 N   0  0  0  0  0  0  0  0  0  0  0  0
  -13.3638   16.2021  -37.9498 O   0  0  0  0  0  0  0  0  0  0  0  0
   -9.4802   15.8011  -37.5668 S   0  0  0  0  0  0  0  0  0  0  0  0
  1  9  2  0
  1 11  1  0
  2  3  2  0
  2  4  1  0
  2  9  1  0
  3  7  1  0
  3 11  1  0
  8  4  1  1
  5  6  1  0
  7  5  1  6
  6  8  1  0
  7 10  1  0
  8 10  1  0
M  END
>  <id>  (76) 
EN300-6778802

>  <smiles>  (76) 
C1CC2OC1CC=3N=CSC23

>  <MDLNUMBER>  (76) 
MFCD34594836

>  <IUPAC Name>  (76) 
11-oxa-3-thia-5-azatricyclo[6.2.1.0,2,6]undeca-2(6),4-diene

>  <CAS>  (76) 
2751615-66-2

>  <Purity>  (76) 
95

>  <URL>  (76) 
https://www.enaminestore.com/catalog/EN300-6778802

>  <ROCS_ShapeQuery>  (76) 
_x1247relevant_x1083L0AP1_x1305L0BP1_

>  <ROCS_TanimotoCombo>  (76) 
1.040 

>  <ROCS_ShapeTanimoto>  (76) 
0.504 

>  <ROCS_ColorTanimoto>  (76) 
0.536 

>  <ROCS_RefTversky>  (76) 
0.417 

>  <ROCS_RefColorTversky>  (76) 
0.671 

>  <ROCS_RefTverskyCombo>  (76) 
1.088 

>  <ROCS_FitTversky>  (76) 
1.706 

>  <ROCS_FitColorTversky>  (76) 
0.728 

>  <ROCS_FitTverskyCombo>  (76) 
2.434 

>  <ROCS_ColorScore>  (76) 
-6.456

>  <ROCS_Overlap>  (76) 
1024.900

>  <ROCS_Rank>  (76) 
208                 

>  <Score>  (76) 
-0.78720380857339478

$$$$
LIG
     RDKit          3D

 10 12  0  0  1  0  0  0  0  0999 V2000
  -13.2833   14.8161  -39.6708 C   0  0  0  0  0  0  0  0  0  0  0  0
  -12.1639   15.8706  -39.6806 C   0  0  0  0  0  0  0  0  0  0  0  0
   -9.8817   14.4938  -37.9852 C   0  0  0  0  0  0  0  0  0  0  0  0
  -13.3935   16.0720  -37.6517 C   0  0  0  0  0  0  0  0  0  0  0  0
  -12.4320   13.8857  -37.4948 C   0  0  0  0  0  0  0  0  0  0  0  0
   -9.6269   14.2767  -36.4867 C   0  0  0  0  0  0  0  0  0  0  0  0
  -13.5946   14.6484  -38.1731 C   0  0  2  0  0  0  0  0  0  0  0  0
  -11.9587   16.1707  -38.1849 C   0  0  1  0  0  0  0  0  0  0  0  0
  -11.3021   14.9352  -37.5466 C   0  0  2  0  0  0  0  0  0  0  0  0
  -10.7174   15.2340  -36.2084 N   0  0  0  0  0  0  0  0  0  0  0  0
  1  2  1  0
  7  1  1  6
  8  2  1  6
  3  6  1  0
  9  3  1  6
  4  7  1  0
  4  8  1  0
  5  7  1  0
  5  9  1  0
  6 10  1  0
  8  9  1  0
  9 10  1  0
M  END
>  <id>  (77) 
EN300-1241513

>  <smiles>  (77) 
C1CC2(CC3CCC2C3)N1

>  <MDLNUMBER>  (77) 
MFCD24121896

>  <IUPAC Name>  (77) 
spiro[azetidine-2,2'-bicyclo[2.2.1]heptane]

>  <CAS>  (77) 
28890-93-9

>  <Purity>  (77) 
95

>  <URL>  (77) 
https://www.enaminestore.com/catalog/EN300-1241513

>  <ROCS_ShapeQuery>  (77) 
_x1247relevant_x1083L0AP1_x1305L0BP1_

>  <ROCS_TanimotoCombo>  (77) 
1.040 

>  <ROCS_ShapeTanimoto>  (77) 
0.485 

>  <ROCS_ColorTanimoto>  (77) 
0.555 

>  <ROCS_RefTversky>  (77) 
0.400 

>  <ROCS_RefColorTversky>  (77) 
0.703 

>  <ROCS_RefTverskyCombo>  (77) 
1.104 

>  <ROCS_FitTversky>  (77) 
1.769 

>  <ROCS_FitColorTversky>  (77) 
0.726 

>  <ROCS_FitTverskyCombo>  (77) 
2.495 

>  <ROCS_ColorScore>  (77) 
-6.785

>  <ROCS_Overlap>  (77) 
983.301

>  <ROCS_Rank>  (77) 
209                 

>  <Score>  (77) 
-0.30732781685833288

$$$$
LIG
     RDKit          3D

  9 10  0  0  0  0  0  0  0  0999 V2000
  -12.8219   14.1052  -38.8079 C   0  0  0  0  0  0  0  0  0  0  0  0
  -13.3675   15.6459  -37.4327 C   0  0  0  0  0  0  0  0  0  0  0  0
  -11.9723   14.9205  -37.7253 C   0  0  2  0  0  0  0  0  0  0  0  0
  -13.2943   15.5467  -38.9515 C   0  0  1  0  0  0  0  0  0  0  0  0
  -11.8456   16.0086  -38.8942 C   0  0  0  0  0  0  0  0  0  0  0  0
  -10.9464   14.4380  -36.7780 C   0  0  0  0  0  0  0  0  0  0  0  0
  -14.2719   16.0048  -39.8530 N   0  0  0  0  0  0  0  0  0  0  0  0
  -11.5862   17.2805  -38.5228 F   0  0  0  0  0  0  0  0  0  0  0  0
  -11.0293   15.7077  -39.9267 F   0  0  0  0  0  0  0  0  0  0  0  0
  1  3  1  0
  1  4  1  0
  2  3  1  0
  2  4  1  0
  3  5  1  0
  3  6  1  1
  4  5  1  0
  4  7  1  6
  5  8  1  0
  5  9  1  0
M  END
>  <id>  (78) 
EN300-37466802

>  <smiles>  (78) 
C[C@]1(C[C@@]2(N)C1)C2(F)F

>  <IUPAC Name>  (78) 
(1s,3r)-2,2-difluoro-3-methylbicyclo[1.1.1]pentan-1-amine

>  <URL>  (78) 
https://www.enaminestore.com/catalog/EN300-37466802

>  <ROCS_ShapeQuery>  (78) 
_x1247relevant_x1083L0AP1_x1305L0BP1_

>  <ROCS_TanimotoCombo>  (78) 
1.039 

>  <ROCS_ShapeTanimoto>  (78) 
0.425 

>  <ROCS_ColorTanimoto>  (78) 
0.614 

>  <ROCS_RefTversky>  (78) 
0.360 

>  <ROCS_RefColorTversky>  (78) 
0.755 

>  <ROCS_RefTverskyCombo>  (78) 
1.116 

>  <ROCS_FitTversky>  (78) 
1.734 

>  <ROCS_FitColorTversky>  (78) 
0.767 

>  <ROCS_FitTverskyCombo>  (78) 
2.500 

>  <ROCS_ColorScore>  (78) 
-7.295

>  <ROCS_Overlap>  (78) 
883.961

>  <ROCS_Rank>  (78) 
215                 

>  <Score>  (78) 
-1.7595518552452631

$$$$
LIG
     RDKit          3D

  9 10  0  0  0  0  0  0  0  0999 V2000
  -12.8219   14.1052  -38.8079 C   0  0  0  0  0  0  0  0  0  0  0  0
  -13.3675   15.6459  -37.4327 C   0  0  0  0  0  0  0  0  0  0  0  0
  -11.9723   14.9205  -37.7253 C   0  0  2  0  0  0  0  0  0  0  0  0
  -13.2943   15.5467  -38.9515 C   0  0  1  0  0  0  0  0  0  0  0  0
  -11.8456   16.0086  -38.8942 C   0  0  0  0  0  0  0  0  0  0  0  0
  -10.9464   14.4380  -36.7780 C   0  0  0  0  0  0  0  0  0  0  0  0
  -14.2719   16.0048  -39.8530 N   0  0  0  0  0  0  0  0  0  0  0  0
  -11.5862   17.2805  -38.5228 F   0  0  0  0  0  0  0  0  0  0  0  0
  -11.0293   15.7077  -39.9267 F   0  0  0  0  0  0  0  0  0  0  0  0
  1  3  1  0
  1  4  1  0
  2  3  1  0
  2  4  1  0
  3  5  1  0
  3  6  1  1
  4  5  1  0
  4  7  1  6
  5  8  1  0
  5  9  1  0
M  END
>  <id>  (79) 
EN300-37466869

>  <smiles>  (79) 
Cl.C[C@]1(C[C@@]2(N)C1)C2(F)F

>  <IUPAC Name>  (79) 
(1s,3r)-2,2-difluoro-3-methylbicyclo[1.1.1]pentan-1-amine hydrochloride

>  <URL>  (79) 
https://www.enaminestore.com/catalog/EN300-37466869

>  <ROCS_ShapeQuery>  (79) 
_x1247relevant_x1083L0AP1_x1305L0BP1_

>  <ROCS_TanimotoCombo>  (79) 
1.039 

>  <ROCS_ShapeTanimoto>  (79) 
0.425 

>  <ROCS_ColorTanimoto>  (79) 
0.614 

>  <ROCS_RefTversky>  (79) 
0.360 

>  <ROCS_RefColorTversky>  (79) 
0.755 

>  <ROCS_RefTverskyCombo>  (79) 
1.116 

>  <ROCS_FitTversky>  (79) 
1.734 

>  <ROCS_FitColorTversky>  (79) 
0.767 

>  <ROCS_FitTverskyCombo>  (79) 
2.500 

>  <ROCS_ColorScore>  (79) 
-7.295

>  <ROCS_Overlap>  (79) 
883.961

>  <ROCS_Rank>  (79) 
216                 

>  <Score>  (79) 
-1.7595518552452631

$$$$
LIG
     RDKit          3D

  9 10  0  0  0  0  0  0  0  0999 V2000
  -13.3652   15.6515  -37.4327 C   0  0  0  0  0  0  0  0  0  0  0  0
  -12.8265   14.1044  -38.8036 C   0  0  0  0  0  0  0  0  0  0  0  0
  -11.9727   14.9206  -37.7249 C   0  0  1  0  0  0  0  0  0  0  0  0
  -13.2944   15.5470  -38.9513 C   0  0  2  0  0  0  0  0  0  0  0  0
  -11.8441   16.0043  -38.8975 C   0  0  0  0  0  0  0  0  0  0  0  0
  -10.9469   14.4381  -36.7774 C   0  0  0  0  0  0  0  0  0  0  0  0
  -14.2715   16.0056  -39.8531 N   0  0  0  0  0  0  0  0  0  0  0  0
  -11.5800   17.2766  -38.5307 F   0  0  0  0  0  0  0  0  0  0  0  0
  -11.0302   15.6973  -39.9301 F   0  0  0  0  0  0  0  0  0  0  0  0
  1  3  1  0
  1  4  1  0
  2  3  1  0
  2  4  1  0
  3  5  1  0
  3  6  1  1
  4  5  1  0
  4  7  1  6
  5  8  1  0
  5  9  1  0
M  END
>  <id>  (80) 
EN300-7542601

>  <smiles>  (80) 
CC1(CC2(N)C1)C2(F)F

>  <IUPAC Name>  (80) 
2,2-difluoro-3-methylbicyclo[1.1.1]pentan-1-amine

>  <CAS>  (80) 
2768327-08-6

>  <URL>  (80) 
https://www.enaminestore.com/catalog/EN300-7542601

>  <ROCS_ShapeQuery>  (80) 
_x1247relevant_x1083L0AP1_x1305L0BP1_

>  <ROCS_TanimotoCombo>  (80) 
1.039 

>  <ROCS_ShapeTanimoto>  (80) 
0.425 

>  <ROCS_ColorTanimoto>  (80) 
0.614 

>  <ROCS_RefTversky>  (80) 
0.360 

>  <ROCS_RefColorTversky>  (80) 
0.755 

>  <ROCS_RefTverskyCombo>  (80) 
1.116 

>  <ROCS_FitTversky>  (80) 
1.734 

>  <ROCS_FitColorTversky>  (80) 
0.767 

>  <ROCS_FitTverskyCombo>  (80) 
2.500 

>  <ROCS_ColorScore>  (80) 
-7.295

>  <ROCS_Overlap>  (80) 
883.924

>  <ROCS_Rank>  (80) 
217                 

>  <Score>  (80) 
-1.7535347564485164

$$$$
LIG
     RDKit          3D

  9 10  0  0  0  0  0  0  0  0999 V2000
  -13.3652   15.6515  -37.4327 C   0  0  0  0  0  0  0  0  0  0  0  0
  -12.8265   14.1044  -38.8036 C   0  0  0  0  0  0  0  0  0  0  0  0
  -11.9727   14.9206  -37.7249 C   0  0  1  0  0  0  0  0  0  0  0  0
  -13.2944   15.5470  -38.9513 C   0  0  2  0  0  0  0  0  0  0  0  0
  -11.8441   16.0043  -38.8975 C   0  0  0  0  0  0  0  0  0  0  0  0
  -10.9469   14.4381  -36.7774 C   0  0  0  0  0  0  0  0  0  0  0  0
  -14.2715   16.0056  -39.8531 N   0  0  0  0  0  0  0  0  0  0  0  0
  -11.5800   17.2766  -38.5307 F   0  0  0  0  0  0  0  0  0  0  0  0
  -11.0302   15.6973  -39.9301 F   0  0  0  0  0  0  0  0  0  0  0  0
  1  3  1  0
  1  4  1  0
  2  3  1  0
  2  4  1  0
  3  5  1  0
  3  6  1  1
  4  5  1  0
  4  7  1  6
  5  8  1  0
  5  9  1  0
M  END
>  <id>  (81) 
EN300-37380597

>  <smiles>  (81) 
Cl.CC1(CC2(N)C1)C2(F)F

>  <IUPAC Name>  (81) 
2,2-difluoro-3-methylbicyclo[1.1.1]pentan-1-amine hydrochloride

>  <CAS>  (81) 
2768327-09-7

>  <Purity>  (81) 
95

>  <URL>  (81) 
https://www.enaminestore.com/catalog/EN300-37380597

>  <ROCS_ShapeQuery>  (81) 
_x1247relevant_x1083L0AP1_x1305L0BP1_

>  <ROCS_TanimotoCombo>  (81) 
1.039 

>  <ROCS_ShapeTanimoto>  (81) 
0.425 

>  <ROCS_ColorTanimoto>  (81) 
0.614 

>  <ROCS_RefTversky>  (81) 
0.360 

>  <ROCS_RefColorTversky>  (81) 
0.755 

>  <ROCS_RefTverskyCombo>  (81) 
1.116 

>  <ROCS_FitTversky>  (81) 
1.734 

>  <ROCS_FitColorTversky>  (81) 
0.767 

>  <ROCS_FitTverskyCombo>  (81) 
2.500 

>  <ROCS_ColorScore>  (81) 
-7.295

>  <ROCS_Overlap>  (81) 
883.924

>  <ROCS_Rank>  (81) 
218                 

>  <Score>  (81) 
-1.7535347564485164

$$$$
LIG
     RDKit          3D

 12 14  0  0  0  0  0  0  0  0999 V2000
   -8.7989   14.7117  -36.7069 C   0  0  0  0  0  0  0  0  0  0  0  0
   -9.5719   13.7869  -36.0187 C   0  0  0  0  0  0  0  0  0  0  0  0
   -9.4006   15.5632  -37.6295 C   0  0  0  0  0  0  0  0  0  0  0  0
  -10.9458   13.7197  -36.2523 C   0  0  0  0  0  0  0  0  0  0  0  0
  -10.7826   15.4916  -37.8825 C   0  0  0  0  0  0  0  0  0  0  0  0
  -11.5905   14.5664  -37.1779 C   0  0  0  0  0  0  0  0  0  0  0  0
  -11.3954   16.4724  -38.8633 C   0  0  0  0  0  0  0  0  0  0  0  0
  -13.5893   14.0095  -38.8560 C   0  0  0  0  0  0  0  0  0  0  0  0
  -13.9141   15.7878  -37.7312 C   0  0  0  0  0  0  0  0  0  0  0  0
  -13.1543   14.4636  -37.4295 C   0  0  2  0  0  0  0  0  0  0  0  0
  -13.6905   15.5091  -39.2321 C   0  0  1  0  0  0  0  0  0  0  0  0
  -12.3892   15.9187  -39.7878 N   0  0  0  0  0  0  0  0  0  0  0  0
  1  2  2  0
  1  3  1  0
  2  4  1  0
  3  5  2  0
  4  6  2  0
  5  6  1  0
  5  7  1  0
  6 10  1  0
  7 12  1  0
 10  8  1  6
 11  8  1  1
  9 10  1  0
  9 11  1  0
 11 12  1  0
M  END
>  <id>  (82) 
EN300-39870066

>  <smiles>  (82) 
C1[C@H]2C[C@@H]1C=3C=CC=CC3CN2

>  <IUPAC Name>  (82) 
(1s,10s)-9-azatricyclo[8.1.1.0,2,7]dodeca-2,4,6-triene

>  <URL>  (82) 
https://www.enaminestore.com/catalog/EN300-39870066

>  <ROCS_ShapeQuery>  (82) 
_x1247relevant_x1083L0AP1_x1305L0BP1_

>  <ROCS_TanimotoCombo>  (82) 
1.037 

>  <ROCS_ShapeTanimoto>  (82) 
0.504 

>  <ROCS_ColorTanimoto>  (82) 
0.533 

>  <ROCS_RefTversky>  (82) 
0.422 

>  <ROCS_RefColorTversky>  (82) 
0.662 

>  <ROCS_RefTverskyCombo>  (82) 
1.084 

>  <ROCS_FitTversky>  (82) 
1.624 

>  <ROCS_FitColorTversky>  (82) 
0.733 

>  <ROCS_FitTverskyCombo>  (82) 
2.357 

>  <ROCS_ColorScore>  (82) 
-6.363

>  <ROCS_Overlap>  (82) 
1038.076

>  <ROCS_Rank>  (82) 
232                 

>  <Score>  (82) 
-2.6022040853558792

$$$$
LIG
     RDKit          3D

 12 14  0  0  0  0  0  0  0  0999 V2000
   -8.7989   14.7117  -36.7069 C   0  0  0  0  0  0  0  0  0  0  0  0
   -9.5719   13.7869  -36.0187 C   0  0  0  0  0  0  0  0  0  0  0  0
   -9.4006   15.5632  -37.6295 C   0  0  0  0  0  0  0  0  0  0  0  0
  -10.9458   13.7197  -36.2523 C   0  0  0  0  0  0  0  0  0  0  0  0
  -10.7826   15.4916  -37.8825 C   0  0  0  0  0  0  0  0  0  0  0  0
  -11.5905   14.5664  -37.1779 C   0  0  0  0  0  0  0  0  0  0  0  0
  -11.3954   16.4724  -38.8633 C   0  0  0  0  0  0  0  0  0  0  0  0
  -13.5893   14.0095  -38.8560 C   0  0  0  0  0  0  0  0  0  0  0  0
  -13.9141   15.7878  -37.7312 C   0  0  0  0  0  0  0  0  0  0  0  0
  -13.1543   14.4636  -37.4295 C   0  0  2  0  0  0  0  0  0  0  0  0
  -13.6905   15.5091  -39.2321 C   0  0  1  0  0  0  0  0  0  0  0  0
  -12.3892   15.9187  -39.7878 N   0  0  0  0  0  0  0  0  0  0  0  0
  1  2  2  0
  1  3  1  0
  2  4  1  0
  3  5  2  0
  4  6  2  0
  5  6  1  0
  5  7  1  0
  6 10  1  0
  7 12  1  0
 10  8  1  6
 11  8  1  1
  9 10  1  0
  9 11  1  0
 11 12  1  0
M  END
>  <id>  (83) 
EN300-37468183

>  <smiles>  (83) 
Cl.C1[C@H]2C[C@@H]1C=3C=CC=CC3CN2

>  <IUPAC Name>  (83) 
(1s,10s)-9-azatricyclo[8.1.1.0,2,7]dodeca-2,4,6-triene hydrochloride

>  <URL>  (83) 
https://www.enaminestore.com/catalog/EN300-37468183

>  <ROCS_ShapeQuery>  (83) 
_x1247relevant_x1083L0AP1_x1305L0BP1_

>  <ROCS_TanimotoCombo>  (83) 
1.037 

>  <ROCS_ShapeTanimoto>  (83) 
0.504 

>  <ROCS_ColorTanimoto>  (83) 
0.533 

>  <ROCS_RefTversky>  (83) 
0.422 

>  <ROCS_RefColorTversky>  (83) 
0.662 

>  <ROCS_RefTverskyCombo>  (83) 
1.084 

>  <ROCS_FitTversky>  (83) 
1.624 

>  <ROCS_FitColorTversky>  (83) 
0.733 

>  <ROCS_FitTverskyCombo>  (83) 
2.357 

>  <ROCS_ColorScore>  (83) 
-6.363

>  <ROCS_Overlap>  (83) 
1038.076

>  <ROCS_Rank>  (83) 
233                 

>  <Score>  (83) 
-2.6022040853558792

$$$$
LIG
     RDKit          3D

 12 14  0  0  0  0  0  0  0  0999 V2000
   -8.8024   14.7084  -36.6982 C   0  0  0  0  0  0  0  0  0  0  0  0
   -9.5768   13.7794  -36.0167 C   0  0  0  0  0  0  0  0  0  0  0  0
   -9.4017   15.5641  -37.6183 C   0  0  0  0  0  0  0  0  0  0  0  0
  -10.9504   13.7121  -36.2543 C   0  0  0  0  0  0  0  0  0  0  0  0
  -10.7829   15.4930  -37.8736 C   0  0  0  0  0  0  0  0  0  0  0  0
  -11.5936   14.5640  -37.1760 C   0  0  0  0  0  0  0  0  0  0  0  0
  -11.3971   16.4792  -38.8465 C   0  0  0  0  0  0  0  0  0  0  0  0
  -13.9261   15.7787  -37.7433 C   0  0  0  0  0  0  0  0  0  0  0  0
  -13.5842   13.9997  -38.8617 C   0  0  0  0  0  0  0  0  0  0  0  0
  -13.1585   14.4590  -37.4338 C   0  0  1  0  0  0  0  0  0  0  0  0
  -13.6849   15.4993  -39.2424 C   0  0  2  0  0  0  0  0  0  0  0  0
  -12.3840   15.9326  -39.7758 N   0  0  0  0  0  0  0  0  0  0  0  0
  1  2  2  0
  1  3  1  0
  2  4  1  0
  3  5  2  0
  4  6  2  0
  5  6  1  0
  5  7  1  0
  6 10  1  0
  7 12  1  0
 10  8  1  6
 11  8  1  1
  9 10  1  0
  9 11  1  0
 11 12  1  0
M  END
>  <id>  (84) 
EN300-6745485

>  <smiles>  (84) 
Cl.C1C2CC1C=3C=CC=CC3CN2

>  <MDLNUMBER>  (84) 
MFCD31794619

>  <IUPAC Name>  (84) 
9-azatricyclo[8.1.1.0,2,7]dodeca-2,4,6-triene hydrochloride

>  <CAS>  (84) 
104127-09-5

>  <Purity>  (84) 
95

>  <URL>  (84) 
https://www.enaminestore.com/catalog/EN300-6745485

>  <Saltdate>  (84) 
Cl

>  <MP>  (84) 
216-217

>  <ROCS_ShapeQuery>  (84) 
_x1247relevant_x1083L0AP1_x1305L0BP1_

>  <ROCS_TanimotoCombo>  (84) 
1.036 

>  <ROCS_ShapeTanimoto>  (84) 
0.503 

>  <ROCS_ColorTanimoto>  (84) 
0.533 

>  <ROCS_RefTversky>  (84) 
0.422 

>  <ROCS_RefColorTversky>  (84) 
0.661 

>  <ROCS_RefTverskyCombo>  (84) 
1.083 

>  <ROCS_FitTversky>  (84) 
1.623 

>  <ROCS_FitColorTversky>  (84) 
0.733 

>  <ROCS_FitTverskyCombo>  (84) 
2.356 

>  <ROCS_ColorScore>  (84) 
-6.358

>  <ROCS_Overlap>  (84) 
1037.574

>  <ROCS_Rank>  (84) 
237                 

>  <Score>  (84) 
-2.4936674134561372

$$$$
LIG
     RDKit          3D

 12 14  0  0  0  0  0  0  0  0999 V2000
   -8.8024   14.7084  -36.6982 C   0  0  0  0  0  0  0  0  0  0  0  0
   -9.5768   13.7794  -36.0167 C   0  0  0  0  0  0  0  0  0  0  0  0
   -9.4017   15.5641  -37.6183 C   0  0  0  0  0  0  0  0  0  0  0  0
  -10.9504   13.7121  -36.2543 C   0  0  0  0  0  0  0  0  0  0  0  0
  -10.7829   15.4930  -37.8736 C   0  0  0  0  0  0  0  0  0  0  0  0
  -11.5936   14.5640  -37.1760 C   0  0  0  0  0  0  0  0  0  0  0  0
  -11.3971   16.4792  -38.8465 C   0  0  0  0  0  0  0  0  0  0  0  0
  -13.9261   15.7787  -37.7433 C   0  0  0  0  0  0  0  0  0  0  0  0
  -13.5842   13.9997  -38.8617 C   0  0  0  0  0  0  0  0  0  0  0  0
  -13.1585   14.4590  -37.4338 C   0  0  1  0  0  0  0  0  0  0  0  0
  -13.6849   15.4993  -39.2424 C   0  0  2  0  0  0  0  0  0  0  0  0
  -12.3840   15.9326  -39.7758 N   0  0  0  0  0  0  0  0  0  0  0  0
  1  2  2  0
  1  3  1  0
  2  4  1  0
  3  5  2  0
  4  6  2  0
  5  6  1  0
  5  7  1  0
  6 10  1  0
  7 12  1  0
 10  8  1  6
 11  8  1  1
  9 10  1  0
  9 11  1  0
 11 12  1  0
M  END
>  <id>  (85) 
EN300-6745486

>  <smiles>  (85) 
C1C2CC1C=3C=CC=CC3CN2

>  <MDLNUMBER>  (85) 
MFCD20663826

>  <IUPAC Name>  (85) 
9-azatricyclo[8.1.1.0,2,7]dodeca-2,4,6-triene

>  <CAS>  (85) 
94641-45-9

>  <URL>  (85) 
https://www.enaminestore.com/catalog/EN300-6745486

>  <ROCS_ShapeQuery>  (85) 
_x1247relevant_x1083L0AP1_x1305L0BP1_

>  <ROCS_TanimotoCombo>  (85) 
1.036 

>  <ROCS_ShapeTanimoto>  (85) 
0.503 

>  <ROCS_ColorTanimoto>  (85) 
0.533 

>  <ROCS_RefTversky>  (85) 
0.422 

>  <ROCS_RefColorTversky>  (85) 
0.661 

>  <ROCS_RefTverskyCombo>  (85) 
1.083 

>  <ROCS_FitTversky>  (85) 
1.623 

>  <ROCS_FitColorTversky>  (85) 
0.733 

>  <ROCS_FitTverskyCombo>  (85) 
2.356 

>  <ROCS_ColorScore>  (85) 
-6.358

>  <ROCS_Overlap>  (85) 
1037.574

>  <ROCS_Rank>  (85) 
238                 

>  <Score>  (85) 
-2.4936674134561372

$$$$
LIG
     RDKit          3D

  9 10  0  0  1  0  0  0  0  0999 V2000
   -9.3441   14.3504  -36.5147 C   0  0  0  0  0  0  0  0  0  0  0  0
  -13.7395   15.4905  -39.3143 C   0  0  0  0  0  0  0  0  0  0  0  0
  -13.6640   14.2608  -38.7832 C   0  0  0  0  0  0  0  0  0  0  0  0
  -12.9222   15.7375  -37.1664 C   0  0  0  0  0  0  0  0  0  0  0  0
  -11.3370   15.9283  -38.9257 C   0  0  0  0  0  0  0  0  0  0  0  0
  -12.7713   16.3667  -38.5534 C   0  0  1  0  0  0  0  0  0  0  0  0
  -12.6405   14.3169  -37.6732 C   0  0  2  0  0  0  0  0  0  0  0  0
  -11.2538   14.4932  -38.3319 C   0  0  2  0  0  0  0  0  0  0  0  0
  -10.2202   14.4159  -37.3484 N   0  0  0  0  0  0  0  0  0  0  0  0
  1  9  3  0
  2  3  2  0
  2  6  1  0
  7  3  1  6
  4  6  1  0
  4  7  1  0
  6  5  1  6
  5  8  1  0
  7  8  1  0
  8  9  1  1
M  CHG  2   1  -1   9   1
M  END
>  <id>  (86) 
EN300-1819711

>  <smiles>  (86) 
[C-]#[N+]C1CC2CC1C=C2

>  <MDLNUMBER>  (86) 
MFCD32773860

>  <IUPAC Name>  (86) 
5-isocyanobicyclo[2.2.1]hept-2-ene

>  <URL>  (86) 
https://www.enaminestore.com/catalog/EN300-1819711

>  <ROCS_ShapeQuery>  (86) 
_x1247relevant_x1083L0AP1_x1305L0BP1_

>  <ROCS_TanimotoCombo>  (86) 
1.034 

>  <ROCS_ShapeTanimoto>  (86) 
0.449 

>  <ROCS_ColorTanimoto>  (86) 
0.586 

>  <ROCS_RefTversky>  (86) 
0.374 

>  <ROCS_RefColorTversky>  (86) 
0.623 

>  <ROCS_RefTverskyCombo>  (86) 
0.997 

>  <ROCS_FitTversky>  (86) 
1.806 

>  <ROCS_FitColorTversky>  (86) 
0.906 

>  <ROCS_FitTverskyCombo>  (86) 
2.712 

>  <ROCS_ColorScore>  (86) 
-5.922

>  <ROCS_Overlap>  (86) 
917.576

>  <ROCS_Rank>  (86) 
246                 

>  <Score>  (86) 
-0.15937267282424727

$$$$
LIG
     RDKit          3D

 11 13  0  0  1  0  0  0  0  0999 V2000
   -9.6195   13.8912  -36.2830 C   0  0  0  0  0  0  0  0  0  0  0  0
   -9.0581   14.9850  -36.9363 C   0  0  0  0  0  0  0  0  0  0  0  0
  -10.9784   13.6182  -36.4242 C   0  0  0  0  0  0  0  0  0  0  0  0
   -9.8560   15.8121  -37.7285 C   0  0  0  0  0  0  0  0  0  0  0  0
  -11.7815   14.4355  -37.2304 C   0  0  0  0  0  0  0  0  0  0  0  0
  -11.2273   15.5600  -37.8855 C   0  0  0  0  0  0  0  0  0  0  0  0
  -13.2635   14.1550  -37.3642 C   0  0  0  0  0  0  0  0  0  0  0  0
  -13.7991   14.5038  -38.7583 C   0  0  0  0  0  0  0  0  0  0  0  0
  -12.1003   16.4526  -38.7263 C   0  0  2  0  0  0  0  0  0  0  0  0
  -13.4536   15.9127  -39.1326 C   0  0  1  0  0  0  0  0  0  0  0  0
  -12.3801   16.0362  -40.0718 O   0  0  0  0  0  0  0  0  0  0  0  0
  1  2  2  0
  1  3  1  0
  2  4  1  0
  3  5  2  0
  4  6  2  0
  5  6  1  0
  5  7  1  0
  6  9  1  0
  7  8  1  0
 10  8  1  1
  9 10  1  0
  9 11  1  6
 10 11  1  0
M  END
>  <id>  (87) 
EN300-132943

>  <smiles>  (87) 
C1CC=2C=CC=CC2C3OC13

>  <MDLNUMBER>  (87) 
MFCD00110771

>  <IUPAC Name>  (87) 
1aH,2H,3H,7bH-naphtho[1,2-b]oxirene

>  <CAS>  (87) 
2461-34-9

>  <URL>  (87) 
https://www.enaminestore.com/catalog/EN300-132943

>  <ROCS_ShapeQuery>  (87) 
_x1247relevant_x1083L0AP1_x1305L0BP1_

>  <ROCS_TanimotoCombo>  (87) 
1.032 

>  <ROCS_ShapeTanimoto>  (87) 
0.492 

>  <ROCS_ColorTanimoto>  (87) 
0.540 

>  <ROCS_RefTversky>  (87) 
0.410 

>  <ROCS_RefColorTversky>  (87) 
0.574 

>  <ROCS_RefTverskyCombo>  (87) 
0.984 

>  <ROCS_FitTversky>  (87) 
1.683 

>  <ROCS_FitColorTversky>  (87) 
0.902 

>  <ROCS_FitTverskyCombo>  (87) 
2.585 

>  <ROCS_ColorScore>  (87) 
-5.434

>  <ROCS_Overlap>  (87) 
1008.589

>  <ROCS_Rank>  (87) 
269                 

>  <Score>  (87) 
-3.6758032197186594

$$$$
LIG
     RDKit          3D

 11 13  0  0  1  0  0  0  0  0999 V2000
   -9.6195   13.8913  -36.2829 C   0  0  0  0  0  0  0  0  0  0  0  0
   -9.0581   14.9849  -36.9365 C   0  0  0  0  0  0  0  0  0  0  0  0
  -10.9785   13.6182  -36.4242 C   0  0  0  0  0  0  0  0  0  0  0  0
   -9.8560   15.8120  -37.7286 C   0  0  0  0  0  0  0  0  0  0  0  0
  -11.7816   14.4355  -37.2304 C   0  0  0  0  0  0  0  0  0  0  0  0
  -11.2273   15.5600  -37.8854 C   0  0  0  0  0  0  0  0  0  0  0  0
  -13.2635   14.1549  -37.3642 C   0  0  0  0  0  0  0  0  0  0  0  0
  -13.7988   14.5036  -38.7586 C   0  0  0  0  0  0  0  0  0  0  0  0
  -12.1004   16.4527  -38.7260 C   0  0  2  0  0  0  0  0  0  0  0  0
  -13.4537   15.9127  -39.1325 C   0  0  1  0  0  0  0  0  0  0  0  0
  -12.3802   16.0366  -40.0717 O   0  0  0  0  0  0  0  0  0  0  0  0
  1  2  2  0
  1  3  1  0
  2  4  1  0
  3  5  2  0
  4  6  2  0
  5  6  1  0
  5  7  1  0
  6  9  1  0
  7  8  1  0
 10  8  1  1
  9 10  1  0
  9 11  1  6
 10 11  1  0
M  END
>  <id>  (88) 
EN300-218927

>  <smiles>  (88) 
C1CC=2C=CC=CC2[C@H]3O[C@@H]13

>  <MDLNUMBER>  (88) 
MFCD28968179

>  <IUPAC Name>  (88) 
(1aS,7bR)-1aH,2H,3H,7bH-naphtho[1,2-b]oxirene

>  <CAS>  (88) 
1807938-02-8

>  <URL>  (88) 
https://www.enaminestore.com/catalog/EN300-218927

>  <ROCS_ShapeQuery>  (88) 
_x1247relevant_x1083L0AP1_x1305L0BP1_

>  <ROCS_TanimotoCombo>  (88) 
1.032 

>  <ROCS_ShapeTanimoto>  (88) 
0.492 

>  <ROCS_ColorTanimoto>  (88) 
0.540 

>  <ROCS_RefTversky>  (88) 
0.410 

>  <ROCS_RefColorTversky>  (88) 
0.574 

>  <ROCS_RefTverskyCombo>  (88) 
0.984 

>  <ROCS_FitTversky>  (88) 
1.683 

>  <ROCS_FitColorTversky>  (88) 
0.902 

>  <ROCS_FitTverskyCombo>  (88) 
2.585 

>  <ROCS_ColorScore>  (88) 
-5.434

>  <ROCS_Overlap>  (88) 
1008.590

>  <ROCS_Rank>  (88) 
270                 

>  <Score>  (88) 
-3.6770796178200271

$$$$
LIG
     RDKit          3D

 11 13  0  0  1  0  0  0  0  0999 V2000
   -9.6963   14.0401  -36.0394 C   0  0  0  0  0  0  0  0  0  0  0  0
   -9.0603   15.0466  -36.7649 C   0  0  0  0  0  0  0  0  0  0  0  0
  -11.0172   13.6975  -36.3279 C   0  0  0  0  0  0  0  0  0  0  0  0
   -9.7425   15.7141  -37.7821 C   0  0  0  0  0  0  0  0  0  0  0  0
  -11.7132   14.3729  -37.3360 C   0  0  0  0  0  0  0  0  0  0  0  0
  -11.0725   15.3868  -38.0673 C   0  0  0  0  0  0  0  0  0  0  0  0
  -13.1240   13.9952  -37.6980 C   0  0  0  0  0  0  0  0  0  0  0  0
  -11.8218   16.0572  -39.1918 C   0  0  0  0  0  0  0  0  0  0  0  0
  -14.1493   15.4265  -39.6273 C   0  0  0  0  0  0  0  0  0  0  0  0
  -13.8929   15.1958  -38.1637 C   0  0  2  0  0  0  0  0  0  0  0  0
  -13.2394   16.2984  -38.8863 N   0  0  0  0  0  0  0  0  0  0  0  0
  1  2  2  0
  1  3  1  0
  2  4  1  0
  3  5  2  0
  4  6  2  0
  5  6  1  0
  5  7  1  0
  6  8  1  0
 10  7  1  6
  8 11  1  0
  9 10  1  0
  9 11  1  0
 10 11  1  0
M  END
>  <id>  (89) 
EN300-27779012

>  <smiles>  (89) 
C1[C@H]2CC=3C=CC=CC3CN12

>  <MDLNUMBER>  (89) 
MFCD33549499

>  <IUPAC Name>  (89) 
(8aR)-1H,3H,8H,8aH-azirino[1,2-b]isoquinoline

>  <CAS>  (89) 
2639377-93-6

>  <Purity>  (89) 
95

>  <URL>  (89) 
https://www.enaminestore.com/catalog/EN300-27779012

>  <ROCS_ShapeQuery>  (89) 
_x1247relevant_x1083L0AP1_x1305L0BP1_

>  <ROCS_TanimotoCombo>  (89) 
1.032 

>  <ROCS_ShapeTanimoto>  (89) 
0.488 

>  <ROCS_ColorTanimoto>  (89) 
0.544 

>  <ROCS_RefTversky>  (89) 
0.408 

>  <ROCS_RefColorTversky>  (89) 
0.576 

>  <ROCS_RefTverskyCombo>  (89) 
0.984 

>  <ROCS_FitTversky>  (89) 
1.669 

>  <ROCS_FitColorTversky>  (89) 
0.907 

>  <ROCS_FitTverskyCombo>  (89) 
2.577 

>  <ROCS_ColorScore>  (89) 
-5.455

>  <ROCS_Overlap>  (89) 
1002.735

>  <ROCS_Rank>  (89) 
273                 

>  <Score>  (89) 
-2.8211472227674221

$$$$
LIG
     RDKit          3D

 11 13  0  0  1  0  0  0  0  0999 V2000
   -9.0613   15.0265  -36.7372 C   0  0  0  0  0  0  0  0  0  0  0  0
   -9.7233   14.0220  -36.0323 C   0  0  0  0  0  0  0  0  0  0  0  0
   -9.7169   15.7125  -37.7595 C   0  0  0  0  0  0  0  0  0  0  0  0
  -11.0433   13.6996  -36.3469 C   0  0  0  0  0  0  0  0  0  0  0  0
  -11.0456   15.4056  -38.0707 C   0  0  0  0  0  0  0  0  0  0  0  0
  -11.7128   14.3937  -37.3605 C   0  0  0  0  0  0  0  0  0  0  0  0
  -11.7635   16.0988  -39.1969 C   0  0  0  0  0  0  0  0  0  0  0  0
  -13.1242   14.0368  -37.7558 C   0  0  0  0  0  0  0  0  0  0  0  0
  -14.2261   15.3004  -39.5428 C   0  0  0  0  0  0  0  0  0  0  0  0
  -13.2281   16.2218  -38.8978 C   0  0  1  0  0  0  0  0  0  0  0  0
  -13.9436   15.2043  -38.1117 N   0  0  0  0  0  0  0  0  0  0  0  0
  1  2  2  0
  1  3  1  0
  2  4  1  0
  3  5  2  0
  4  6  2  0
  5  6  1  0
  5  7  1  0
  6  8  1  0
 10  7  1  6
  8 11  1  0
  9 10  1  0
  9 11  1  0
 10 11  1  0
M  END
>  <id>  (90) 
EN300-27779011

>  <smiles>  (90) 
C1[C@@H]2CC=3C=CC=CC3CN12

>  <MDLNUMBER>  (90) 
MFCD33550073

>  <IUPAC Name>  (90) 
(8aS)-1H,3H,8H,8aH-azirino[1,2-b]isoquinoline

>  <CAS>  (90) 
2639390-26-2

>  <Purity>  (90) 
95

>  <URL>  (90) 
https://www.enaminestore.com/catalog/EN300-27779011

>  <ROCS_ShapeQuery>  (90) 
_x1247relevant_x1083L0AP1_x1305L0BP1_

>  <ROCS_TanimotoCombo>  (90) 
1.030 

>  <ROCS_ShapeTanimoto>  (90) 
0.486 

>  <ROCS_ColorTanimoto>  (90) 
0.544 

>  <ROCS_RefTversky>  (90) 
0.407 

>  <ROCS_RefColorTversky>  (90) 
0.576 

>  <ROCS_RefTverskyCombo>  (90) 
0.983 

>  <ROCS_FitTversky>  (90) 
1.666 

>  <ROCS_FitColorTversky>  (90) 
0.908 

>  <ROCS_FitTverskyCombo>  (90) 
2.574 

>  <ROCS_ColorScore>  (90) 
-5.456

>  <ROCS_Overlap>  (90) 
1000.903

>  <ROCS_Rank>  (90) 
290                 

>  <Score>  (90) 
-2.9389193822578363

$$$$
LIG
     RDKit          3D

  9 10  0  0  1  0  0  0  0  0999 V2000
  -11.3120   14.6056  -37.6868 C   0  0  0  0  0  0  0  0  0  0  0  0
  -11.3677   16.1255  -37.9001 C   0  0  0  0  0  0  0  0  0  0  0  0
  -13.5497   15.3623  -37.3938 C   0  0  0  0  0  0  0  0  0  0  0  0
  -13.0616   14.2398  -39.4465 C   0  0  0  0  0  0  0  0  0  0  0  0
  -12.7670   14.1667  -37.9333 C   0  0  1  0  0  0  0  0  0  0  0  0
  -12.8300   16.3606  -38.3119 C   0  0  2  0  0  0  0  0  0  0  0  0
  -13.1328   15.7602  -39.7087 C   0  0  1  0  0  0  0  0  0  0  0  0
  -12.2223   16.2179  -40.8404 C   0  0  0  0  0  0  0  0  0  0  0  0
  -14.4753   16.0958  -40.0721 O   0  0  0  0  0  0  0  0  0  0  0  0
  1  2  1  0
  5  1  1  6
  6  2  1  1
  3  5  1  0
  3  6  1  0
  4  5  1  0
  4  7  1  0
  6  7  1  0
  7  8  1  6
  7  9  1  0
M  END
>  <id>  (91) 
EN300-1241638

>  <smiles>  (91) 
CC1(O)CC2CCC1C2

>  <IUPAC Name>  (91) 
2-methylbicyclo[2.2.1]heptan-2-ol

>  <CAS>  (91) 
5240-73-3

>  <Purity>  (91) 
95

>  <URL>  (91) 
https://www.enaminestore.com/catalog/EN300-1241638

>  <ROCS_ShapeQuery>  (91) 
_x1247relevant_x1083L0AP1_x1305L0BP1_

>  <ROCS_TanimotoCombo>  (91) 
1.030 

>  <ROCS_ShapeTanimoto>  (91) 
0.416 

>  <ROCS_ColorTanimoto>  (91) 
0.615 

>  <ROCS_RefTversky>  (91) 
0.354 

>  <ROCS_RefColorTversky>  (91) 
0.713 

>  <ROCS_RefTverskyCombo>  (91) 
1.066 

>  <ROCS_FitTversky>  (91) 
1.729 

>  <ROCS_FitColorTversky>  (91) 
0.817 

>  <ROCS_FitTverskyCombo>  (91) 
2.547 

>  <ROCS_ColorScore>  (91) 
-6.838

>  <ROCS_Overlap>  (91) 
867.366

>  <ROCS_Rank>  (91) 
291                 

>  <Score>  (91) 
-1.0184723933086843

$$$$
LIG
     RDKit          3D

 14 15  0  0  0  0  0  0  0  0999 V2000
   -9.9595   15.2566  -37.6884 C   0  0  0  0  0  0  0  0  0  0  0  0
  -13.5640   15.8109  -37.5395 C   0  0  0  0  0  0  0  0  0  0  0  0
  -13.2703   14.1012  -38.7048 C   0  0  0  0  0  0  0  0  0  0  0  0
  -11.7939   16.0340  -39.2945 C   0  0  0  0  0  0  0  0  0  0  0  0
  -12.4503   14.6882  -37.4855 C   0  0  1  0  0  0  0  0  0  0  0  0
  -13.2328   15.6207  -39.0509 C   0  0  2  0  0  0  0  0  0  0  0  0
   -7.8996   13.6407  -37.6764 C   0  0  0  0  0  0  0  0  0  0  0  0
   -8.3885   13.1080  -35.2709 C   0  0  0  0  0  0  0  0  0  0  0  0
   -9.8446   12.1576  -37.0833 C   0  0  0  0  0  0  0  0  0  0  0  0
   -8.9950   13.3518  -36.6511 C   0  0  0  0  0  0  0  0  0  0  0  0
  -11.2636   15.3245  -38.1196 N   0  0  0  0  0  0  0  0  0  0  0  0
  -14.2955   16.0352  -39.9266 N   0  0  0  0  0  0  0  0  0  0  0  0
   -9.0167   15.8053  -38.2529 O   0  0  0  0  0  0  0  0  0  0  0  0
   -9.8420   14.5022  -36.5529 O   0  0  0  0  0  0  0  0  0  0  0  0
  1 11  1  0
  1 13  2  0
  1 14  1  0
  5  2  1  6
  2  6  1  0
  3  5  1  0
  3  6  1  0
  4  6  1  0
  4 11  1  0
  5 11  1  0
  6 12  1  6
  7 10  1  0
  8 10  1  0
  9 10  1  0
 10 14  1  0
M  END
>  <id>  (92) 
EN300-37375326

>  <smiles>  (92) 
CC(C)(C)OC(=O)N1C[C@]2(N)C[C@H]1C2

>  <IUPAC Name>  (92) 
tert-butyl (4r)-4-amino-2-azabicyclo[2.1.1]hexane-2-carboxylate

>  <CAS>  (92) 
2361636-63-5

>  <URL>  (92) 
https://www.enaminestore.com/catalog/EN300-37375326

>  <ROCS_ShapeQuery>  (92) 
_x1247relevant_x1083L0AP1_x1305L0BP1_

>  <ROCS_TanimotoCombo>  (92) 
1.030 

>  <ROCS_ShapeTanimoto>  (92) 
0.503 

>  <ROCS_ColorTanimoto>  (92) 
0.526 

>  <ROCS_RefTversky>  (92) 
0.433 

>  <ROCS_RefColorTversky>  (92) 
0.725 

>  <ROCS_RefTverskyCombo>  (92) 
1.157 

>  <ROCS_FitTversky>  (92) 
1.482 

>  <ROCS_FitColorTversky>  (92) 
0.658 

>  <ROCS_FitTverskyCombo>  (92) 
2.140 

>  <ROCS_ColorScore>  (92) 
-7.043

>  <ROCS_Overlap>  (92) 
1066.242

>  <ROCS_Rank>  (92) 
292                 

>  <Score>  (92) 
-3.4237130973556305

$$$$
LIG
     RDKit          3D

 14 15  0  0  0  0  0  0  0  0999 V2000
   -9.9595   15.2555  -37.6885 C   0  0  0  0  0  0  0  0  0  0  0  0
  -13.5636   15.8121  -37.5398 C   0  0  0  0  0  0  0  0  0  0  0  0
  -13.2709   14.1013  -38.7038 C   0  0  0  0  0  0  0  0  0  0  0  0
  -11.7934   16.0327  -39.2951 C   0  0  0  0  0  0  0  0  0  0  0  0
  -12.4506   14.6888  -37.4850 C   0  0  1  0  0  0  0  0  0  0  0  0
  -13.2326   15.6205  -39.0510 C   0  0  2  0  0  0  0  0  0  0  0  0
   -7.9006   13.6383  -37.6754 C   0  0  0  0  0  0  0  0  0  0  0  0
   -8.3897   13.1079  -35.2694 C   0  0  0  0  0  0  0  0  0  0  0  0
   -9.8466   12.1570  -37.0808 C   0  0  0  0  0  0  0  0  0  0  0  0
   -8.9962   13.3510  -36.6497 C   0  0  0  0  0  0  0  0  0  0  0  0
  -11.2635   15.3239  -38.1197 N   0  0  0  0  0  0  0  0  0  0  0  0
  -14.2951   16.0349  -39.9270 N   0  0  0  0  0  0  0  0  0  0  0  0
   -9.0164   15.8031  -38.2535 O   0  0  0  0  0  0  0  0  0  0  0  0
   -9.8424   14.5020  -36.5524 O   0  0  0  0  0  0  0  0  0  0  0  0
  1 11  1  0
  1 13  2  0
  1 14  1  0
  5  2  1  6
  2  6  1  0
  3  5  1  0
  3  6  1  0
  4  6  1  0
  4 11  1  0
  5 11  1  0
  6 12  1  6
  7 10  1  0
  8 10  1  0
  9 10  1  0
 10 14  1  0
M  END
>  <id>  (93) 
EN300-7434257

>  <smiles>  (93) 
CC(C)(C)OC(=O)N1CC2(N)CC1C2

>  <MDLNUMBER>  (93) 
MFCD32066114

>  <IUPAC Name>  (93) 
tert-butyl 4-amino-2-azabicyclo[2.1.1]hexane-2-carboxylate

>  <CAS>  (93) 
2361636-63-5

>  <Purity>  (93) 
95

>  <URL>  (93) 
https://www.enaminestore.com/catalog/EN300-7434257

>  <ROCS_ShapeQuery>  (93) 
_x1247relevant_x1083L0AP1_x1305L0BP1_

>  <ROCS_TanimotoCombo>  (93) 
1.030 

>  <ROCS_ShapeTanimoto>  (93) 
0.503 

>  <ROCS_ColorTanimoto>  (93) 
0.526 

>  <ROCS_RefTversky>  (93) 
0.433 

>  <ROCS_RefColorTversky>  (93) 
0.725 

>  <ROCS_RefTverskyCombo>  (93) 
1.157 

>  <ROCS_FitTversky>  (93) 
1.482 

>  <ROCS_FitColorTversky>  (93) 
0.658 

>  <ROCS_FitTverskyCombo>  (93) 
2.140 

>  <ROCS_ColorScore>  (93) 
-7.043

>  <ROCS_Overlap>  (93) 
1066.243

>  <ROCS_Rank>  (93) 
293                 

>  <Score>  (93) 
-3.4221669003534316

$$$$
LIG
     RDKit          3D

 13 15  0  0  1  0  0  0  0  0999 V2000
  -11.0806   13.5080  -36.7206 C   0  0  0  0  0  0  0  0  0  0  0  0
   -9.7734   13.8952  -36.4247 C   0  0  0  0  0  0  0  0  0  0  0  0
  -10.0735   15.9863  -37.6333 C   0  0  0  0  0  0  0  0  0  0  0  0
  -11.8665   14.3694  -37.4699 C   0  0  0  0  0  0  0  0  0  0  0  0
  -11.3756   15.6078  -37.9305 C   0  0  0  0  0  0  0  0  0  0  0  0
   -9.2732   15.1249  -36.8777 C   0  0  0  0  0  0  0  0  0  0  0  0
  -13.2950   14.1458  -37.9086 C   0  0  0  0  0  0  0  0  0  0  0  0
  -12.4200   16.3402  -38.7111 C   0  0  2  0  0  0  0  0  0  0  0  0
  -13.6421   15.4150  -38.6699 C   0  0  1  0  0  0  0  0  0  0  0  0
  -12.9906   15.7664  -39.9611 C   0  0  0  0  0  0  0  0  0  0  0  0
  -12.3025   14.8209  -40.6886 F   0  0  0  0  0  0  0  0  0  0  0  0
  -13.6373   16.5810  -40.8640 F   0  0  0  0  0  0  0  0  0  0  0  0
   -7.4964   15.6225  -36.4608 Br  0  0  0  0  0  0  0  0  0  0  0  0
  1  2  2  0
  1  4  1  0
  2  6  1  0
  3  5  1  0
  3  6  2  0
  4  5  2  0
  4  7  1  0
  5  8  1  0
  6 13  1  0
  9  7  1  1
  8  9  1  0
  8 10  1  6
  9 10  1  0
 10 11  1  0
 10 12  1  0
M  END
>  <id>  (94) 
EN300-2008081

>  <smiles>  (94) 
FC1(F)C2CC=3C=CC(Br)=CC3C21

>  <MDLNUMBER>  (94) 
MFCD31667760

>  <IUPAC Name>  (94) 
3-bromo-1,1-difluoro-1H,1aH,6H,6aH-cyclopropa[a]indene

>  <CAS>  (94) 
2230808-64-5

>  <Purity>  (94) 
95

>  <URL>  (94) 
https://www.enaminestore.com/catalog/EN300-2008081

>  <ROCS_ShapeQuery>  (94) 
_x1247relevant_x1083L0AP1_x1305L0BP1_

>  <ROCS_TanimotoCombo>  (94) 
1.029 

>  <ROCS_ShapeTanimoto>  (94) 
0.508 

>  <ROCS_ColorTanimoto>  (94) 
0.521 

>  <ROCS_RefTversky>  (94) 
0.430 

>  <ROCS_RefColorTversky>  (94) 
0.560 

>  <ROCS_RefTverskyCombo>  (94) 
0.990 

>  <ROCS_FitTversky>  (94) 
1.554 

>  <ROCS_FitColorTversky>  (94) 
0.883 

>  <ROCS_FitTverskyCombo>  (94) 
2.436 

>  <ROCS_ColorScore>  (94) 
-5.303

>  <ROCS_Overlap>  (94) 
1059.212

>  <ROCS_Rank>  (94) 
294                 

>  <Score>  (94) 
-4.1100043833666859

$$$$
LIG
     RDKit          3D

 15 16  0  0  1  0  0  0  0  0999 V2000
  -10.0158   14.3652  -37.6199 C   0  0  0  0  0  0  0  0  0  0  0  0
  -13.2988   15.8411  -37.3405 C   0  0  0  0  0  0  0  0  0  0  0  0
  -12.1884   16.2838  -39.3925 C   0  0  0  0  0  0  0  0  0  0  0  0
  -12.4478   13.7198  -37.9651 C   0  0  0  0  0  0  0  0  0  0  0  0
  -13.6139   14.6698  -38.2845 C   0  0  2  0  0  0  0  0  0  0  0  0
  -11.8906   16.0283  -37.9033 C   0  0  2  0  0  0  0  0  0  0  0  0
  -13.3617   15.3168  -39.6662 C   0  0  1  0  0  0  0  0  0  0  0  0
   -9.4006   14.5744  -35.0827 C   0  0  0  0  0  0  0  0  0  0  0  0
   -9.6835   12.0890  -34.8553 C   0  0  0  0  0  0  0  0  0  0  0  0
   -7.6547   13.0163  -36.0094 C   0  0  0  0  0  0  0  0  0  0  0  0
   -9.1443   13.2159  -35.7336 C   0  0  0  0  0  0  0  0  0  0  0  0
  -11.3492   14.6696  -37.7959 N   0  0  0  0  0  0  0  0  0  0  0  0
   -9.0879   15.0797  -37.9910 O   0  0  0  0  0  0  0  0  0  0  0  0
  -14.5003   16.0529  -40.0888 O   0  0  0  0  0  0  0  0  0  0  0  0
   -9.8490   13.1671  -36.9790 O   0  0  0  0  0  0  0  0  0  0  0  0
  1 12  1  0
  1 13  2  0
  1 15  1  0
  2  5  1  0
  2  6  1  0
  6  3  1  6
  3  7  1  0
  5  4  1  1
  4 12  1  0
  5  7  1  0
  6 12  1  0
  7 14  1  1
  8 11  1  0
  9 11  1  0
 10 11  1  0
 11 15  1  0
M  END
>  <id>  (95) 
EN300-296284

>  <smiles>  (95) 
CC(C)(C)OC(=O)N1CC2CC1CC2O

>  <MDLNUMBER>  (95) 
MFCD20278317

>  <IUPAC Name>  (95) 
tert-butyl 5-hydroxy-2-azabicyclo[2.2.1]heptane-2-carboxylate

>  <CAS>  (95) 
207405-60-5

>  <Purity>  (95) 
95

>  <URL>  (95) 
https://www.enaminestore.com/catalog/EN300-296284

>  <ROCS_ShapeQuery>  (95) 
_x1247relevant_x1083L0AP1_x1305L0BP1_

>  <ROCS_TanimotoCombo>  (95) 
1.027 

>  <ROCS_ShapeTanimoto>  (95) 
0.520 

>  <ROCS_ColorTanimoto>  (95) 
0.508 

>  <ROCS_RefTversky>  (95) 
0.448 

>  <ROCS_RefColorTversky>  (95) 
0.695 

>  <ROCS_RefTverskyCombo>  (95) 
1.143 

>  <ROCS_FitTversky>  (95) 
1.447 

>  <ROCS_FitColorTversky>  (95) 
0.653 

>  <ROCS_FitTverskyCombo>  (95) 
2.099 

>  <ROCS_ColorScore>  (95) 
-6.745

>  <ROCS_Overlap>  (95) 
1104.904

>  <ROCS_Rank>  (95) 
310                 

>  <Score>  (95) 
-0.96460170178602311

$$$$
LIG
     RDKit          3D

 15 16  0  0  1  0  0  0  0  0999 V2000
  -10.0248   14.3506  -37.6059 C   0  0  0  0  0  0  0  0  0  0  0  0
  -13.3037   15.8382  -37.3438 C   0  0  0  0  0  0  0  0  0  0  0  0
  -12.1762   16.2874  -39.3847 C   0  0  0  0  0  0  0  0  0  0  0  0
  -12.4568   13.7168  -37.9728 C   0  0  0  0  0  0  0  0  0  0  0  0
  -13.6165   14.6732  -38.2968 C   0  0  2  0  0  0  0  0  0  0  0  0
  -11.8906   16.0226  -37.8948 C   0  0  2  0  0  0  0  0  0  0  0  0
  -13.3513   15.3257  -39.6726 C   0  0  1  0  0  0  0  0  0  0  0  0
   -9.4277   14.5449  -35.0631 C   0  0  0  0  0  0  0  0  0  0  0  0
   -9.7221   12.0594  -34.8501 C   0  0  0  0  0  0  0  0  0  0  0  0
   -7.6810   12.9844  -35.9844 C   0  0  0  0  0  0  0  0  0  0  0  0
   -9.1718   13.1886  -35.7187 C   0  0  0  0  0  0  0  0  0  0  0  0
  -11.3555   14.6611  -37.7906 N   0  0  0  0  0  0  0  0  0  0  0  0
   -9.0914   15.0633  -37.9666 O   0  0  0  0  0  0  0  0  0  0  0  0
  -14.4989   16.0512  -40.0888 O   0  0  0  0  0  0  0  0  0  0  0  0
   -9.8675   13.1487  -36.9697 O   0  0  0  0  0  0  0  0  0  0  0  0
  1 12  1  0
  1 13  2  0
  1 15  1  0
  2  5  1  0
  2  6  1  0
  6  3  1  6
  3  7  1  0
  5  4  1  1
  4 12  1  0
  5  7  1  0
  6 12  1  0
  7 14  1  1
  8 11  1  0
  9 11  1  0
 10 11  1  0
 11 15  1  0
M  END
>  <id>  (96) 
EN300-159836

>  <smiles>  (96) 
CC(C)(C)OC(=O)N1C[C@H]2C[C@@H]1CC2O

>  <MDLNUMBER>  (96) 
MFCD27959406

>  <IUPAC Name>  (96) 
tert-butyl (1R,4R)-5-hydroxy-2-azabicyclo[2.2.1]heptane-2-carboxylate

>  <CAS>  (96) 
406695-09-8

>  <URL>  (96) 
https://www.enaminestore.com/catalog/EN300-159836

>  <ROCS_ShapeQuery>  (96) 
_x1247relevant_x1083L0AP1_x1305L0BP1_

>  <ROCS_TanimotoCombo>  (96) 
1.027 

>  <ROCS_ShapeTanimoto>  (96) 
0.520 

>  <ROCS_ColorTanimoto>  (96) 
0.508 

>  <ROCS_RefTversky>  (96) 
0.448 

>  <ROCS_RefColorTversky>  (96) 
0.695 

>  <ROCS_RefTverskyCombo>  (96) 
1.143 

>  <ROCS_FitTversky>  (96) 
1.447 

>  <ROCS_FitColorTversky>  (96) 
0.653 

>  <ROCS_FitTverskyCombo>  (96) 
2.099 

>  <ROCS_ColorScore>  (96) 
-6.745

>  <ROCS_Overlap>  (96) 
1104.871

>  <ROCS_Rank>  (96) 
311                 

>  <Score>  (96) 
-0.74307277071238786

$$$$
LIG
     RDKit          3D

 11 13  0  0  1  0  0  0  0  0999 V2000
   -9.6973   14.0335  -36.0774 C   0  0  0  0  0  0  0  0  0  0  0  0
   -9.0348   14.8839  -36.9574 C   0  0  0  0  0  0  0  0  0  0  0  0
  -11.0757   13.8628  -36.1813 C   0  0  0  0  0  0  0  0  0  0  0  0
   -9.7505   15.5677  -37.9419 C   0  0  0  0  0  0  0  0  0  0  0  0
  -11.7977   14.5350  -37.1771 C   0  0  0  0  0  0  0  0  0  0  0  0
  -11.1399   15.4128  -38.0707 C   0  0  0  0  0  0  0  0  0  0  0  0
  -13.3020   14.3873  -37.2518 C   0  0  0  0  0  0  0  0  0  0  0  0
  -13.8451   14.4866  -38.6828 C   0  0  0  0  0  0  0  0  0  0  0  0
  -11.9177   16.1476  -39.1329 C   0  0  1  0  0  0  0  0  0  0  0  0
  -13.3058   15.6529  -39.4504 C   0  0  2  0  0  0  0  0  0  0  0  0
  -13.1016   16.8608  -38.7155 O   0  0  0  0  0  0  0  0  0  0  0  0
  1  2  2  0
  1  3  1  0
  2  4  1  0
  3  5  2  0
  4  6  2  0
  5  6  1  0
  5  7  1  0
  6  9  1  0
  7  8  1  0
 10  8  1  1
  9 10  1  0
  9 11  1  1
 10 11  1  0
M  END
>  <id>  (97) 
EN300-1703754

>  <smiles>  (97) 
C1CC=2C=CC=CC2[C@@H]3O[C@H]13 |&1:8,10,r|

>  <MDLNUMBER>  (97) 
MFCD31665676

>  <IUPAC Name>  (97) 
rac-(1aR,7bS)-1aH,2H,3H,7bH-naphtho[1,2-b]oxirene

>  <CAS>  (97) 
1807938-02-8

>  <Purity>  (97) 
95

>  <URL>  (97) 
https://www.enaminestore.com/catalog/EN300-1703754

>  <ROCS_ShapeQuery>  (97) 
_x1247relevant_x1083L0AP1_x1305L0BP1_

>  <ROCS_TanimotoCombo>  (97) 
1.027 

>  <ROCS_ShapeTanimoto>  (97) 
0.486 

>  <ROCS_ColorTanimoto>  (97) 
0.541 

>  <ROCS_RefTversky>  (97) 
0.407 

>  <ROCS_RefColorTversky>  (97) 
0.574 

>  <ROCS_RefTverskyCombo>  (97) 
0.981 

>  <ROCS_FitTversky>  (97) 
1.668 

>  <ROCS_FitColorTversky>  (97) 
0.903 

>  <ROCS_FitTverskyCombo>  (97) 
2.571 

>  <ROCS_ColorScore>  (97) 
-5.441

>  <ROCS_Overlap>  (97) 
999.461

>  <ROCS_Rank>  (97) 
320                 

>  <Score>  (97) 
-2.009330952066307

$$$$
LIG
     RDKit          3D

 12 14  0  0  1  0  0  0  0  0999 V2000
  -10.1487   16.1855  -37.9628 C   0  0  0  0  0  0  0  0  0  0  0  0
   -9.1250   15.4324  -37.3811 C   0  0  0  0  0  0  0  0  0  0  0  0
  -10.6739   13.6282  -36.8788 C   0  0  0  0  0  0  0  0  0  0  0  0
  -11.4325   15.6591  -38.0005 C   0  0  0  0  0  0  0  0  0  0  0  0
  -11.6820   14.3830  -37.4571 C   0  0  0  0  0  0  0  0  0  0  0  0
   -9.3861   14.1636  -36.8430 C   0  0  0  0  0  0  0  0  0  0  0  0
  -13.1344   13.9971  -37.6101 C   0  0  0  0  0  0  0  0  0  0  0  0
  -12.6870   16.2546  -38.5588 C   0  0  2  0  0  0  0  0  0  0  0  0
  -13.7589   15.2066  -38.2899 C   0  0  1  0  0  0  0  0  0  0  0  0
  -13.4107   15.5911  -39.7069 C   0  0  1  0  0  0  0  0  0  0  0  0
  -14.3627   16.3610  -40.5157 N   0  0  0  0  0  0  0  0  0  0  0  0
   -8.3885   13.4592  -36.2918 F   0  0  0  0  0  0  0  0  0  0  0  0
  1  2  2  0
  1  4  1  0
  2  6  1  0
  3  5  1  0
  3  6  2  0
  4  5  2  0
  8  4  1  6
  5  7  1  0
  6 12  1  0
  9  7  1  6
  8  9  1  0
  8 10  1  0
  9 10  1  0
 10 11  1  1
M  END
>  <id>  (98) 
EN300-299511

>  <smiles>  (98) 
NC1C2CC=3C=C(F)C=CC3C12

>  <MDLNUMBER>  (98) 
MFCD30345016

>  <IUPAC Name>  (98) 
4-fluoro-1H,1aH,6H,6aH-cyclopropa[a]inden-1-amine

>  <CAS>  (98) 
1989671-28-4

>  <URL>  (98) 
https://www.enaminestore.com/catalog/EN300-299511

>  <ROCS_ShapeQuery>  (98) 
_x1247relevant_x1083L0AP1_x1305L0BP1_

>  <ROCS_TanimotoCombo>  (98) 
1.024 

>  <ROCS_ShapeTanimoto>  (98) 
0.496 

>  <ROCS_ColorTanimoto>  (98) 
0.527 

>  <ROCS_RefTversky>  (98) 
0.419 

>  <ROCS_RefColorTversky>  (98) 
0.597 

>  <ROCS_RefTverskyCombo>  (98) 
1.016 

>  <ROCS_FitTversky>  (98) 
1.601 

>  <ROCS_FitColorTversky>  (98) 
0.818 

>  <ROCS_FitTverskyCombo>  (98) 
2.419 

>  <ROCS_ColorScore>  (98) 
-5.688

>  <ROCS_Overlap>  (98) 
1029.787

>  <ROCS_Rank>  (98) 
340                 

>  <Score>  (98) 
-4.2670010721845983

$$$$
LIG
     RDKit          3D

 12 14  0  0  1  0  0  0  0  0999 V2000
  -10.1487   16.1855  -37.9628 C   0  0  0  0  0  0  0  0  0  0  0  0
   -9.1250   15.4324  -37.3811 C   0  0  0  0  0  0  0  0  0  0  0  0
  -10.6739   13.6282  -36.8788 C   0  0  0  0  0  0  0  0  0  0  0  0
  -11.4325   15.6591  -38.0005 C   0  0  0  0  0  0  0  0  0  0  0  0
  -11.6820   14.3830  -37.4571 C   0  0  0  0  0  0  0  0  0  0  0  0
   -9.3861   14.1636  -36.8430 C   0  0  0  0  0  0  0  0  0  0  0  0
  -13.1344   13.9971  -37.6101 C   0  0  0  0  0  0  0  0  0  0  0  0
  -12.6870   16.2546  -38.5588 C   0  0  2  0  0  0  0  0  0  0  0  0
  -13.7589   15.2066  -38.2899 C   0  0  1  0  0  0  0  0  0  0  0  0
  -13.4107   15.5911  -39.7069 C   0  0  1  0  0  0  0  0  0  0  0  0
  -14.3627   16.3610  -40.5157 N   0  0  0  0  0  0  0  0  0  0  0  0
   -8.3885   13.4592  -36.2918 F   0  0  0  0  0  0  0  0  0  0  0  0
  1  2  2  0
  1  4  1  0
  2  6  1  0
  3  5  1  0
  3  6  2  0
  4  5  2  0
  8  4  1  6
  5  7  1  0
  6 12  1  0
  9  7  1  6
  8  9  1  0
  8 10  1  0
  9 10  1  0
 10 11  1  1
M  END
>  <id>  (99) 
EN300-306579

>  <smiles>  (99) 
Cl.NC1C2CC=3C=C(F)C=CC3C12

>  <MDLNUMBER>  (99) 
MFCD30342924

>  <IUPAC Name>  (99) 
4-fluoro-1H,1aH,6H,6aH-cyclopropa[a]inden-1-amine hydrochloride

>  <CAS>  (99) 
1989671-29-5

>  <Purity>  (99) 
95

>  <URL>  (99) 
https://www.enaminestore.com/catalog/EN300-306579

>  <Saltdate>  (99) 
Cl

>  <ROCS_ShapeQuery>  (99) 
_x1247relevant_x1083L0AP1_x1305L0BP1_

>  <ROCS_TanimotoCombo>  (99) 
1.024 

>  <ROCS_ShapeTanimoto>  (99) 
0.496 

>  <ROCS_ColorTanimoto>  (99) 
0.527 

>  <ROCS_RefTversky>  (99) 
0.419 

>  <ROCS_RefColorTversky>  (99) 
0.597 

>  <ROCS_RefTverskyCombo>  (99) 
1.016 

>  <ROCS_FitTversky>  (99) 
1.601 

>  <ROCS_FitColorTversky>  (99) 
0.818 

>  <ROCS_FitTverskyCombo>  (99) 
2.419 

>  <ROCS_ColorScore>  (99) 
-5.688

>  <ROCS_Overlap>  (99) 
1029.787

>  <ROCS_Rank>  (99) 
341                 

>  <Score>  (99) 
-4.2670010721845983

$$$$
LIG
     RDKit          3D

 10 12  0  0  1  0  0  0  0  0999 V2000
  -13.4859   15.5276  -37.2666 C   0  0  0  0  0  0  0  0  0  0  0  0
  -13.9303   14.3888  -39.2636 C   0  0  0  0  0  0  0  0  0  0  0  0
  -13.1032   14.2249  -37.9732 C   0  0  1  0  0  0  0  0  0  0  0  0
  -11.6413   14.4170  -38.3664 C   0  0  1  0  0  0  0  0  0  0  0  0
  -11.5777   15.8860  -38.7079 C   0  0  1  0  0  0  0  0  0  0  0  0
  -12.9918   16.3854  -38.4310 C   0  0  1  0  0  0  0  0  0  0  0  0
  -10.6617   15.3105  -37.6837 C   0  0  0  0  0  0  0  0  0  0  0  0
  -13.8580   15.8542  -39.5166 N   0  0  0  0  0  0  0  0  0  0  0  0
  -10.7612   15.6252  -36.3498 F   0  0  0  0  0  0  0  0  0  0  0  0
   -9.3173   15.1870  -37.9622 F   0  0  0  0  0  0  0  0  0  0  0  0
  1  3  1  0
  1  6  1  0
  3  2  1  6
  2  8  1  0
  3  4  1  0
  4  5  1  0
  4  7  1  1
  5  6  1  0
  5  7  1  1
  6  8  1  6
  7  9  1  0
  7 10  1  0
M  END
>  <id>  (100) 
EN300-1717549

>  <smiles>  (100) 
FC1(F)[C@@H]2[C@H]1[C@@H]3C[C@H]2CN3 |&1:3,4,5,7,r|

>  <MDLNUMBER>  (100) 
MFCD31690007

>  <IUPAC Name>  (100) 
rac-(1R,2S,4S,5S)-3,3-difluoro-6-azatricyclo[3.2.1.0,2,4]octane

>  <CAS>  (100) 
2227876-70-0

>  <URL>  (100) 
https://www.enaminestore.com/catalog/EN300-1717549

>  <ROCS_ShapeQuery>  (100) 
_x1247relevant_x1083L0AP1_x1305L0BP1_

>  <ROCS_TanimotoCombo>  (100) 
1.023 

>  <ROCS_ShapeTanimoto>  (100) 
0.467 

>  <ROCS_ColorTanimoto>  (100) 
0.557 

>  <ROCS_RefTversky>  (100) 
0.392 

>  <ROCS_RefColorTversky>  (100) 
1.017 

>  <ROCS_RefTverskyCombo>  (100) 
1.408 

>  <ROCS_FitTversky>  (100) 
1.695 

>  <ROCS_FitColorTversky>  (100) 
0.551 

>  <ROCS_FitTverskyCombo>  (100) 
2.247 

>  <ROCS_ColorScore>  (100) 
-10.309

>  <ROCS_Overlap>  (100) 
962.489

>  <ROCS_Rank>  (100) 
345                 

>  <Score>  (100) 
-0.065623361317989293

$$$$
LIG
     RDKit          3D

 10 12  0  0  1  0  0  0  0  0999 V2000
  -13.4859   15.5276  -37.2666 C   0  0  0  0  0  0  0  0  0  0  0  0
  -13.9303   14.3888  -39.2636 C   0  0  0  0  0  0  0  0  0  0  0  0
  -13.1032   14.2249  -37.9732 C   0  0  1  0  0  0  0  0  0  0  0  0
  -11.6413   14.4170  -38.3664 C   0  0  1  0  0  0  0  0  0  0  0  0
  -11.5777   15.8860  -38.7079 C   0  0  1  0  0  0  0  0  0  0  0  0
  -12.9918   16.3854  -38.4310 C   0  0  1  0  0  0  0  0  0  0  0  0
  -10.6617   15.3105  -37.6837 C   0  0  0  0  0  0  0  0  0  0  0  0
  -13.8580   15.8542  -39.5166 N   0  0  0  0  0  0  0  0  0  0  0  0
  -10.7612   15.6252  -36.3498 F   0  0  0  0  0  0  0  0  0  0  0  0
   -9.3173   15.1870  -37.9622 F   0  0  0  0  0  0  0  0  0  0  0  0
  1  3  1  0
  1  6  1  0
  3  2  1  6
  2  8  1  0
  3  4  1  0
  4  5  1  0
  4  7  1  1
  5  6  1  0
  5  7  1  1
  6  8  1  6
  7  9  1  0
  7 10  1  0
M  END
>  <id>  (101) 
EN300-1717548

>  <smiles>  (101) 
Cl.FC1(F)[C@@H]2[C@H]1[C@@H]3C[C@H]2CN3 |&1:4,5,6,8,r|

>  <MDLNUMBER>  (101) 
MFCD31690006

>  <IUPAC Name>  (101) 
rac-(1R,2S,4S,5S)-3,3-difluoro-6-azatricyclo[3.2.1.0,2,4]octane hydrochloride

>  <CAS>  (101) 
2227900-63-0

>  <Purity>  (101) 
95

>  <URL>  (101) 
https://www.enaminestore.com/catalog/EN300-1717548

>  <Saltdate>  (101) 
Cl

>  <ROCS_ShapeQuery>  (101) 
_x1247relevant_x1083L0AP1_x1305L0BP1_

>  <ROCS_TanimotoCombo>  (101) 
1.023 

>  <ROCS_ShapeTanimoto>  (101) 
0.467 

>  <ROCS_ColorTanimoto>  (101) 
0.557 

>  <ROCS_RefTversky>  (101) 
0.392 

>  <ROCS_RefColorTversky>  (101) 
1.017 

>  <ROCS_RefTverskyCombo>  (101) 
1.408 

>  <ROCS_FitTversky>  (101) 
1.695 

>  <ROCS_FitColorTversky>  (101) 
0.551 

>  <ROCS_FitTverskyCombo>  (101) 
2.247 

>  <ROCS_ColorScore>  (101) 
-10.309

>  <ROCS_Overlap>  (101) 
962.489

>  <ROCS_Rank>  (101) 
346                 

>  <Score>  (101) 
-0.065623361317989293

$$$$
LIG
     RDKit          3D

 15 16  0  0  1  0  0  0  0  0999 V2000
   -9.9813   14.4445  -37.6204 C   0  0  0  0  0  0  0  0  0  0  0  0
  -13.3341   15.7489  -37.3073 C   0  0  0  0  0  0  0  0  0  0  0  0
  -12.2140   16.3587  -39.3149 C   0  0  0  0  0  0  0  0  0  0  0  0
  -12.3751   13.7118  -38.0445 C   0  0  0  0  0  0  0  0  0  0  0  0
  -13.5830   14.6261  -38.3262 C   0  0  2  0  0  0  0  0  0  0  0  0
  -11.9279   16.0324  -37.8373 C   0  0  2  0  0  0  0  0  0  0  0  0
  -13.3442   15.3576  -39.6735 C   0  0  1  0  0  0  0  0  0  0  0  0
   -9.4137   14.5305  -35.0651 C   0  0  0  0  0  0  0  0  0  0  0  0
   -9.5831   12.0256  -34.9888 C   0  0  0  0  0  0  0  0  0  0  0  0
   -7.5833   13.1121  -36.0511 C   0  0  0  0  0  0  0  0  0  0  0  0
   -9.0844   13.2263  -35.7899 C   0  0  0  0  0  0  0  0  0  0  0  0
  -11.3247   14.6975  -37.8009 N   0  0  0  0  0  0  0  0  0  0  0  0
  -14.5383   16.0685  -40.1174 N   0  0  0  0  0  0  0  0  0  0  0  0
   -9.0825   15.2217  -37.9329 O   0  0  0  0  0  0  0  0  0  0  0  0
   -9.7679   13.2193  -37.0482 O   0  0  0  0  0  0  0  0  0  0  0  0
  1 12  1  0
  1 14  2  0
  1 15  1  0
  2  5  1  0
  2  6  1  0
  6  3  1  6
  3  7  1  0
  5  4  1  1
  4 12  1  0
  5  7  1  0
  6 12  1  0
  7 13  1  1
  8 11  1  0
  9 11  1  0
 10 11  1  0
 11 15  1  0
M  END
>  <id>  (102) 
EN300-27794

>  <smiles>  (102) 
CC(C)(C)OC(=O)N1CC2CC1CC2N

>  <IUPAC Name>  (102) 
tert-butyl 5-amino-2-azabicyclo[2.2.1]heptane-2-carboxylate

>  <CAS>  (102) 
207405-62-7

>  <Purity>  (102) 
95

>  <URL>  (102) 
https://www.enaminestore.com/catalog/EN300-27794

>  <ROCS_ShapeQuery>  (102) 
_x1247relevant_x1083L0AP1_x1305L0BP1_

>  <ROCS_TanimotoCombo>  (102) 
1.021 

>  <ROCS_ShapeTanimoto>  (102) 
0.517 

>  <ROCS_ColorTanimoto>  (102) 
0.505 

>  <ROCS_RefTversky>  (102) 
0.446 

>  <ROCS_RefColorTversky>  (102) 
0.693 

>  <ROCS_RefTverskyCombo>  (102) 
1.139 

>  <ROCS_FitTversky>  (102) 
1.444 

>  <ROCS_FitColorTversky>  (102) 
0.650 

>  <ROCS_FitTverskyCombo>  (102) 
2.094 

>  <ROCS_ColorScore>  (102) 
-6.719

>  <ROCS_Overlap>  (102) 
1099.868

>  <ROCS_Rank>  (102) 
363                 

>  <Score>  (102) 
-3.093282392746687

$$$$
LIG
     RDKit          3D

 12 14  0  0  0  0  0  0  0  0999 V2000
   -8.9485   14.8819  -37.0148 C   0  0  0  0  0  0  0  0  0  0  0  0
   -9.5873   14.1796  -35.9885 C   0  0  0  0  0  0  0  0  0  0  0  0
   -9.6867   15.4313  -38.0689 C   0  0  0  0  0  0  0  0  0  0  0  0
  -10.9699   14.0188  -36.0044 C   0  0  0  0  0  0  0  0  0  0  0  0
  -11.0758   15.2865  -38.1128 C   0  0  0  0  0  0  0  0  0  0  0  0
  -11.6899   14.5696  -37.0574 C   0  0  0  0  0  0  0  0  0  0  0  0
  -13.3347   16.5178  -38.5612 C   0  0  0  0  0  0  0  0  0  0  0  0
  -13.1138   14.7294  -39.6475 C   0  0  0  0  0  0  0  0  0  0  0  0
  -13.7532   15.0341  -38.2415 C   0  0  1  0  0  0  0  0  0  0  0  0
  -12.0856   15.8098  -39.1794 C   0  0  2  0  0  0  0  0  0  0  0  0
  -11.5656   16.5582  -40.3075 N   0  0  0  0  0  0  0  0  0  0  0  0
  -13.0757   14.4182  -37.0898 O   0  0  0  0  0  0  0  0  0  0  0  0
  1  2  2  0
  1  3  1  0
  2  4  1  0
  3  5  2  0
  4  6  2  0
  5  6  1  0
  5 10  1  0
  6 12  1  0
  9  7  1  1
  7 10  1  0
  8  9  1  0
  8 10  1  0
  9 12  1  0
 10 11  1  6
M  END
>  <id>  (103) 
EN300-37375530

>  <smiles>  (103) 
Cl.N[C@]1(C[C@H]2C1)C=3C=CC=CC3O2

>  <IUPAC Name>  (103) 
(1r)-8-oxatricyclo[7.1.1.0,2,7]undeca-2,4,6-trien-1-amine hydrochloride

>  <CAS>  (103) 
2751611-00-2

>  <URL>  (103) 
https://www.enaminestore.com/catalog/EN300-37375530

>  <ROCS_ShapeQuery>  (103) 
_x1247relevant_x1083L0AP1_x1305L0BP1_

>  <ROCS_TanimotoCombo>  (103) 
1.020 

>  <ROCS_ShapeTanimoto>  (103) 
0.515 

>  <ROCS_ColorTanimoto>  (103) 
0.505 

>  <ROCS_RefTversky>  (103) 
0.430 

>  <ROCS_RefColorTversky>  (103) 
0.683 

>  <ROCS_RefTverskyCombo>  (103) 
1.113 

>  <ROCS_FitTversky>  (103) 
1.625 

>  <ROCS_FitColorTversky>  (103) 
0.659 

>  <ROCS_FitTverskyCombo>  (103) 
2.284 

>  <ROCS_ColorScore>  (103) 
-6.616

>  <ROCS_Overlap>  (103) 
1058.100

>  <ROCS_Rank>  (103) 
372                 

>  <Score>  (103) 
-0.45736583609277659

$$$$
LIG
     RDKit          3D

 12 14  0  0  1  0  0  0  0  0999 V2000
  -10.1467   16.1818  -37.9622 C   0  0  0  0  0  0  0  0  0  0  0  0
   -9.1247   15.4280  -37.3785 C   0  0  0  0  0  0  0  0  0  0  0  0
  -10.6771   13.6274  -36.8739 C   0  0  0  0  0  0  0  0  0  0  0  0
  -11.4314   15.6576  -37.9998 C   0  0  0  0  0  0  0  0  0  0  0  0
  -11.6835   14.3829  -37.4543 C   0  0  0  0  0  0  0  0  0  0  0  0
   -9.3884   14.1606  -36.8382 C   0  0  0  0  0  0  0  0  0  0  0  0
  -13.1365   13.9993  -37.6076 C   0  0  0  0  0  0  0  0  0  0  0  0
  -12.6844   16.2544  -38.5601 C   0  0  2  0  0  0  0  0  0  0  0  0
  -13.7584   15.2087  -38.2900 C   0  0  1  0  0  0  0  0  0  0  0  0
  -13.4085   15.5900  -39.7074 C   0  0  1  0  0  0  0  0  0  0  0  0
  -14.3609   16.3590  -40.5171 N   0  0  0  0  0  0  0  0  0  0  0  0
   -8.1090   13.2536  -36.1264 Cl  0  0  0  0  0  0  0  0  0  0  0  0
  1  2  2  0
  1  4  1  0
  2  6  1  0
  3  5  1  0
  3  6  2  0
  4  5  2  0
  8  4  1  6
  5  7  1  0
  6 12  1  0
  9  7  1  6
  8  9  1  0
  8 10  1  0
  9 10  1  0
 10 11  1  1
M  END
>  <id>  (104) 
EN300-311704

>  <smiles>  (104) 
NC1C2CC=3C=C(Cl)C=CC3C12

>  <MDLNUMBER>  (104) 
MFCD30476171

>  <IUPAC Name>  (104) 
4-chloro-1H,1aH,6H,6aH-cyclopropa[a]inden-1-amine

>  <CAS>  (104) 
2044714-15-8

>  <URL>  (104) 
https://www.enaminestore.com/catalog/EN300-311704

>  <ROCS_ShapeQuery>  (104) 
_x1247relevant_x1083L0AP1_x1305L0BP1_

>  <ROCS_TanimotoCombo>  (104) 
1.020 

>  <ROCS_ShapeTanimoto>  (104) 
0.492 

>  <ROCS_ColorTanimoto>  (104) 
0.527 

>  <ROCS_RefTversky>  (104) 
0.415 

>  <ROCS_RefColorTversky>  (104) 
0.598 

>  <ROCS_RefTverskyCombo>  (104) 
1.012 

>  <ROCS_FitTversky>  (104) 
1.613 

>  <ROCS_FitColorTversky>  (104) 
0.818 

>  <ROCS_FitTverskyCombo>  (104) 
2.431 

>  <ROCS_ColorScore>  (104) 
-5.690

>  <ROCS_Overlap>  (104) 
1020.087

>  <ROCS_Rank>  (104) 
373                 

>  <Score>  (104) 
-4.4004931222825689

$$$$
LIG
     RDKit          3D

 12 14  0  0  1  0  0  0  0  0999 V2000
  -10.1467   16.1818  -37.9622 C   0  0  0  0  0  0  0  0  0  0  0  0
   -9.1247   15.4280  -37.3785 C   0  0  0  0  0  0  0  0  0  0  0  0
  -10.6771   13.6274  -36.8739 C   0  0  0  0  0  0  0  0  0  0  0  0
  -11.4314   15.6576  -37.9998 C   0  0  0  0  0  0  0  0  0  0  0  0
  -11.6835   14.3829  -37.4543 C   0  0  0  0  0  0  0  0  0  0  0  0
   -9.3884   14.1606  -36.8382 C   0  0  0  0  0  0  0  0  0  0  0  0
  -13.1365   13.9993  -37.6076 C   0  0  0  0  0  0  0  0  0  0  0  0
  -12.6844   16.2544  -38.5601 C   0  0  2  0  0  0  0  0  0  0  0  0
  -13.7584   15.2087  -38.2900 C   0  0  1  0  0  0  0  0  0  0  0  0
  -13.4085   15.5900  -39.7074 C   0  0  1  0  0  0  0  0  0  0  0  0
  -14.3609   16.3590  -40.5171 N   0  0  0  0  0  0  0  0  0  0  0  0
   -8.1090   13.2536  -36.1264 Cl  0  0  0  0  0  0  0  0  0  0  0  0
  1  2  2  0
  1  4  1  0
  2  6  1  0
  3  5  1  0
  3  6  2  0
  4  5  2  0
  8  4  1  6
  5  7  1  0
  6 12  1  0
  9  7  1  6
  8  9  1  0
  8 10  1  0
  9 10  1  0
 10 11  1  1
M  END
>  <id>  (105) 
EN300-315320

>  <smiles>  (105) 
Cl.NC1C2CC=3C=C(Cl)C=CC3C12

>  <MDLNUMBER>  (105) 
MFCD30476384

>  <IUPAC Name>  (105) 
4-chloro-1H,1aH,6H,6aH-cyclopropa[a]inden-1-amine hydrochloride

>  <CAS>  (105) 
2044714-16-9

>  <Purity>  (105) 
95

>  <URL>  (105) 
https://www.enaminestore.com/catalog/EN300-315320

>  <Saltdate>  (105) 
Cl

>  <ROCS_ShapeQuery>  (105) 
_x1247relevant_x1083L0AP1_x1305L0BP1_

>  <ROCS_TanimotoCombo>  (105) 
1.020 

>  <ROCS_ShapeTanimoto>  (105) 
0.492 

>  <ROCS_ColorTanimoto>  (105) 
0.527 

>  <ROCS_RefTversky>  (105) 
0.415 

>  <ROCS_RefColorTversky>  (105) 
0.598 

>  <ROCS_RefTverskyCombo>  (105) 
1.012 

>  <ROCS_FitTversky>  (105) 
1.613 

>  <ROCS_FitColorTversky>  (105) 
0.818 

>  <ROCS_FitTverskyCombo>  (105) 
2.431 

>  <ROCS_ColorScore>  (105) 
-5.690

>  <ROCS_Overlap>  (105) 
1020.087

>  <ROCS_Rank>  (105) 
374                 

>  <Score>  (105) 
-4.4004931222825689

$$$$
LIG
     RDKit          3D

 14 15  0  0  0  0  0  0  0  0999 V2000
   -9.9074   15.3328  -37.9202 C   0  0  0  0  0  0  0  0  0  0  0  0
  -13.4981   15.8264  -37.4872 C   0  0  0  0  0  0  0  0  0  0  0  0
  -13.2647   14.0808  -38.6121 C   0  0  0  0  0  0  0  0  0  0  0  0
  -11.8698   15.9993  -39.3660 C   0  0  0  0  0  0  0  0  0  0  0  0
  -12.3784   14.7191  -37.4780 C   0  0  1  0  0  0  0  0  0  0  0  0
  -13.3074   15.5920  -39.0249 C   0  0  2  0  0  0  0  0  0  0  0  0
   -7.4266   13.9972  -37.4508 C   0  0  0  0  0  0  0  0  0  0  0  0
   -8.6041   12.8771  -35.5355 C   0  0  0  0  0  0  0  0  0  0  0  0
   -9.4127   12.5135  -37.8855 C   0  0  0  0  0  0  0  0  0  0  0  0
   -8.7715   13.5063  -36.9169 C   0  0  0  0  0  0  0  0  0  0  0  0
  -11.2518   15.3416  -38.2128 N   0  0  0  0  0  0  0  0  0  0  0  0
   -9.0493   15.8854  -38.6036 O   0  0  0  0  0  0  0  0  0  0  0  0
  -14.3032   16.0414  -39.9403 O   0  0  0  0  0  0  0  0  0  0  0  0
   -9.6440   14.6329  -36.7750 O   0  0  0  0  0  0  0  0  0  0  0  0
  1 11  1  0
  1 12  2  0
  1 14  1  0
  5  2  1  6
  2  6  1  0
  3  5  1  0
  3  6  1  0
  4  6  1  0
  4 11  1  0
  5 11  1  0
  6 13  1  6
  7 10  1  0
  8 10  1  0
  9 10  1  0
 10 14  1  0
M  END
>  <id>  (106) 
EN300-37375337

>  <smiles>  (106) 
CC(C)(C)OC(=O)N1C[C@]2(O)C[C@H]1C2

>  <IUPAC Name>  (106) 
tert-butyl (4r)-4-hydroxy-2-azabicyclo[2.1.1]hexane-2-carboxylate

>  <CAS>  (106) 
2408971-50-4

>  <URL>  (106) 
https://www.enaminestore.com/catalog/EN300-37375337

>  <ROCS_ShapeQuery>  (106) 
_x1247relevant_x1083L0AP1_x1305L0BP1_

>  <ROCS_TanimotoCombo>  (106) 
1.018 

>  <ROCS_ShapeTanimoto>  (106) 
0.492 

>  <ROCS_ColorTanimoto>  (106) 
0.526 

>  <ROCS_RefTversky>  (106) 
0.426 

>  <ROCS_RefColorTversky>  (106) 
0.725 

>  <ROCS_RefTverskyCombo>  (106) 
1.151 

>  <ROCS_FitTversky>  (106) 
1.461 

>  <ROCS_FitColorTversky>  (106) 
0.657 

>  <ROCS_FitTverskyCombo>  (106) 
2.118 

>  <ROCS_ColorScore>  (106) 
-7.046

>  <ROCS_Overlap>  (106) 
1050.212

>  <ROCS_Rank>  (106) 
388                 

>  <Score>  (106) 
-2.2814310576650314

$$$$
LIG
     RDKit          3D

 14 15  0  0  0  0  0  0  0  0999 V2000
   -9.9068   15.3314  -37.9213 C   0  0  0  0  0  0  0  0  0  0  0  0
  -13.2652   14.0810  -38.6101 C   0  0  0  0  0  0  0  0  0  0  0  0
  -13.4970   15.8283  -37.4875 C   0  0  0  0  0  0  0  0  0  0  0  0
  -11.8694   15.9979  -39.3671 C   0  0  0  0  0  0  0  0  0  0  0  0
  -12.3780   14.7203  -37.4773 C   0  0  2  0  0  0  0  0  0  0  0  0
  -13.3071   15.5917  -39.0250 C   0  0  1  0  0  0  0  0  0  0  0  0
   -7.4270   13.9938  -37.4508 C   0  0  0  0  0  0  0  0  0  0  0  0
   -8.6054   12.8773  -35.5340 C   0  0  0  0  0  0  0  0  0  0  0  0
   -9.4146   12.5116  -37.8834 C   0  0  0  0  0  0  0  0  0  0  0  0
   -8.7724   13.5050  -36.9162 C   0  0  0  0  0  0  0  0  0  0  0  0
  -11.2513   15.3411  -38.2134 N   0  0  0  0  0  0  0  0  0  0  0  0
   -9.0483   15.8825  -38.6055 O   0  0  0  0  0  0  0  0  0  0  0  0
  -14.3030   16.0404  -39.9403 O   0  0  0  0  0  0  0  0  0  0  0  0
   -9.6438   14.6326  -36.7755 O   0  0  0  0  0  0  0  0  0  0  0  0
  1 11  1  0
  1 12  2  0
  1 14  1  0
  5  2  1  6
  2  6  1  0
  3  5  1  0
  3  6  1  0
  4  6  1  0
  4 11  1  0
  5 11  1  0
  6 13  1  6
  7 10  1  0
  8 10  1  0
  9 10  1  0
 10 14  1  0
M  END
>  <id>  (107) 
EN300-7455739

>  <smiles>  (107) 
CC(C)(C)OC(=O)N1CC2(O)CC1C2

>  <MDLNUMBER>  (107) 
MFCD32268559

>  <IUPAC Name>  (107) 
tert-butyl 4-hydroxy-2-azabicyclo[2.1.1]hexane-2-carboxylate

>  <CAS>  (107) 
2408971-50-4

>  <Purity>  (107) 
95

>  <URL>  (107) 
https://www.enaminestore.com/catalog/EN300-7455739

>  <ROCS_ShapeQuery>  (107) 
_x1247relevant_x1083L0AP1_x1305L0BP1_

>  <ROCS_TanimotoCombo>  (107) 
1.018 

>  <ROCS_ShapeTanimoto>  (107) 
0.492 

>  <ROCS_ColorTanimoto>  (107) 
0.526 

>  <ROCS_RefTversky>  (107) 
0.426 

>  <ROCS_RefColorTversky>  (107) 
0.725 

>  <ROCS_RefTverskyCombo>  (107) 
1.151 

>  <ROCS_FitTversky>  (107) 
1.460 

>  <ROCS_FitColorTversky>  (107) 
0.657 

>  <ROCS_FitTverskyCombo>  (107) 
2.118 

>  <ROCS_ColorScore>  (107) 
-7.046

>  <ROCS_Overlap>  (107) 
1050.185

>  <ROCS_Rank>  (107) 
389                 

>  <Score>  (107) 
-2.2748953666568923

$$$$
LIG
     RDKit          3D

 15 16  0  0  1  0  0  0  0  0999 V2000
  -10.2950   13.7709  -37.6196 C   0  0  0  0  0  0  0  0  0  0  0  0
  -13.4642   15.4748  -37.3282 C   0  0  0  0  0  0  0  0  0  0  0  0
  -13.2188   14.1792  -39.3030 C   0  0  0  0  0  0  0  0  0  0  0  0
  -11.2978   16.0563  -38.0907 C   0  0  0  0  0  0  0  0  0  0  0  0
  -12.7767   16.3704  -38.3714 C   0  0  1  0  0  0  0  0  0  0  0  0
  -12.7696   14.2098  -37.8303 C   0  0  1  0  0  0  0  0  0  0  0  0
  -13.1898   15.6755  -39.6889 C   0  0  2  0  0  0  0  0  0  0  0  0
   -8.9890   13.5850  -35.4655 C   0  0  0  0  0  0  0  0  0  0  0  0
   -6.9567   13.7132  -36.9361 C   0  0  0  0  0  0  0  0  0  0  0  0
   -8.0173   15.8235  -36.0818 C   0  0  0  0  0  0  0  0  0  0  0  0
   -8.2692   14.3898  -36.5467 C   0  0  0  0  0  0  0  0  0  0  0  0
  -11.3623   14.6221  -37.8138 N   0  0  0  0  0  0  0  0  0  0  0  0
  -10.4015   12.5689  -37.3889 O   0  0  0  0  0  0  0  0  0  0  0  0
  -14.4827   16.1151  -40.0785 O   0  0  0  0  0  0  0  0  0  0  0  0
   -9.0978   14.4280  -37.7139 O   0  0  0  0  0  0  0  0  0  0  0  0
  1 12  1  0
  1 13  2  0
  1 15  1  0
  2  5  1  0
  2  6  1  0
  6  3  1  6
  3  7  1  0
  5  4  1  1
  4 12  1  0
  5  7  1  0
  6 12  1  0
  7 14  1  1
  8 11  1  0
  9 11  1  0
 10 11  1  0
 11 15  1  0
M  END
>  <id>  (108) 
EN300-315884

>  <smiles>  (108) 
CC(C)(C)OC(=O)N1C[C@@H]2C[C@H]1C[C@H]2O |&1:9,11,13,r|

>  <IUPAC Name>  (108) 
rac-tert-butyl (1R,4R,5S)-5-hydroxy-2-azabicyclo[2.2.1]heptane-2-carboxylate

>  <CAS>  (108) 
198835-03-9

>  <Purity>  (108) 
95

>  <URL>  (108) 
https://www.enaminestore.com/catalog/EN300-315884

>  <MP>  (108) 
96-98

>  <ROCS_ShapeQuery>  (108) 
_x1247relevant_x1083L0AP1_x1305L0BP1_

>  <ROCS_TanimotoCombo>  (108) 
1.018 

>  <ROCS_ShapeTanimoto>  (108) 
0.496 

>  <ROCS_ColorTanimoto>  (108) 
0.522 

>  <ROCS_RefTversky>  (108) 
0.434 

>  <ROCS_RefColorTversky>  (108) 
0.708 

>  <ROCS_RefTverskyCombo>  (108) 
1.142 

>  <ROCS_FitTversky>  (108) 
1.403 

>  <ROCS_FitColorTversky>  (108) 
0.665 

>  <ROCS_FitTverskyCombo>  (108) 
2.067 

>  <ROCS_ColorScore>  (108) 
-6.867

>  <ROCS_Overlap>  (108) 
1071.414

>  <ROCS_Rank>  (108) 
391                 

>  <Score>  (108) 
-1.6561591934701028

$$$$
LIG
     RDKit          3D

 11 13  0  0  1  0  0  0  0  0999 V2000
   -9.3842   14.1675  -36.8358 C   0  0  0  0  0  0  0  0  0  0  0  0
   -9.1258   15.4395  -37.3677 C   0  0  0  0  0  0  0  0  0  0  0  0
  -10.6703   13.6282  -36.8773 C   0  0  0  0  0  0  0  0  0  0  0  0
  -10.1503   16.1919  -37.9488 C   0  0  0  0  0  0  0  0  0  0  0  0
  -11.6793   14.3824  -37.4550 C   0  0  0  0  0  0  0  0  0  0  0  0
  -11.4323   15.6616  -37.9921 C   0  0  0  0  0  0  0  0  0  0  0  0
  -13.1301   13.9926  -37.6135 C   0  0  0  0  0  0  0  0  0  0  0  0
  -12.6872   16.2557  -38.5512 C   0  0  2  0  0  0  0  0  0  0  0  0
  -13.7565   15.2031  -38.2897 C   0  0  1  0  0  0  0  0  0  0  0  0
  -13.4058   15.5949  -39.7040 C   0  0  1  0  0  0  0  0  0  0  0  0
  -14.3583   16.3656  -40.5118 N   0  0  0  0  0  0  0  0  0  0  0  0
  1  2  2  0
  1  3  1  0
  2  4  1  0
  3  5  2  0
  4  6  2  0
  5  6  1  0
  5  7  1  0
  8  6  1  6
  9  7  1  6
  8  9  1  0
  8 10  1  0
  9 10  1  0
 10 11  1  1
M  END
>  <id>  (109) 
EN300-148685

>  <smiles>  (109) 
NC1C2CC=3C=CC=CC3C12

>  <MDLNUMBER>  (109) 
MFCD19206679

>  <IUPAC Name>  (109) 
1H,1aH,6H,6aH-cyclopropa[a]inden-1-amine

>  <CAS>  (109) 
13280-42-7

>  <URL>  (109) 
https://www.enaminestore.com/catalog/EN300-148685

>  <ROCS_ShapeQuery>  (109) 
_x1247relevant_x1083L0AP1_x1305L0BP1_

>  <ROCS_TanimotoCombo>  (109) 
1.015 

>  <ROCS_ShapeTanimoto>  (109) 
0.487 

>  <ROCS_ColorTanimoto>  (109) 
0.527 

>  <ROCS_RefTversky>  (109) 
0.408 

>  <ROCS_RefColorTversky>  (109) 
0.597 

>  <ROCS_RefTverskyCombo>  (109) 
1.005 

>  <ROCS_FitTversky>  (109) 
1.674 

>  <ROCS_FitColorTversky>  (109) 
0.818 

>  <ROCS_FitTverskyCombo>  (109) 
2.492 

>  <ROCS_ColorScore>  (109) 
-5.689

>  <ROCS_Overlap>  (109) 
1001.766

>  <ROCS_Rank>  (109) 
419                 

>  <Score>  (109) 
-4.2605531232168232

$$$$
LIG
     RDKit          3D

 11 13  0  0  1  0  0  0  0  0999 V2000
   -9.3842   14.1675  -36.8358 C   0  0  0  0  0  0  0  0  0  0  0  0
   -9.1258   15.4395  -37.3677 C   0  0  0  0  0  0  0  0  0  0  0  0
  -10.6703   13.6282  -36.8773 C   0  0  0  0  0  0  0  0  0  0  0  0
  -10.1503   16.1919  -37.9488 C   0  0  0  0  0  0  0  0  0  0  0  0
  -11.6793   14.3824  -37.4550 C   0  0  0  0  0  0  0  0  0  0  0  0
  -11.4323   15.6616  -37.9921 C   0  0  0  0  0  0  0  0  0  0  0  0
  -13.1301   13.9926  -37.6135 C   0  0  0  0  0  0  0  0  0  0  0  0
  -12.6872   16.2557  -38.5512 C   0  0  2  0  0  0  0  0  0  0  0  0
  -13.7565   15.2031  -38.2897 C   0  0  1  0  0  0  0  0  0  0  0  0
  -13.4058   15.5949  -39.7040 C   0  0  1  0  0  0  0  0  0  0  0  0
  -14.3583   16.3656  -40.5118 N   0  0  0  0  0  0  0  0  0  0  0  0
  1  2  2  0
  1  3  1  0
  2  4  1  0
  3  5  2  0
  4  6  2  0
  5  6  1  0
  5  7  1  0
  8  6  1  6
  9  7  1  6
  8  9  1  0
  8 10  1  0
  9 10  1  0
 10 11  1  1
M  END
>  <id>  (110) 
EN300-109722

>  <smiles>  (110) 
Cl.NC1C2CC=3C=CC=CC3C12

>  <MDLNUMBER>  (110) 
MFCD22378692

>  <IUPAC Name>  (110) 
1H,1aH,6H,6aH-cyclopropa[a]inden-1-amine hydrochloride

>  <CAS>  (110) 
20392-69-2

>  <URL>  (110) 
https://www.enaminestore.com/catalog/EN300-109722

>  <Saltdate>  (110) 
Cl

>  <ROCS_ShapeQuery>  (110) 
_x1247relevant_x1083L0AP1_x1305L0BP1_

>  <ROCS_TanimotoCombo>  (110) 
1.015 

>  <ROCS_ShapeTanimoto>  (110) 
0.487 

>  <ROCS_ColorTanimoto>  (110) 
0.527 

>  <ROCS_RefTversky>  (110) 
0.408 

>  <ROCS_RefColorTversky>  (110) 
0.597 

>  <ROCS_RefTverskyCombo>  (110) 
1.005 

>  <ROCS_FitTversky>  (110) 
1.674 

>  <ROCS_FitColorTversky>  (110) 
0.818 

>  <ROCS_FitTverskyCombo>  (110) 
2.492 

>  <ROCS_ColorScore>  (110) 
-5.689

>  <ROCS_Overlap>  (110) 
1001.766

>  <ROCS_Rank>  (110) 
420                 

>  <Score>  (110) 
-4.2605531232168232

$$$$
LIG
     RDKit          3D

 11 13  0  0  1  0  0  0  0  0999 V2000
   -9.3842   14.1672  -36.8358 C   0  0  0  0  0  0  0  0  0  0  0  0
   -9.1259   15.4395  -37.3670 C   0  0  0  0  0  0  0  0  0  0  0  0
  -10.6702   13.6279  -36.8776 C   0  0  0  0  0  0  0  0  0  0  0  0
  -10.1503   16.1920  -37.9481 C   0  0  0  0  0  0  0  0  0  0  0  0
  -11.6792   14.3823  -37.4550 C   0  0  0  0  0  0  0  0  0  0  0  0
  -11.4323   15.6617  -37.9919 C   0  0  0  0  0  0  0  0  0  0  0  0
  -13.1300   13.9925  -37.6136 C   0  0  0  0  0  0  0  0  0  0  0  0
  -12.6870   16.2560  -38.5512 C   0  0  2  0  0  0  0  0  0  0  0  0
  -13.7566   15.2030  -38.2896 C   0  0  1  0  0  0  0  0  0  0  0  0
  -13.4058   15.5950  -39.7044 C   0  0  1  0  0  0  0  0  0  0  0  0
  -14.3585   16.3657  -40.5119 N   0  0  0  0  0  0  0  0  0  0  0  0
  1  2  2  0
  1  3  1  0
  2  4  1  0
  3  5  2  0
  4  6  2  0
  5  6  1  0
  5  7  1  0
  8  6  1  6
  9  7  1  6
  8  9  1  0
  8 10  1  0
  9 10  1  0
 10 11  1  1
M  END
>  <id>  (111) 
EN300-657405

>  <smiles>  (111) 
Cl.N[C@@H]1[C@H]2CC=3C=CC=CC3[C@@H]12 |&1:2,3,11,r|

>  <IUPAC Name>  (111) 
rac-(1R,1aS,6aS)-1H,1aH,6H,6aH-cyclopropa[a]inden-1-amine hydrochloride

>  <CAS>  (111) 
2137858-68-3

>  <Purity>  (111) 
95

>  <URL>  (111) 
https://www.enaminestore.com/catalog/EN300-657405

>  <Saltdate>  (111) 
Cl

>  <ROCS_ShapeQuery>  (111) 
_x1247relevant_x1083L0AP1_x1305L0BP1_

>  <ROCS_TanimotoCombo>  (111) 
1.015 

>  <ROCS_ShapeTanimoto>  (111) 
0.487 

>  <ROCS_ColorTanimoto>  (111) 
0.527 

>  <ROCS_RefTversky>  (111) 
0.407 

>  <ROCS_RefColorTversky>  (111) 
0.597 

>  <ROCS_RefTverskyCombo>  (111) 
1.005 

>  <ROCS_FitTversky>  (111) 
1.674 

>  <ROCS_FitColorTversky>  (111) 
0.818 

>  <ROCS_FitTverskyCombo>  (111) 
2.492 

>  <ROCS_ColorScore>  (111) 
-5.689

>  <ROCS_Overlap>  (111) 
1001.705

>  <ROCS_Rank>  (111) 
422                 

>  <Score>  (111) 
-4.2569433553892395

$$$$
LIG
     RDKit          3D

 11 13  0  0  1  0  0  0  0  0999 V2000
   -9.3842   14.1672  -36.8358 C   0  0  0  0  0  0  0  0  0  0  0  0
   -9.1259   15.4395  -37.3670 C   0  0  0  0  0  0  0  0  0  0  0  0
  -10.6702   13.6279  -36.8776 C   0  0  0  0  0  0  0  0  0  0  0  0
  -10.1503   16.1920  -37.9481 C   0  0  0  0  0  0  0  0  0  0  0  0
  -11.6792   14.3823  -37.4550 C   0  0  0  0  0  0  0  0  0  0  0  0
  -11.4323   15.6617  -37.9919 C   0  0  0  0  0  0  0  0  0  0  0  0
  -13.1300   13.9925  -37.6136 C   0  0  0  0  0  0  0  0  0  0  0  0
  -12.6870   16.2560  -38.5512 C   0  0  2  0  0  0  0  0  0  0  0  0
  -13.7566   15.2030  -38.2896 C   0  0  1  0  0  0  0  0  0  0  0  0
  -13.4058   15.5950  -39.7044 C   0  0  1  0  0  0  0  0  0  0  0  0
  -14.3585   16.3657  -40.5119 N   0  0  0  0  0  0  0  0  0  0  0  0
  1  2  2  0
  1  3  1  0
  2  4  1  0
  3  5  2  0
  4  6  2  0
  5  6  1  0
  5  7  1  0
  8  6  1  6
  9  7  1  6
  8  9  1  0
  8 10  1  0
  9 10  1  0
 10 11  1  1
M  END
>  <id>  (112) 
EN300-657406

>  <smiles>  (112) 
N[C@@H]1[C@H]2CC=3C=CC=CC3[C@@H]12 |&1:1,2,10,r|

>  <IUPAC Name>  (112) 
rac-(1R,1aS,6aS)-1H,1aH,6H,6aH-cyclopropa[a]inden-1-amine

>  <CAS>  (112) 
882188-75-2

>  <URL>  (112) 
https://www.enaminestore.com/catalog/EN300-657406

>  <ROCS_ShapeQuery>  (112) 
_x1247relevant_x1083L0AP1_x1305L0BP1_

>  <ROCS_TanimotoCombo>  (112) 
1.015 

>  <ROCS_ShapeTanimoto>  (112) 
0.487 

>  <ROCS_ColorTanimoto>  (112) 
0.527 

>  <ROCS_RefTversky>  (112) 
0.407 

>  <ROCS_RefColorTversky>  (112) 
0.597 

>  <ROCS_RefTverskyCombo>  (112) 
1.005 

>  <ROCS_FitTversky>  (112) 
1.674 

>  <ROCS_FitColorTversky>  (112) 
0.818 

>  <ROCS_FitTverskyCombo>  (112) 
2.492 

>  <ROCS_ColorScore>  (112) 
-5.689

>  <ROCS_Overlap>  (112) 
1001.705

>  <ROCS_Rank>  (112) 
423                 

>  <Score>  (112) 
-4.2569433553892395

$$$$
LIG
     RDKit          3D

 15 16  0  0  1  0  0  0  0  0999 V2000
   -9.8335   15.6135  -38.1356 C   0  0  0  0  0  0  0  0  0  0  0  0
  -12.8774   14.9569  -36.7971 C   0  0  0  0  0  0  0  0  0  0  0  0
  -13.8357   15.8840  -37.5759 C   0  0  0  0  0  0  0  0  0  0  0  0
  -13.0297   14.1880  -39.0433 C   0  0  0  0  0  0  0  0  0  0  0  0
  -12.0046   16.3228  -39.2462 C   0  0  0  0  0  0  0  0  0  0  0  0
  -12.0085   14.3562  -37.9148 C   0  0  1  0  0  0  0  0  0  0  0  0
  -13.3942   15.6804  -39.0458 C   0  0  2  0  0  0  0  0  0  0  0  0
   -9.4069   14.9874  -35.6285 C   0  0  0  0  0  0  0  0  0  0  0  0
   -8.6380   12.7152  -36.3735 C   0  0  0  0  0  0  0  0  0  0  0  0
   -7.1555   14.7128  -36.7195 C   0  0  0  0  0  0  0  0  0  0  0  0
   -8.5985   14.2130  -36.6685 C   0  0  0  0  0  0  0  0  0  0  0  0
  -11.1698   15.4427  -38.4303 N   0  0  0  0  0  0  0  0  0  0  0  0
  -14.3800   16.0934  -40.0143 N   0  0  0  0  0  0  0  0  0  0  0  0
   -9.2787   16.7060  -38.0455 O   0  0  0  0  0  0  0  0  0  0  0  0
   -9.1968   14.4155  -37.9536 O   0  0  0  0  0  0  0  0  0  0  0  0
  1 12  1  0
  1 14  2  0
  1 15  1  0
  2  3  1  0
  6  2  1  1
  3  7  1  0
  4  6  1  0
  4  7  1  0
  5  7  1  0
  5 12  1  0
  6 12  1  0
  7 13  1  6
  8 11  1  0
  9 11  1  0
 10 11  1  0
 11 15  1  0
M  END
>  <id>  (113) 
EN300-9500459

>  <smiles>  (113) 
CC(C)(C)OC(=O)N1CC2(N)CCC1C2

>  <MDLNUMBER>  (113) 
MFCD24644358

>  <IUPAC Name>  (113) 
tert-butyl 4-amino-2-azabicyclo[2.2.1]heptane-2-carboxylate

>  <CAS>  (113) 
1311390-88-1

>  <URL>  (113) 
https://www.enaminestore.com/catalog/EN300-9500459

>  <ROCS_ShapeQuery>  (113) 
_x1247relevant_x1083L0AP1_x1305L0BP1_

>  <ROCS_TanimotoCombo>  (113) 
1.014 

>  <ROCS_ShapeTanimoto>  (113) 
0.495 

>  <ROCS_ColorTanimoto>  (113) 
0.520 

>  <ROCS_RefTversky>  (113) 
0.433 

>  <ROCS_RefColorTversky>  (113) 
0.706 

>  <ROCS_RefTverskyCombo>  (113) 
1.139 

>  <ROCS_FitTversky>  (113) 
1.399 

>  <ROCS_FitColorTversky>  (113) 
0.663 

>  <ROCS_FitTverskyCombo>  (113) 
2.062 

>  <ROCS_ColorScore>  (113) 
-6.849

>  <ROCS_Overlap>  (113) 
1069.077

>  <ROCS_Rank>  (113) 
433                 

>  <Score>  (113) 
-0.72460333991011794

$$$$
LIG
     RDKit          3D

 15 16  0  0  1  0  0  0  0  0999 V2000
   -9.8335   15.6135  -38.1356 C   0  0  0  0  0  0  0  0  0  0  0  0
  -12.8774   14.9569  -36.7971 C   0  0  0  0  0  0  0  0  0  0  0  0
  -13.8357   15.8840  -37.5759 C   0  0  0  0  0  0  0  0  0  0  0  0
  -13.0297   14.1880  -39.0433 C   0  0  0  0  0  0  0  0  0  0  0  0
  -12.0046   16.3228  -39.2462 C   0  0  0  0  0  0  0  0  0  0  0  0
  -12.0085   14.3562  -37.9148 C   0  0  1  0  0  0  0  0  0  0  0  0
  -13.3942   15.6804  -39.0458 C   0  0  2  0  0  0  0  0  0  0  0  0
   -9.4069   14.9874  -35.6285 C   0  0  0  0  0  0  0  0  0  0  0  0
   -8.6380   12.7152  -36.3735 C   0  0  0  0  0  0  0  0  0  0  0  0
   -7.1555   14.7128  -36.7195 C   0  0  0  0  0  0  0  0  0  0  0  0
   -8.5985   14.2130  -36.6685 C   0  0  0  0  0  0  0  0  0  0  0  0
  -11.1698   15.4427  -38.4303 N   0  0  0  0  0  0  0  0  0  0  0  0
  -14.3800   16.0934  -40.0143 N   0  0  0  0  0  0  0  0  0  0  0  0
   -9.2787   16.7060  -38.0455 O   0  0  0  0  0  0  0  0  0  0  0  0
   -9.1968   14.4155  -37.9536 O   0  0  0  0  0  0  0  0  0  0  0  0
  1 12  1  0
  1 14  2  0
  1 15  1  0
  2  3  1  0
  6  2  1  1
  3  7  1  0
  4  6  1  0
  4  7  1  0
  5  7  1  0
  5 12  1  0
  6 12  1  0
  7 13  1  6
  8 11  1  0
  9 11  1  0
 10 11  1  0
 11 15  1  0
M  END
>  <id>  (114) 
EN300-27755210

>  <smiles>  (114) 
Cl.CC(C)(C)OC(=O)N1CC2(N)CCC1C2

>  <MDLNUMBER>  (114) 
MFCD33549249

>  <IUPAC Name>  (114) 
tert-butyl 4-amino-2-azabicyclo[2.2.1]heptane-2-carboxylate hydrochloride

>  <CAS>  (114) 
2639412-96-5

>  <Purity>  (114) 
95

>  <URL>  (114) 
https://www.enaminestore.com/catalog/EN300-27755210

>  <ROCS_ShapeQuery>  (114) 
_x1247relevant_x1083L0AP1_x1305L0BP1_

>  <ROCS_TanimotoCombo>  (114) 
1.014 

>  <ROCS_ShapeTanimoto>  (114) 
0.495 

>  <ROCS_ColorTanimoto>  (114) 
0.520 

>  <ROCS_RefTversky>  (114) 
0.433 

>  <ROCS_RefColorTversky>  (114) 
0.706 

>  <ROCS_RefTverskyCombo>  (114) 
1.139 

>  <ROCS_FitTversky>  (114) 
1.399 

>  <ROCS_FitColorTversky>  (114) 
0.663 

>  <ROCS_FitTverskyCombo>  (114) 
2.062 

>  <ROCS_ColorScore>  (114) 
-6.849

>  <ROCS_Overlap>  (114) 
1069.077

>  <ROCS_Rank>  (114) 
434                 

>  <Score>  (114) 
-0.72460333991011794

$$$$
LIG
     RDKit          3D

 12 14  0  0  1  0  0  0  0  0999 V2000
  -10.6819   13.6253  -36.8692 C   0  0  0  0  0  0  0  0  0  0  0  0
   -9.3927   14.1572  -36.8309 C   0  0  0  0  0  0  0  0  0  0  0  0
  -10.1468   16.1793  -37.9560 C   0  0  0  0  0  0  0  0  0  0  0  0
  -11.6864   14.3819  -37.4514 C   0  0  0  0  0  0  0  0  0  0  0  0
  -11.4320   15.6564  -37.9962 C   0  0  0  0  0  0  0  0  0  0  0  0
   -9.1268   15.4244  -37.3704 C   0  0  0  0  0  0  0  0  0  0  0  0
  -13.1395   13.9997  -37.6077 C   0  0  0  0  0  0  0  0  0  0  0  0
  -12.6833   16.2545  -38.5589 C   0  0  2  0  0  0  0  0  0  0  0  0
  -13.7588   15.2098  -38.2911 C   0  0  1  0  0  0  0  0  0  0  0  0
  -13.4058   15.5910  -39.7078 C   0  0  1  0  0  0  0  0  0  0  0  0
   -7.7388   15.9714  -37.3185 C   0  0  0  0  0  0  0  0  0  0  0  0
  -14.3539   16.3624  -40.5199 N   0  0  0  0  0  0  0  0  0  0  0  0
  1  2  2  0
  1  4  1  0
  2  6  1  0
  3  5  1  0
  3  6  2  0
  4  5  2  0
  4  7  1  0
  8  5  1  6
  6 11  1  0
  9  7  1  6
  8  9  1  0
  8 10  1  0
  9 10  1  0
 10 12  1  1
M  END
>  <id>  (115) 
EN300-372409

>  <smiles>  (115) 
CC=1C=CC=2CC3C(N)C3C2C1

>  <MDLNUMBER>  (115) 
MFCD30731009

>  <IUPAC Name>  (115) 
3-methyl-1H,1aH,6H,6aH-cyclopropa[a]inden-1-amine

>  <CAS>  (115) 
2137730-05-1

>  <URL>  (115) 
https://www.enaminestore.com/catalog/EN300-372409

>  <ROCS_ShapeQuery>  (115) 
_x1247relevant_x1083L0AP1_x1305L0BP1_

>  <ROCS_TanimotoCombo>  (115) 
1.013 

>  <ROCS_ShapeTanimoto>  (115) 
0.486 

>  <ROCS_ColorTanimoto>  (115) 
0.527 

>  <ROCS_RefTversky>  (115) 
0.412 

>  <ROCS_RefColorTversky>  (115) 
0.597 

>  <ROCS_RefTverskyCombo>  (115) 
1.009 

>  <ROCS_FitTversky>  (115) 
1.588 

>  <ROCS_FitColorTversky>  (115) 
0.818 

>  <ROCS_FitTverskyCombo>  (115) 
2.406 

>  <ROCS_ColorScore>  (115) 
-5.689

>  <ROCS_Overlap>  (115) 
1013.713

>  <ROCS_Rank>  (115) 
439                 

>  <Score>  (115) 
-4.5621444169785264

$$$$
LIG
     RDKit          3D

 12 14  0  0  1  0  0  0  0  0999 V2000
  -10.6748   13.6255  -36.8752 C   0  0  0  0  0  0  0  0  0  0  0  0
   -9.3875   14.1617  -36.8340 C   0  0  0  0  0  0  0  0  0  0  0  0
  -10.1483   16.1861  -37.9505 C   0  0  0  0  0  0  0  0  0  0  0  0
  -11.6818   14.3811  -37.4544 C   0  0  0  0  0  0  0  0  0  0  0  0
  -11.4316   15.6589  -37.9935 C   0  0  0  0  0  0  0  0  0  0  0  0
   -9.1258   15.4322  -37.3678 C   0  0  0  0  0  0  0  0  0  0  0  0
  -13.1335   13.9945  -37.6129 C   0  0  0  0  0  0  0  0  0  0  0  0
  -12.6848   16.2551  -38.5540 C   0  0  2  0  0  0  0  0  0  0  0  0
  -13.7568   15.2054  -38.2912 C   0  0  1  0  0  0  0  0  0  0  0  0
  -13.4046   15.5942  -39.7060 C   0  0  1  0  0  0  0  0  0  0  0  0
  -14.3545   16.3657  -40.5152 N   0  0  0  0  0  0  0  0  0  0  0  0
   -7.5268   16.0701  -37.3052 Cl  0  0  0  0  0  0  0  0  0  0  0  0
  1  2  2  0
  1  4  1  0
  2  6  1  0
  3  5  1  0
  3  6  2  0
  4  5  2  0
  4  7  1  0
  8  5  1  6
  6 12  1  0
  9  7  1  6
  8  9  1  0
  8 10  1  0
  9 10  1  0
 10 11  1  1
M  END
>  <id>  (116) 
EN300-7546564

>  <smiles>  (116) 
Cl.NC1C2CC=3C=CC(Cl)=CC3C12

>  <MDLNUMBER>  (116) 
MFCD32647930

>  <IUPAC Name>  (116) 
3-chloro-1H,1aH,6H,6aH-cyclopropa[a]inden-1-amine hydrochloride

>  <CAS>  (116) 
93507-10-9

>  <Purity>  (116) 
95

>  <URL>  (116) 
https://www.enaminestore.com/catalog/EN300-7546564

>  <Saltdate>  (116) 
Cl

>  <ROCS_ShapeQuery>  (116) 
_x1247relevant_x1083L0AP1_x1305L0BP1_

>  <ROCS_TanimotoCombo>  (116) 
1.012 

>  <ROCS_ShapeTanimoto>  (116) 
0.485 

>  <ROCS_ColorTanimoto>  (116) 
0.527 

>  <ROCS_RefTversky>  (116) 
0.410 

>  <ROCS_RefColorTversky>  (116) 
0.597 

>  <ROCS_RefTverskyCombo>  (116) 
1.008 

>  <ROCS_FitTversky>  (116) 
1.597 

>  <ROCS_FitColorTversky>  (116) 
0.818 

>  <ROCS_FitTverskyCombo>  (116) 
2.415 

>  <ROCS_ColorScore>  (116) 
-5.689

>  <ROCS_Overlap>  (116) 
1009.710

>  <ROCS_Rank>  (116) 
447                 

>  <Score>  (116) 
-4.4879357572880281

$$$$
LIG
     RDKit          3D

 12 14  0  0  1  0  0  0  0  0999 V2000
  -10.6748   13.6255  -36.8752 C   0  0  0  0  0  0  0  0  0  0  0  0
   -9.3875   14.1617  -36.8340 C   0  0  0  0  0  0  0  0  0  0  0  0
  -10.1483   16.1861  -37.9505 C   0  0  0  0  0  0  0  0  0  0  0  0
  -11.6818   14.3811  -37.4544 C   0  0  0  0  0  0  0  0  0  0  0  0
  -11.4316   15.6589  -37.9935 C   0  0  0  0  0  0  0  0  0  0  0  0
   -9.1258   15.4322  -37.3678 C   0  0  0  0  0  0  0  0  0  0  0  0
  -13.1335   13.9945  -37.6129 C   0  0  0  0  0  0  0  0  0  0  0  0
  -12.6848   16.2551  -38.5540 C   0  0  2  0  0  0  0  0  0  0  0  0
  -13.7568   15.2054  -38.2912 C   0  0  1  0  0  0  0  0  0  0  0  0
  -13.4046   15.5942  -39.7060 C   0  0  1  0  0  0  0  0  0  0  0  0
  -14.3545   16.3657  -40.5152 N   0  0  0  0  0  0  0  0  0  0  0  0
   -7.5268   16.0701  -37.3052 Cl  0  0  0  0  0  0  0  0  0  0  0  0
  1  2  2  0
  1  4  1  0
  2  6  1  0
  3  5  1  0
  3  6  2  0
  4  5  2  0
  4  7  1  0
  8  5  1  6
  6 12  1  0
  9  7  1  6
  8  9  1  0
  8 10  1  0
  9 10  1  0
 10 11  1  1
M  END
>  <id>  (117) 
EN300-7546565

>  <smiles>  (117) 
NC1C2CC=3C=CC(Cl)=CC3C12

>  <MDLNUMBER>  (117) 
MFCD32648955

>  <IUPAC Name>  (117) 
3-chloro-1H,1aH,6H,6aH-cyclopropa[a]inden-1-amine

>  <CAS>  (117) 
803638-06-4

>  <URL>  (117) 
https://www.enaminestore.com/catalog/EN300-7546565

>  <ROCS_ShapeQuery>  (117) 
_x1247relevant_x1083L0AP1_x1305L0BP1_

>  <ROCS_TanimotoCombo>  (117) 
1.012 

>  <ROCS_ShapeTanimoto>  (117) 
0.485 

>  <ROCS_ColorTanimoto>  (117) 
0.527 

>  <ROCS_RefTversky>  (117) 
0.410 

>  <ROCS_RefColorTversky>  (117) 
0.597 

>  <ROCS_RefTverskyCombo>  (117) 
1.008 

>  <ROCS_FitTversky>  (117) 
1.597 

>  <ROCS_FitColorTversky>  (117) 
0.818 

>  <ROCS_FitTverskyCombo>  (117) 
2.415 

>  <ROCS_ColorScore>  (117) 
-5.689

>  <ROCS_Overlap>  (117) 
1009.710

>  <ROCS_Rank>  (117) 
448                 

>  <Score>  (117) 
-4.4879357572880281

$$$$
LIG
     RDKit          3D

 10 12  0  0  0  0  0  0  0  0999 V2000
   -9.9245   15.2265  -37.8834 C   0  0  0  0  0  0  0  0  0  0  0  0
  -13.3432   15.8453  -37.4114 C   0  0  0  0  0  0  0  0  0  0  0  0
  -13.1710   14.0512  -38.4897 C   0  0  0  0  0  0  0  0  0  0  0  0
  -11.8795   15.9764  -39.4410 C   0  0  0  0  0  0  0  0  0  0  0  0
  -11.3687   14.1827  -36.3753 C   0  0  0  0  0  0  0  0  0  0  0  0
  -13.2918   15.5576  -38.9701 C   0  0  2  0  0  0  0  0  0  0  0  0
  -12.2044   14.7600  -37.4693 C   0  0  2  0  0  0  0  0  0  0  0  0
  -11.1938   15.3678  -38.3194 N   0  0  0  0  0  0  0  0  0  0  0  0
   -8.8921   15.6313  -38.3939 O   0  0  0  0  0  0  0  0  0  0  0  0
   -9.9834   14.5127  -36.7050 O   0  0  0  0  0  0  0  0  0  0  0  0
  1  8  1  0
  1  9  2  0
  1 10  1  0
  6  2  1  1
  2  7  1  0
  3  6  1  0
  3  7  1  0
  4  6  1  0
  4  8  1  0
  7  5  1  1
  5 10  1  0
  7  8  1  0
M  END
>  <id>  (118) 
EN300-7680732

>  <smiles>  (118) 
O=C1OCC2(CC3C2)N1C3

>  <MDLNUMBER>  (118) 
MFCD18821537

>  <IUPAC Name>  (118) 
3-oxa-5-azatricyclo[5.1.1.0,1,5]nonan-4-one

>  <CAS>  (118) 
637740-07-9

>  <Purity>  (118) 
95

>  <URL>  (118) 
https://www.enaminestore.com/catalog/EN300-7680732

>  <ROCS_ShapeQuery>  (118) 
_x1247relevant_x1083L0AP1_x1305L0BP1_

>  <ROCS_TanimotoCombo>  (118) 
1.011 

>  <ROCS_ShapeTanimoto>  (118) 
0.457 

>  <ROCS_ColorTanimoto>  (118) 
0.554 

>  <ROCS_RefTversky>  (118) 
0.387 

>  <ROCS_RefColorTversky>  (118) 
0.688 

>  <ROCS_RefTverskyCombo>  (118) 
1.075 

>  <ROCS_FitTversky>  (118) 
1.651 

>  <ROCS_FitColorTversky>  (118) 
0.740 

>  <ROCS_FitTverskyCombo>  (118) 
2.391 

>  <ROCS_ColorScore>  (118) 
-6.627

>  <ROCS_Overlap>  (118) 
950.890

>  <ROCS_Rank>  (118) 
464                 

>  <Score>  (118) 
-0.69943409276675084

$$$$
LIG
     RDKit          3D

 12 14  0  0  1  0  0  0  0  0999 V2000
   -9.7702   14.0100  -36.0822 C   0  0  0  0  0  0  0  0  0  0  0  0
   -9.0411   14.8266  -36.9457 C   0  0  0  0  0  0  0  0  0  0  0  0
  -11.1563   13.8923  -36.2266 C   0  0  0  0  0  0  0  0  0  0  0  0
   -9.6948   15.5247  -37.9562 C   0  0  0  0  0  0  0  0  0  0  0  0
  -11.8407   14.5865  -37.2337 C   0  0  0  0  0  0  0  0  0  0  0  0
  -11.0784   15.3949  -38.0852 C   0  0  0  0  0  0  0  0  0  0  0  0
  -13.0590   16.0896  -39.4311 C   0  0  0  0  0  0  0  0  0  0  0  0
  -13.3183   14.4937  -37.4083 C   0  0  1  0  0  0  0  0  0  0  0  0
  -13.9185   15.3432  -38.4925 C   0  0  2  0  0  0  0  0  0  0  0  0
  -13.5355   16.6657  -40.4010 O   0  0  0  0  0  0  0  0  0  0  0  0
  -11.6857   16.1144  -39.1474 O   0  0  0  0  0  0  0  0  0  0  0  0
  -13.8154   13.9196  -38.6287 O   0  0  0  0  0  0  0  0  0  0  0  0
  1  2  2  0
  1  3  1  0
  2  4  1  0
  3  5  2  0
  4  6  2  0
  5  6  1  0
  5  8  1  0
  6 11  1  0
  7  9  1  0
  7 10  2  0
  7 11  1  0
  8  9  1  0
  8 12  1  6
  9 12  1  6
M  END
>  <id>  (119) 
EN300-22980934

>  <smiles>  (119) 
O=C1OC=2C=CC=CC2C3OC31

>  <MDLNUMBER>  (119) 
MFCD31726037

>  <IUPAC Name>  (119) 
3,6-dioxatricyclo[5.4.0.0,2,4]undeca-1(11),7,9-trien-5-one

>  <CAS>  (119) 
143873-69-2

>  <Purity>  (119) 
95

>  <URL>  (119) 
https://www.enaminestore.com/catalog/EN300-22980934

>  <ROCS_ShapeQuery>  (119) 
_x1247relevant_x1083L0AP1_x1305L0BP1_

>  <ROCS_TanimotoCombo>  (119) 
1.009 

>  <ROCS_ShapeTanimoto>  (119) 
0.519 

>  <ROCS_ColorTanimoto>  (119) 
0.490 

>  <ROCS_RefTversky>  (119) 
0.433 

>  <ROCS_RefColorTversky>  (119) 
0.571 

>  <ROCS_RefTverskyCombo>  (119) 
1.003 

>  <ROCS_FitTversky>  (119) 
1.623 

>  <ROCS_FitColorTversky>  (119) 
0.777 

>  <ROCS_FitTverskyCombo>  (119) 
2.400 

>  <ROCS_ColorScore>  (119) 
-5.434

>  <ROCS_Overlap>  (119) 
1064.943

>  <ROCS_Rank>  (119) 
477                 

>  <Score>  (119) 
-0.21859443272057888

$$$$
LIG
     RDKit          3D

  7  8  0  0  0  0  0  0  0  0999 V2000
  -15.2021   14.1112  -40.5257 C   0  0  0  0  0  0  0  0  0  0  0  0
  -14.3343   14.4923  -39.7890 C   0  0  0  0  0  0  0  0  0  0  0  0
  -13.3898   16.0896  -37.8882 C   0  0  0  0  0  0  0  0  0  0  0  0
  -11.9254   15.5051  -39.3113 C   0  0  0  0  0  0  0  0  0  0  0  0
  -12.5766   14.1285  -37.8308 C   0  0  0  0  0  0  0  0  0  0  0  0
  -11.9185   15.5541  -37.7393 C   0  0  0  0  0  0  0  0  0  0  0  0
  -13.3179   14.9390  -38.9267 C   0  0  0  0  0  0  0  0  0  0  0  0
  1  2  3  0
  2  7  1  0
  3  6  1  0
  3  7  1  0
  4  6  1  0
  4  7  1  0
  5  6  1  0
  5  7  1  0
M  END
>  <id>  (120) 
EN300-24492403

>  <smiles>  (120) 
C#CC1(CC2C1)C2

>  <MDLNUMBER>  (120) 
MFCD30803400

>  <IUPAC Name>  (120) 
1-ethynylbicyclo[1.1.1]pentane

>  <CAS>  (120) 
127867-25-8

>  <Purity>  (120) 
95

>  <URL>  (120) 
https://www.enaminestore.com/catalog/EN300-24492403

>  <ROCS_ShapeQuery>  (120) 
_x1247relevant_x1083L0AP1_x1305L0BP1_

>  <ROCS_TanimotoCombo>  (120) 
1.008 

>  <ROCS_ShapeTanimoto>  (120) 
0.335 

>  <ROCS_ColorTanimoto>  (120) 
0.673 

>  <ROCS_RefTversky>  (120) 
0.293 

>  <ROCS_RefColorTversky>  (120) 
0.762 

>  <ROCS_RefTverskyCombo>  (120) 
1.055 

>  <ROCS_FitTversky>  (120) 
1.729 

>  <ROCS_FitColorTversky>  (120) 
0.853 

>  <ROCS_FitTverskyCombo>  (120) 
2.582 

>  <ROCS_ColorScore>  (120) 
-7.320

>  <ROCS_Overlap>  (120) 
717.892

>  <ROCS_Rank>  (120) 
496                 

>  <Score>  (120) 
-3.1474031949828714

$$$$
LIG
     RDKit          3D

  7  8  0  0  0  0  0  0  0  0999 V2000
  -15.2021   14.1112  -40.5257 C   0  0  0  0  0  0  0  0  0  0  0  0
  -14.3343   14.4923  -39.7890 C   0  0  0  0  0  0  0  0  0  0  0  0
  -13.3898   16.0896  -37.8882 C   0  0  0  0  0  0  0  0  0  0  0  0
  -11.9254   15.5051  -39.3113 C   0  0  0  0  0  0  0  0  0  0  0  0
  -12.5766   14.1285  -37.8308 C   0  0  0  0  0  0  0  0  0  0  0  0
  -11.9185   15.5541  -37.7393 C   0  0  0  0  0  0  0  0  0  0  0  0
  -13.3179   14.9390  -38.9267 C   0  0  0  0  0  0  0  0  0  0  0  0
  1  2  3  0
  2  7  1  0
  3  6  1  0
  3  7  1  0
  4  6  1  0
  4  7  1  0
  5  6  1  0
  5  7  1  0
M  END
>  <id>  (121) 
EN300-36600496

>  <smiles>  (121) 
C#C[C@]1(C[C@H]2C1)C2

>  <IUPAC Name>  (121) 
1-ethynylbicyclo[1.1.1]pentane

>  <CAS>  (121) 
127867-25-8

>  <URL>  (121) 
https://www.enaminestore.com/catalog/EN300-36600496

>  <ROCS_ShapeQuery>  (121) 
_x1247relevant_x1083L0AP1_x1305L0BP1_

>  <ROCS_TanimotoCombo>  (121) 
1.008 

>  <ROCS_ShapeTanimoto>  (121) 
0.335 

>  <ROCS_ColorTanimoto>  (121) 
0.673 

>  <ROCS_RefTversky>  (121) 
0.293 

>  <ROCS_RefColorTversky>  (121) 
0.762 

>  <ROCS_RefTverskyCombo>  (121) 
1.055 

>  <ROCS_FitTversky>  (121) 
1.729 

>  <ROCS_FitColorTversky>  (121) 
0.853 

>  <ROCS_FitTverskyCombo>  (121) 
2.582 

>  <ROCS_ColorScore>  (121) 
-7.320

>  <ROCS_Overlap>  (121) 
717.892

>  <ROCS_Rank>  (121) 
497                 

>  <Score>  (121) 
-3.1474031949828714

$$$$
