untitled-dbase-34702_0
  -OEChem-06232314403D

 26 28  0     1  0  0  0  0  0999 V2000
   -9.7330   14.5887  -36.4402 C   0  0  0  0  0  0  0  0  0  0  0  0
  -10.5640   15.8628  -36.4708 C   0  0  0  0  0  0  0  0  0  0  0  0
  -10.6378   13.5606  -37.1024 C   0  0  0  0  0  0  0  0  0  0  0  0
  -13.4352   14.9388  -37.3441 C   0  0  0  0  0  0  0  0  0  0  0  0
  -13.2522   16.2927  -39.2828 C   0  0  0  0  0  0  0  0  0  0  0  0
  -11.2571   15.8247  -37.8339 C   0  0  1  0  0  0  0  0  0  0  0  0
  -11.2964   14.3314  -38.2472 C   0  0  2  0  0  0  0  0  0  0  0  0
  -12.7498   16.2201  -37.8237 C   0  0  2  0  0  0  0  0  0  0  0  0
  -12.8067   14.0709  -38.4441 C   0  0  2  0  0  0  0  0  0  0  0  0
  -13.2318   14.8200  -39.7224 C   0  0  1  0  0  0  0  0  0  0  0  0
  -14.9901   14.2335  -40.3174 Br  0  0  0  0  0  0  0  0  0  0  0  0
   -8.8155   14.7201  -37.0260 H   0  0  0  0  0  0  0  0  0  0  0  0
   -9.4516   14.3009  -35.4233 H   0  0  0  0  0  0  0  0  0  0  0  0
  -11.2862   15.8656  -35.6464 H   0  0  0  0  0  0  0  0  0  0  0  0
   -9.9402   16.7554  -36.3596 H   0  0  0  0  0  0  0  0  0  0  0  0
  -10.0717   12.6984  -37.4687 H   0  0  0  0  0  0  0  0  0  0  0  0
  -11.3756   13.1846  -36.3848 H   0  0  0  0  0  0  0  0  0  0  0  0
  -13.1523   14.6407  -36.3308 H   0  0  0  0  0  0  0  0  0  0  0  0
  -14.5273   14.9934  -37.3960 H   0  0  0  0  0  0  0  0  0  0  0  0
  -14.2538   16.7359  -39.3172 H   0  0  0  0  0  0  0  0  0  0  0  0
  -12.5924   16.9072  -39.9046 H   0  0  0  0  0  0  0  0  0  0  0  0
  -10.6863   16.4173  -38.5588 H   0  0  0  0  0  0  0  0  0  0  0  0
  -10.7322   14.1675  -39.1733 H   0  0  0  0  0  0  0  0  0  0  0  0
  -12.9695   17.1175  -37.2416 H   0  0  0  0  0  0  0  0  0  0  0  0
  -13.0798   13.0137  -38.4117 H   0  0  0  0  0  0  0  0  0  0  0  0
  -12.5600   14.6449  -40.5682 H   0  0  0  0  0  0  0  0  0  0  0  0
  1  2  1  0  0  0  0
  1  3  1  0  0  0  0
  2  6  1  0  0  0  0
  3  7  1  0  0  0  0
  4  8  1  0  0  0  0
  4  9  1  0  0  0  0
  5  8  1  1  0  0  0
  5 10  1  0  0  0  0
  6  7  1  0  0  0  0
  6  8  1  0  0  0  0
  7  9  1  0  0  0  0
  9 10  1  1  0  0  0
 10 11  1  0  0  0  0
  1 12  1  0  0  0  0
  1 13  1  0  0  0  0
  2 14  1  0  0  0  0
  2 15  1  0  0  0  0
  3 16  1  0  0  0  0
  3 17  1  0  0  0  0
  4 18  1  0  0  0  0
  4 19  1  0  0  0  0
  5 20  1  0  0  0  0
  5 21  1  0  0  0  0
  6 22  1  0  0  0  0
  7 23  1  0  0  0  0
  8 24  1  0  0  0  0
  9 25  1  0  0  0  0
 10 26  1  0  0  0  0
M  END
> <id>
EN300-37476098

> <smiles>
BrC1C[C@H]2C[C@@H]1C3CCCC23

> <IUPAC Name>
(1R,7R)-8-bromotricyclo[5.2.1.0,2,6]decane

> <URL>
https://www.enaminestore.com/catalog/EN300-37476098

> <ROCS_ShapeQuery>
_x1247relevant_x1083L0AP1_x1305L0BP1_

> <ROCS_TanimotoCombo>
1.211 

> <ROCS_ShapeTanimoto>
0.491 

> <ROCS_ColorTanimoto>
0.720 

> <ROCS_RefTversky>
0.407 

> <ROCS_RefColorTversky>
0.788 

> <ROCS_RefTverskyCombo>
1.196 

> <ROCS_FitTversky>
1.717 

> <ROCS_FitColorTversky>
0.892 

> <ROCS_FitTverskyCombo>
2.610 

> <ROCS_ColorScore>
-7.570

> <ROCS_Overlap>
1001.106

> <ROCS_Rank>
1                   

$$$$
untitled-dbase-42650_0
  -OEChem-06232314403D

 24 26  0     1  0  0  0  0  0999 V2000
   -9.0843   15.4577  -37.2314 C   0  0  0  0  0  0  0  0  0  0  0  0
   -9.3401   14.0901  -36.9868 C   0  0  0  0  0  0  0  0  0  0  0  0
  -10.1025   16.3249  -37.6406 C   0  0  0  0  0  0  0  0  0  0  0  0
  -10.6216   13.5540  -37.1423 C   0  0  0  0  0  0  0  0  0  0  0  0
  -11.3603   15.7879  -37.7789 C   0  0  0  0  0  0  0  0  0  0  0  0
  -11.6160   14.4254  -37.5293 C   0  0  0  0  0  0  0  0  0  0  0  0
  -13.5735   15.4575  -37.3470 C   0  0  0  0  0  0  0  0  0  0  0  0
  -13.1760   14.1996  -39.2887 C   0  0  0  0  0  0  0  0  0  0  0  0
  -12.6814   16.3456  -38.2408 C   0  0  2  0  0  0  0  0  0  0  0  0
  -12.9695   15.7205  -39.6340 C   0  0  2  0  0  0  0  0  0  0  0  0
  -13.0168   14.1478  -37.8011 N   0  0  1  0  0  0  0  0  0  0  0  0
  -14.1692   16.2816  -40.2425 N   0  0  0  0  0  0  0  0  0  0  0  0
   -8.0738   15.8392  -37.1069 H   0  0  0  0  0  0  0  0  0  0  0  0
   -8.5220   13.4440  -36.6781 H   0  0  0  0  0  0  0  0  0  0  0  0
   -9.9012   17.3694  -37.8448 H   0  0  0  0  0  0  0  0  0  0  0  0
  -10.8157   12.5032  -36.9649 H   0  0  0  0  0  0  0  0  0  0  0  0
  -13.4365   15.6152  -36.2675 H   0  0  0  0  0  0  0  0  0  0  0  0
  -14.6431   15.5384  -37.5748 H   0  0  0  0  0  0  0  0  0  0  0  0
  -14.1801   13.8481  -39.5543 H   0  0  0  0  0  0  0  0  0  0  0  0
  -12.4501   13.5603  -39.8063 H   0  0  0  0  0  0  0  0  0  0  0  0
  -12.8042   17.4236  -38.1282 H   0  0  0  0  0  0  0  0  0  0  0  0
  -12.1197   15.8471  -40.3156 H   0  0  0  0  0  0  0  0  0  0  0  0
  -14.0115   17.2474  -40.4137 H   0  0  0  0  0  0  0  0  0  0  0  0
  -14.3425   15.8003  -41.0941 H   0  0  0  0  0  0  0  0  0  0  0  0
  1  2  2  0  0  0  0
  1  3  1  0  0  0  0
  2  4  1  0  0  0  0
  3  5  2  0  0  0  0
  4  6  2  0  0  0  0
  5  6  1  0  0  0  0
  5  9  1  0  0  0  0
  6 11  1  0  0  0  0
  7  9  1  0  0  0  0
  7 11  1  0  0  0  0
  8 10  1  0  0  0  0
  8 11  1  0  0  0  0
  9 10  1  0  0  0  0
 10 12  1  0  0  0  0
  1 13  1  0  0  0  0
  2 14  1  0  0  0  0
  3 15  1  0  0  0  0
  4 16  1  0  0  0  0
  7 17  1  0  0  0  0
  7 18  1  0  0  0  0
  8 19  1  0  0  0  0
  8 20  1  0  0  0  0
  9 21  1  0  0  0  0
 10 22  1  0  0  0  0
 12 23  1  0  0  0  0
 12 24  1  0  0  0  0
M  END
> <id>
EN300-39847373

> <smiles>
NC1CN2CC1C=3C=CC=CC23

> <IUPAC Name>
1-azatricyclo[6.2.1.0,2,7]undeca-2,4,6-trien-9-amine

> <URL>
https://www.enaminestore.com/catalog/EN300-39847373

> <ROCS_ShapeQuery>
_x1247relevant_x1083L0AP1_x1305L0BP1_

> <ROCS_TanimotoCombo>
1.164 

> <ROCS_ShapeTanimoto>
0.527 

> <ROCS_ColorTanimoto>
0.637 

> <ROCS_RefTversky>
0.438 

> <ROCS_RefColorTversky>
0.771 

> <ROCS_RefTverskyCombo>
1.209 

> <ROCS_FitTversky>
1.635 

> <ROCS_FitColorTversky>
0.785 

> <ROCS_FitTverskyCombo>
2.419 

> <ROCS_ColorScore>
-7.448

> <ROCS_Overlap>
1077.617

> <ROCS_Rank>
2                   

$$$$
untitled-dbase-18224_0
  -OEChem-06232314403D

 28 30  0     1  0  0  0  0  0999 V2000
   -9.4264   14.9315  -36.7372 C   0  0  0  0  0  0  0  0  0  0  0  0
  -10.7007   14.2093  -36.3258 C   0  0  0  0  0  0  0  0  0  0  0  0
   -9.9272   16.0315  -37.6610 C   0  0  0  0  0  0  0  0  0  0  0  0
  -13.0415   16.0415  -37.3417 C   0  0  0  0  0  0  0  0  0  0  0  0
  -13.7625   14.2753  -38.7555 C   0  0  0  0  0  0  0  0  0  0  0  0
  -11.5420   14.1799  -37.6030 C   0  0  2  0  0  0  0  0  0  0  0  0
  -11.0356   15.3578  -38.4715 C   0  0  1  0  0  0  0  0  0  0  0  0
  -13.0366   14.5115  -37.4139 C   0  0  1  0  0  0  0  0  0  0  0  0
  -12.3120   16.2039  -38.6820 C   0  0  1  0  0  0  0  0  0  0  0  0
  -13.2383   15.4237  -39.6507 C   0  0  2  0  0  0  0  0  0  0  0  0
  -14.3397   16.2380  -40.1564 N   0  0  0  0  0  0  0  0  0  0  0  0
   -8.8779   15.3281  -35.8780 H   0  0  0  0  0  0  0  0  0  0  0  0
   -8.7633   14.2498  -37.2831 H   0  0  0  0  0  0  0  0  0  0  0  0
  -10.4931   13.2005  -35.9550 H   0  0  0  0  0  0  0  0  0  0  0  0
  -11.2035   14.7554  -35.5196 H   0  0  0  0  0  0  0  0  0  0  0  0
  -10.3049   16.8773  -37.0760 H   0  0  0  0  0  0  0  0  0  0  0  0
   -9.1296   16.4130  -38.3060 H   0  0  0  0  0  0  0  0  0  0  0  0
  -14.0507   16.4668  -37.3406 H   0  0  0  0  0  0  0  0  0  0  0  0
  -12.4917   16.4444  -36.4870 H   0  0  0  0  0  0  0  0  0  0  0  0
  -13.5377   13.2936  -39.1858 H   0  0  0  0  0  0  0  0  0  0  0  0
  -14.8485   14.3310  -38.6101 H   0  0  0  0  0  0  0  0  0  0  0  0
  -11.4014   13.2229  -38.1196 H   0  0  0  0  0  0  0  0  0  0  0  0
  -10.6282   14.9953  -39.4228 H   0  0  0  0  0  0  0  0  0  0  0  0
  -13.5040   14.0002  -36.5699 H   0  0  0  0  0  0  0  0  0  0  0  0
  -12.1085   17.2349  -38.9828 H   0  0  0  0  0  0  0  0  0  0  0  0
  -12.6730   15.0200  -40.5109 H   0  0  0  0  0  0  0  0  0  0  0  0
  -13.9576   16.9768  -40.6985 H   0  0  0  0  0  0  0  0  0  0  0  0
  -14.9232   15.6601  -40.7143 H   0  0  0  0  0  0  0  0  0  0  0  0
  1  2  1  0  0  0  0
  1  3  1  0  0  0  0
  2  6  1  0  0  0  0
  3  7  1  0  0  0  0
  4  8  1  0  0  0  0
  4  9  1  0  0  0  0
  5  8  1  0  0  0  0
  5 10  1  0  0  0  0
  6  7  1  0  0  0  0
  6  8  1  0  0  0  0
  7  9  1  0  0  0  0
  9 10  1  0  0  0  0
 10 11  1  0  0  0  0
  1 12  1  0  0  0  0
  1 13  1  0  0  0  0
  2 14  1  0  0  0  0
  2 15  1  0  0  0  0
  3 16  1  0  0  0  0
  3 17  1  0  0  0  0
  4 18  1  0  0  0  0
  4 19  1  0  0  0  0
  5 20  1  0  0  0  0
  5 21  1  0  0  0  0
  6 22  1  0  0  0  0
  7 23  1  0  0  0  0
  8 24  1  0  0  0  0
  9 25  1  0  0  0  0
 10 26  1  0  0  0  0
 11 27  1  0  0  0  0
 11 28  1  0  0  0  0
M  END
> <id>
EN300-57761

> <smiles>
NC1CC2CC1C3CCCC23

> <IUPAC Name>
tricyclo[5.2.1.0,2,6]decan-8-amine

> <CAS>
669-51-2

> <Purity>
95

> <URL>
https://www.enaminestore.com/catalog/EN300-57761

> <ROCS_ShapeQuery>
_x1247relevant_x1083L0AP1_x1305L0BP1_

> <ROCS_TanimotoCombo>
1.149 

> <ROCS_ShapeTanimoto>
0.507 

> <ROCS_ColorTanimoto>
0.642 

> <ROCS_RefTversky>
0.418 

> <ROCS_RefColorTversky>
0.773 

> <ROCS_RefTverskyCombo>
1.190 

> <ROCS_FitTversky>
1.727 

> <ROCS_FitColorTversky>
0.791 

> <ROCS_FitTverskyCombo>
2.519 

> <ROCS_ColorScore>
-7.458

> <ROCS_Overlap>
1026.451

> <ROCS_Rank>
3                   

$$$$
untitled-dbase-37508_0
  -OEChem-06232314403D

 28 30  0     1  0  0  0  0  0999 V2000
   -9.4264   14.9315  -36.7372 C   0  0  0  0  0  0  0  0  0  0  0  0
  -10.7007   14.2093  -36.3258 C   0  0  0  0  0  0  0  0  0  0  0  0
   -9.9272   16.0315  -37.6610 C   0  0  0  0  0  0  0  0  0  0  0  0
  -13.0415   16.0415  -37.3417 C   0  0  0  0  0  0  0  0  0  0  0  0
  -13.7625   14.2753  -38.7555 C   0  0  0  0  0  0  0  0  0  0  0  0
  -11.5420   14.1799  -37.6030 C   0  0  2  0  0  0  0  0  0  0  0  0
  -11.0356   15.3578  -38.4715 C   0  0  1  0  0  0  0  0  0  0  0  0
  -13.0366   14.5115  -37.4139 C   0  0  1  0  0  0  0  0  0  0  0  0
  -12.3120   16.2039  -38.6820 C   0  0  1  0  0  0  0  0  0  0  0  0
  -13.2383   15.4237  -39.6507 C   0  0  2  0  0  0  0  0  0  0  0  0
  -14.3397   16.2380  -40.1564 N   0  0  0  0  0  0  0  0  0  0  0  0
   -8.8779   15.3281  -35.8780 H   0  0  0  0  0  0  0  0  0  0  0  0
   -8.7633   14.2498  -37.2831 H   0  0  0  0  0  0  0  0  0  0  0  0
  -10.4931   13.2005  -35.9550 H   0  0  0  0  0  0  0  0  0  0  0  0
  -11.2035   14.7554  -35.5196 H   0  0  0  0  0  0  0  0  0  0  0  0
  -10.3049   16.8773  -37.0760 H   0  0  0  0  0  0  0  0  0  0  0  0
   -9.1296   16.4130  -38.3060 H   0  0  0  0  0  0  0  0  0  0  0  0
  -14.0507   16.4668  -37.3406 H   0  0  0  0  0  0  0  0  0  0  0  0
  -12.4917   16.4444  -36.4870 H   0  0  0  0  0  0  0  0  0  0  0  0
  -13.5377   13.2936  -39.1858 H   0  0  0  0  0  0  0  0  0  0  0  0
  -14.8485   14.3310  -38.6101 H   0  0  0  0  0  0  0  0  0  0  0  0
  -11.4014   13.2229  -38.1196 H   0  0  0  0  0  0  0  0  0  0  0  0
  -10.6282   14.9953  -39.4228 H   0  0  0  0  0  0  0  0  0  0  0  0
  -13.5040   14.0002  -36.5699 H   0  0  0  0  0  0  0  0  0  0  0  0
  -12.1085   17.2349  -38.9828 H   0  0  0  0  0  0  0  0  0  0  0  0
  -12.6730   15.0200  -40.5109 H   0  0  0  0  0  0  0  0  0  0  0  0
  -13.9576   16.9768  -40.6985 H   0  0  0  0  0  0  0  0  0  0  0  0
  -14.9232   15.6601  -40.7143 H   0  0  0  0  0  0  0  0  0  0  0  0
  1  2  1  0  0  0  0
  1  3  1  0  0  0  0
  2  6  1  0  0  0  0
  3  7  1  0  0  0  0
  4  8  1  0  0  0  0
  4  9  1  0  0  0  0
  5  8  1  0  0  0  0
  5 10  1  0  0  0  0
  6  7  1  0  0  0  0
  6  8  1  0  0  0  0
  7  9  1  0  0  0  0
  9 10  1  0  0  0  0
 10 11  1  0  0  0  0
  1 12  1  0  0  0  0
  1 13  1  0  0  0  0
  2 14  1  0  0  0  0
  2 15  1  0  0  0  0
  3 16  1  0  0  0  0
  3 17  1  0  0  0  0
  4 18  1  0  0  0  0
  4 19  1  0  0  0  0
  5 20  1  0  0  0  0
  5 21  1  0  0  0  0
  6 22  1  0  0  0  0
  7 23  1  0  0  0  0
  8 24  1  0  0  0  0
  9 25  1  0  0  0  0
 10 26  1  0  0  0  0
 11 27  1  0  0  0  0
 11 28  1  0  0  0  0
M  END
> <id>
EN300-31476

> <smiles>
Cl.NC1CC2CC1C3CCCC23

> <IUPAC Name>
tricyclo[5.2.1.0,2,6]decan-8-amine hydrochloride

> <CAS>
59455-05-9

> <URL>
https://www.enaminestore.com/catalog/EN300-31476

> <Saltdate>
Cl

> <ROCS_ShapeQuery>
_x1247relevant_x1083L0AP1_x1305L0BP1_

> <ROCS_TanimotoCombo>
1.149 

> <ROCS_ShapeTanimoto>
0.507 

> <ROCS_ColorTanimoto>
0.642 

> <ROCS_RefTversky>
0.418 

> <ROCS_RefColorTversky>
0.773 

> <ROCS_RefTverskyCombo>
1.190 

> <ROCS_FitTversky>
1.727 

> <ROCS_FitColorTversky>
0.791 

> <ROCS_FitTverskyCombo>
2.519 

> <ROCS_ColorScore>
-7.458

> <ROCS_Overlap>
1026.451

> <ROCS_Rank>
4                   

$$$$
untitled-dbase-213_0
  -OEChem-06232314403D

 22 24  0     1  0  0  0  0  0999 V2000
  -10.3942   14.4535  -36.2184 C   0  0  0  0  0  0  0  0  0  0  0  0
  -10.6967   15.7287  -36.4822 C   0  0  0  0  0  0  0  0  0  0  0  0
  -13.5425   15.5140  -37.2433 C   0  0  0  0  0  0  0  0  0  0  0  0
  -13.5284   14.2706  -37.7392 C   0  0  0  0  0  0  0  0  0  0  0  0
  -10.5997   13.5438  -37.3874 C   0  0  0  0  0  0  0  0  0  0  0  0
  -11.1627   15.9200  -37.8891 C   0  0  1  0  0  0  0  0  0  0  0  0
  -11.1412   14.4672  -38.4864 C   0  0  2  0  0  0  0  0  0  0  0  0
  -12.6459   16.3637  -38.1247 C   0  0  1  0  0  0  0  0  0  0  0  0
  -12.6243   14.2771  -38.9586 C   0  0  2  0  0  0  0  0  0  0  0  0
  -12.9650   15.7033  -39.5067 C   0  0  0  0  0  0  0  0  0  0  0  0
  -14.3453   16.0796  -35.8642 Cl  0  0  0  0  0  0  0  0  0  0  0  0
  -14.3263   12.9024  -37.1402 Cl  0  0  0  0  0  0  0  0  0  0  0  0
  -12.8908   18.0966  -38.0521 Cl  0  0  0  0  0  0  0  0  0  0  0  0
  -12.8414   12.9648  -40.0979 Cl  0  0  0  0  0  0  0  0  0  0  0  0
  -11.9284   16.2603  -40.8598 Cl  0  0  0  0  0  0  0  0  0  0  0  0
  -14.6707   15.9053  -40.0568 Cl  0  0  0  0  0  0  0  0  0  0  0  0
  -10.0330   14.1088  -35.2597 H   0  0  0  0  0  0  0  0  0  0  0  0
  -10.6085   16.5329  -35.7658 H   0  0  0  0  0  0  0  0  0  0  0  0
   -9.6384   13.1128  -37.6879 H   0  0  0  0  0  0  0  0  0  0  0  0
  -11.2746   12.7192  -37.1455 H   0  0  0  0  0  0  0  0  0  0  0  0
  -10.4529   16.5611  -38.4262 H   0  0  0  0  0  0  0  0  0  0  0  0
  -10.4603   14.4270  -39.3472 H   0  0  0  0  0  0  0  0  0  0  0  0
  1  2  2  0  0  0  0
  1  5  1  0  0  0  0
  2  6  1  0  0  0  0
  3  4  2  0  0  0  0
  3  8  1  0  0  0  0
  3 11  1  0  0  0  0
  4  9  1  0  0  0  0
  4 12  1  0  0  0  0
  5  7  1  0  0  0  0
  6  7  1  0  0  0  0
  6  8  1  0  0  0  0
  7  9  1  0  0  0  0
  8 10  1  0  0  0  0
  8 13  1  0  0  0  0
  9 10  1  0  0  0  0
  9 14  1  0  0  0  0
 10 15  1  0  0  0  0
 10 16  1  0  0  0  0
  1 17  1  0  0  0  0
  2 18  1  0  0  0  0
  5 19  1  0  0  0  0
  5 20  1  0  0  0  0
  6 21  1  0  0  0  0
  7 22  1  0  0  0  0
M  END
> <id>
EN300-54544

> <smiles>
ClC1=C(Cl)C2(Cl)C3C=CCC3C1(Cl)C2(Cl)Cl

> <IUPAC Name>
1,7,8,9,10,10-hexachlorotricyclo[5.2.1.0,2,6]deca-3,8-diene

> <CAS>
3734-48-3

> <Purity>
95

> <URL>
https://www.enaminestore.com/catalog/EN300-54544

> <ROCS_ShapeQuery>
_x1247relevant_x1083L0AP1_x1305L0BP1_

> <ROCS_TanimotoCombo>
1.145 

> <ROCS_ShapeTanimoto>
0.521 

> <ROCS_ColorTanimoto>
0.624 

> <ROCS_RefTversky>
0.450 

> <ROCS_RefColorTversky>
0.688 

> <ROCS_RefTverskyCombo>
1.137 

> <ROCS_FitTversky>
1.439 

> <ROCS_FitColorTversky>
0.871 

> <ROCS_FitTverskyCombo>
2.310 

> <ROCS_ColorScore>
-6.571

> <ROCS_Overlap>
1109.624

> <ROCS_Rank>
5                   

$$$$
untitled-dbase-30266_0
  -OEChem-06232314403D

 25 27  0     1  0  0  0  0  0999 V2000
   -9.4957   14.4546  -37.3084 C   0  0  0  0  0  0  0  0  0  0  0  0
   -9.7926   15.4260  -38.1750 C   0  0  0  0  0  0  0  0  0  0  0  0
  -10.6526   14.0868  -36.4413 C   0  0  0  0  0  0  0  0  0  0  0  0
  -12.4334   14.1042  -39.0455 C   0  0  0  0  0  0  0  0  0  0  0  0
  -14.0936   15.3113  -37.8588 C   0  0  0  0  0  0  0  0  0  0  0  0
  -11.2003   15.9052  -38.0314 C   0  0  2  0  0  0  0  0  0  0  0  0
  -11.7876   15.0119  -36.9062 C   0  0  1  0  0  0  0  0  0  0  0  0
  -12.9590   14.2912  -37.6219 C   0  0  2  0  0  0  0  0  0  0  0  0
  -12.1260   15.5980  -39.2297 C   0  0  2  0  0  0  0  0  0  0  0  0
  -13.4991   16.2406  -38.9335 C   0  0  1  0  0  0  0  0  0  0  0  0
  -14.3205   16.2137  -40.0925 O   0  0  0  0  0  0  0  0  0  0  0  0
   -8.5282   13.9777  -37.2437 H   0  0  0  0  0  0  0  0  0  0  0  0
   -9.0936   15.8313  -38.8926 H   0  0  0  0  0  0  0  0  0  0  0  0
  -10.9063   13.0272  -36.5456 H   0  0  0  0  0  0  0  0  0  0  0  0
  -10.4053   14.2786  -35.3917 H   0  0  0  0  0  0  0  0  0  0  0  0
  -11.5552   13.4560  -39.1122 H   0  0  0  0  0  0  0  0  0  0  0  0
  -13.1966   13.7340  -39.7387 H   0  0  0  0  0  0  0  0  0  0  0  0
  -15.0014   14.8108  -38.2143 H   0  0  0  0  0  0  0  0  0  0  0  0
  -14.3387   15.8581  -36.9426 H   0  0  0  0  0  0  0  0  0  0  0  0
  -11.2097   16.9663  -37.7595 H   0  0  0  0  0  0  0  0  0  0  0  0
  -12.1556   15.6073  -36.0618 H   0  0  0  0  0  0  0  0  0  0  0  0
  -13.2955   13.3809  -37.1212 H   0  0  0  0  0  0  0  0  0  0  0  0
  -11.7121   15.8498  -40.2093 H   0  0  0  0  0  0  0  0  0  0  0  0
  -13.4242   17.2762  -38.5866 H   0  0  0  0  0  0  0  0  0  0  0  0
  -13.9111   16.8098  -40.7405 H   0  0  0  0  0  0  0  0  0  0  0  0
  1  2  2  0  0  0  0
  1  3  1  0  0  0  0
  2  6  1  0  0  0  0
  3  7  1  0  0  0  0
  4  8  1  0  0  0  0
  4  9  1  0  0  0  0
  5  8  1  1  0  0  0
  5 10  1  0  0  0  0
  6  7  1  0  0  0  0
  6  9  1  0  0  0  0
  7  8  1  0  0  0  0
  9 10  1  1  0  0  0
 10 11  1  0  0  0  0
  1 12  1  0  0  0  0
  2 13  1  0  0  0  0
  3 14  1  0  0  0  0
  3 15  1  0  0  0  0
  4 16  1  0  0  0  0
  4 17  1  0  0  0  0
  5 18  1  0  0  0  0
  5 19  1  0  0  0  0
  6 20  1  0  0  0  0
  7 21  1  0  0  0  0
  8 22  1  0  0  0  0
  9 23  1  0  0  0  0
 10 24  1  0  0  0  0
 11 25  1  0  0  0  0
M  END
> <id>
EN300-19632235

> <smiles>
OC1C[C@H]2C[C@@H]1C3C=CCC23

> <MDLNUMBER>
MFCD19237754

> <IUPAC Name>
(1R,7R)-tricyclo[5.2.1.0,2,6]dec-4-en-8-ol

> <Purity>
92

> <URL>
https://www.enaminestore.com/catalog/EN300-19632235

> <ROCS_ShapeQuery>
_x1247relevant_x1083L0AP1_x1305L0BP1_

> <ROCS_TanimotoCombo>
1.140 

> <ROCS_ShapeTanimoto>
0.498 

> <ROCS_ColorTanimoto>
0.642 

> <ROCS_RefTversky>
0.414 

> <ROCS_RefColorTversky>
0.774 

> <ROCS_RefTverskyCombo>
1.188 

> <ROCS_FitTversky>
1.689 

> <ROCS_FitColorTversky>
0.790 

> <ROCS_FitTverskyCombo>
2.480 

> <ROCS_ColorScore>
-7.469

> <ROCS_Overlap>
1017.887

> <ROCS_Rank>
6                   

$$$$
untitled-dbase-42651_0
  -OEChem-06232314403D

 21 23  0     1  0  0  0  0  0999 V2000
   -9.2843   15.1559  -36.6025 C   0  0  0  0  0  0  0  0  0  0  0  0
   -9.5779   13.7802  -36.7350 C   0  0  0  0  0  0  0  0  0  0  0  0
  -10.2011   16.1367  -36.9951 C   0  0  0  0  0  0  0  0  0  0  0  0
  -10.7978   13.3469  -37.2620 C   0  0  0  0  0  0  0  0  0  0  0  0
  -11.4035   15.7010  -37.4982 C   0  0  0  0  0  0  0  0  0  0  0  0
  -11.6980   14.3243  -37.6273 C   0  0  0  0  0  0  0  0  0  0  0  0
  -12.6339   16.0413  -39.5615 C   0  0  0  0  0  0  0  0  0  0  0  0
  -12.8851   14.5236  -39.6831 C   0  0  0  0  0  0  0  0  0  0  0  0
  -13.6531   15.3734  -37.6255 C   0  0  0  0  0  0  0  0  0  0  0  0
  -12.5939   16.4051  -38.0776 C   0  0  1  0  0  0  0  0  0  0  0  0
  -13.0151   14.1630  -38.2346 N   0  0  2  0  0  0  0  0  0  0  0  0
  -12.4509   16.8087  -40.4919 O   0  0  0  0  0  0  0  0  0  0  0  0
   -8.3213   15.4555  -36.1960 H   0  0  0  0  0  0  0  0  0  0  0  0
   -8.8365   13.0474  -36.4263 H   0  0  0  0  0  0  0  0  0  0  0  0
   -9.9649   17.1905  -36.9108 H   0  0  0  0  0  0  0  0  0  0  0  0
  -11.0175   12.2923  -37.3753 H   0  0  0  0  0  0  0  0  0  0  0  0
  -13.8292   14.3433  -40.2040 H   0  0  0  0  0  0  0  0  0  0  0  0
  -12.0497   14.0128  -40.1700 H   0  0  0  0  0  0  0  0  0  0  0  0
  -13.7599   15.2810  -36.5351 H   0  0  0  0  0  0  0  0  0  0  0  0
  -14.6457   15.5539  -38.0584 H   0  0  0  0  0  0  0  0  0  0  0  0
  -12.7873   17.4409  -37.8107 H   0  0  0  0  0  0  0  0  0  0  0  0
  1  2  2  0  0  0  0
  1  3  1  0  0  0  0
  2  4  1  0  0  0  0
  3  5  2  0  0  0  0
  4  6  2  0  0  0  0
  5  6  1  0  0  0  0
  5 10  1  0  0  0  0
  6 11  1  0  0  0  0
  7  8  1  0  0  0  0
  7 10  1  0  0  0  0
  7 12  2  0  0  0  0
  8 11  1  0  0  0  0
  9 10  1  0  0  0  0
  9 11  1  0  0  0  0
  1 13  1  0  0  0  0
  2 14  1  0  0  0  0
  3 15  1  0  0  0  0
  4 16  1  0  0  0  0
  8 17  1  0  0  0  0
  8 18  1  0  0  0  0
  9 19  1  0  0  0  0
  9 20  1  0  0  0  0
 10 21  1  0  0  0  0
M  END
> <id>
EN300-39847374

> <smiles>
O=C1CN2CC1C=3C=CC=CC23

> <IUPAC Name>
1-azatricyclo[6.2.1.0,2,7]undeca-2,4,6-trien-9-one

> <URL>
https://www.enaminestore.com/catalog/EN300-39847374

> <ROCS_ShapeQuery>
_x1247relevant_x1083L0AP1_x1305L0BP1_

> <ROCS_TanimotoCombo>
1.137 

> <ROCS_ShapeTanimoto>
0.530 

> <ROCS_ColorTanimoto>
0.607 

> <ROCS_RefTversky>
0.440 

> <ROCS_RefColorTversky>
0.714 

> <ROCS_RefTverskyCombo>
1.154 

> <ROCS_FitTversky>
1.628 

> <ROCS_FitColorTversky>
0.802 

> <ROCS_FitTverskyCombo>
2.430 

> <ROCS_ColorScore>
-6.861

> <ROCS_Overlap>
1083.715

> <ROCS_Rank>
7                   

$$$$
untitled-dbase-34805_0
  -OEChem-06232314403D

 27 29  0     1  0  0  0  0  0999 V2000
   -9.3693   14.7177  -36.9378 C   0  0  0  0  0  0  0  0  0  0  0  0
  -10.6646   14.0958  -36.4377 C   0  0  0  0  0  0  0  0  0  0  0  0
   -9.7362   15.2332  -38.3211 C   0  0  0  0  0  0  0  0  0  0  0  0
  -12.5559   14.0280  -38.9440 C   0  0  0  0  0  0  0  0  0  0  0  0
  -14.0652   15.4616  -37.8091 C   0  0  0  0  0  0  0  0  0  0  0  0
  -11.7525   15.0539  -36.9259 C   0  0  1  0  0  0  0  0  0  0  0  0
  -11.1460   15.7978  -38.1429 C   0  0  2  0  0  0  0  0  0  0  0  0
  -13.0052   14.3766  -37.5231 C   0  0  2  0  0  0  0  0  0  0  0  0
  -12.1420   15.4695  -39.2746 C   0  0  2  0  0  0  0  0  0  0  0  0
  -13.4486   16.2423  -38.9859 C   0  0  1  0  0  0  0  0  0  0  0  0
  -14.3118   16.2351  -40.1137 O   0  0  0  0  0  0  0  0  0  0  0  0
   -9.0724   15.5502  -36.2887 H   0  0  0  0  0  0  0  0  0  0  0  0
   -8.5469   13.9975  -36.9674 H   0  0  0  0  0  0  0  0  0  0  0  0
  -10.7896   13.0907  -36.8560 H   0  0  0  0  0  0  0  0  0  0  0  0
  -10.6723   13.9967  -35.3477 H   0  0  0  0  0  0  0  0  0  0  0  0
   -9.0350   15.9991  -38.6675 H   0  0  0  0  0  0  0  0  0  0  0  0
   -9.7116   14.4164  -39.0510 H   0  0  0  0  0  0  0  0  0  0  0  0
  -11.7330   13.3096  -38.9844 H   0  0  0  0  0  0  0  0  0  0  0  0
  -13.3738   13.6606  -39.5734 H   0  0  0  0  0  0  0  0  0  0  0  0
  -15.0244   15.0082  -38.0838 H   0  0  0  0  0  0  0  0  0  0  0  0
  -14.2253   16.1047  -36.9376 H   0  0  0  0  0  0  0  0  0  0  0  0
  -12.0149   15.7581  -36.1273 H   0  0  0  0  0  0  0  0  0  0  0  0
  -11.0898   16.8763  -37.9528 H   0  0  0  0  0  0  0  0  0  0  0  0
  -13.3866   13.5416  -36.9319 H   0  0  0  0  0  0  0  0  0  0  0  0
  -11.7510   15.6059  -40.2852 H   0  0  0  0  0  0  0  0  0  0  0  0
  -13.2583   17.2999  -38.7124 H   0  0  0  0  0  0  0  0  0  0  0  0
  -13.8649   16.7405  -40.8120 H   0  0  0  0  0  0  0  0  0  0  0  0
  1  2  1  0  0  0  0
  1  3  1  0  0  0  0
  2  6  1  0  0  0  0
  3  7  1  0  0  0  0
  4  8  1  0  0  0  0
  4  9  1  0  0  0  0
  5  8  1  1  0  0  0
  5 10  1  0  0  0  0
  6  7  1  0  0  0  0
  6  8  1  0  0  0  0
  7  9  1  0  0  0  0
  9 10  1  1  0  0  0
 10 11  1  0  0  0  0
  1 12  1  0  0  0  0
  1 13  1  0  0  0  0
  2 14  1  0  0  0  0
  2 15  1  0  0  0  0
  3 16  1  0  0  0  0
  3 17  1  0  0  0  0
  4 18  1  0  0  0  0
  4 19  1  0  0  0  0
  5 20  1  0  0  0  0
  5 21  1  0  0  0  0
  6 22  1  0  0  0  0
  7 23  1  0  0  0  0
  8 24  1  0  0  0  0
  9 25  1  0  0  0  0
 10 26  1  0  0  0  0
 11 27  1  0  0  0  0
M  END
> <id>
EN300-6814356

> <smiles>
OC1C[C@H]2C[C@@H]1C3CCCC23

> <MDLNUMBER>
MFCD00168035

> <IUPAC Name>
(1R,7R)-tricyclo[5.2.1.0,2,6]decan-8-ol

> <URL>
https://www.enaminestore.com/catalog/EN300-6814356

> <ROCS_ShapeQuery>
_x1247relevant_x1083L0AP1_x1305L0BP1_

> <ROCS_TanimotoCombo>
1.137 

> <ROCS_ShapeTanimoto>
0.494 

> <ROCS_ColorTanimoto>
0.643 

> <ROCS_RefTversky>
0.411 

> <ROCS_RefColorTversky>
0.774 

> <ROCS_RefTverskyCombo>
1.184 

> <ROCS_FitTversky>
1.694 

> <ROCS_FitColorTversky>
0.792 

> <ROCS_FitTverskyCombo>
2.486 

> <ROCS_ColorScore>
-7.467

> <ROCS_Overlap>
1009.882

> <ROCS_Rank>
8                   

$$$$
untitled-dbase-16285_0
  -OEChem-06232314403D

 27 29  0     1  0  0  0  0  0999 V2000
   -9.4839   14.5910  -36.7430 C   0  0  0  0  0  0  0  0  0  0  0  0
  -10.1430   15.9441  -36.9639 C   0  0  0  0  0  0  0  0  0  0  0  0
  -10.2518   13.6677  -37.6768 C   0  0  0  0  0  0  0  0  0  0  0  0
  -11.9917   15.5477  -39.4728 C   0  0  0  0  0  0  0  0  0  0  0  0
  -13.8776   16.0543  -38.1260 C   0  0  0  0  0  0  0  0  0  0  0  0
  -11.6314   15.6178  -37.0978 C   0  0  2  0  0  0  0  0  0  0  0  0
  -11.7016   14.1384  -37.5517 C   0  0  1  0  0  0  0  0  0  0  0  0
  -12.3675   16.3613  -38.2321 C   0  0  1  0  0  0  0  0  0  0  0  0
  -12.4911   14.2235  -38.8788 C   0  0  1  0  0  0  0  0  0  0  0  0
  -13.9589   14.5624  -38.5186 C   0  0  2  0  0  0  0  0  0  0  0  0
  -15.0917   14.2846  -39.9181 S   0  0  0  0  0  0  0  0  0  0  0  0
   -8.4132   14.6094  -36.9650 H   0  0  0  0  0  0  0  0  0  0  0  0
   -9.6134   14.2712  -35.7022 H   0  0  0  0  0  0  0  0  0  0  0  0
   -9.9527   16.6279  -36.1307 H   0  0  0  0  0  0  0  0  0  0  0  0
   -9.7468   16.4164  -37.8698 H   0  0  0  0  0  0  0  0  0  0  0  0
   -9.8771   13.7650  -38.7018 H   0  0  0  0  0  0  0  0  0  0  0  0
  -10.1417   12.6173  -37.3891 H   0  0  0  0  0  0  0  0  0  0  0  0
  -12.5360   15.8593  -40.3703 H   0  0  0  0  0  0  0  0  0  0  0  0
  -10.9217   15.5556  -39.6970 H   0  0  0  0  0  0  0  0  0  0  0  0
  -14.2541   16.2233  -37.1113 H   0  0  0  0  0  0  0  0  0  0  0  0
  -14.4414   16.7046  -38.8049 H   0  0  0  0  0  0  0  0  0  0  0  0
  -12.1313   15.7557  -36.1317 H   0  0  0  0  0  0  0  0  0  0  0  0
  -12.2234   13.5253  -36.8070 H   0  0  0  0  0  0  0  0  0  0  0  0
  -12.1442   17.4290  -38.2850 H   0  0  0  0  0  0  0  0  0  0  0  0
  -12.3629   13.3439  -39.5146 H   0  0  0  0  0  0  0  0  0  0  0  0
  -14.3224   13.9548  -37.6832 H   0  0  0  0  0  0  0  0  0  0  0  0
  -14.4305   15.0633  -40.7841 H   0  0  0  0  0  0  0  0  0  0  0  0
  1  2  1  0  0  0  0
  1  3  1  0  0  0  0
  2  6  1  0  0  0  0
  3  7  1  0  0  0  0
  4  8  1  0  0  0  0
  4  9  1  0  0  0  0
  5  8  1  0  0  0  0
  5 10  1  0  0  0  0
  6  7  1  0  0  0  0
  6  8  1  0  0  0  0
  7  9  1  0  0  0  0
  9 10  1  0  0  0  0
 10 11  1  0  0  0  0
  1 12  1  0  0  0  0
  1 13  1  0  0  0  0
  2 14  1  0  0  0  0
  2 15  1  0  0  0  0
  3 16  1  0  0  0  0
  3 17  1  0  0  0  0
  4 18  1  0  0  0  0
  4 19  1  0  0  0  0
  5 20  1  0  0  0  0
  5 21  1  0  0  0  0
  6 22  1  0  0  0  0
  7 23  1  0  0  0  0
  8 24  1  0  0  0  0
  9 25  1  0  0  0  0
 10 26  1  0  0  0  0
 11 27  1  0  0  0  0
M  END
> <id>
EN300-1288158

> <smiles>
SC1CC2CC1C3CCCC23

> <IUPAC Name>
tricyclo[5.2.1.0,2,6]decane-8-thiol

> <CAS>
2172149-63-0

> <URL>
https://www.enaminestore.com/catalog/EN300-1288158

> <ROCS_ShapeQuery>
_x1247relevant_x1083L0AP1_x1305L0BP1_

> <ROCS_TanimotoCombo>
1.132 

> <ROCS_ShapeTanimoto>
0.486 

> <ROCS_ColorTanimoto>
0.646 

> <ROCS_RefTversky>
0.405 

> <ROCS_RefColorTversky>
0.702 

> <ROCS_RefTverskyCombo>
1.107 

> <ROCS_FitTversky>
1.702 

> <ROCS_FitColorTversky>
0.891 

> <ROCS_FitTverskyCombo>
2.593 

> <ROCS_ColorScore>
-6.704

> <ROCS_Overlap>
995.301

> <ROCS_Rank>
9                   

$$$$
untitled-dbase-28231_0
  -OEChem-06232314403D

 29 31  0     1  0  0  0  0  0999 V2000
  -15.4214   14.1110  -40.6607 C   0  0  0  0  0  0  0  0  0  0  0  0
  -14.7387   14.3027  -39.6922 C   0  0  0  0  0  0  0  0  0  0  0  0
   -9.4202   14.7161  -36.6473 C   0  0  0  0  0  0  0  0  0  0  0  0
  -10.0926   16.0447  -36.9587 C   0  0  0  0  0  0  0  0  0  0  0  0
  -10.1719   13.7264  -37.5243 C   0  0  0  0  0  0  0  0  0  0  0  0
  -11.9104   15.4551  -39.4528 C   0  0  0  0  0  0  0  0  0  0  0  0
  -13.8185   16.0436  -38.1546 C   0  0  0  0  0  0  0  0  0  0  0  0
  -11.5765   15.6942  -37.0842 C   0  0  2  0  0  0  0  0  0  0  0  0
  -11.6287   14.1866  -37.4343 C   0  0  1  0  0  0  0  0  0  0  0  0
  -12.3065   16.3506  -38.2755 C   0  0  1  0  0  0  0  0  0  0  0  0
  -12.4127   14.1745  -38.7682 C   0  0  1  0  0  0  0  0  0  0  0  0
  -13.9017   14.5382  -38.5039 C   0  0  2  0  0  0  0  0  0  0  0  0
  -14.4442   13.8121  -37.4113 O   0  0  0  0  0  0  0  0  0  0  0  0
  -16.0269   13.9408  -41.5201 H   0  0  0  0  0  0  0  0  0  0  0  0
   -8.3482   14.7324  -36.8639 H   0  0  0  0  0  0  0  0  0  0  0  0
   -9.5532   14.4625  -35.5889 H   0  0  0  0  0  0  0  0  0  0  0  0
   -9.9173   16.7817  -36.1686 H   0  0  0  0  0  0  0  0  0  0  0  0
   -9.6932   16.4640  -37.8891 H   0  0  0  0  0  0  0  0  0  0  0  0
   -9.7924   13.7630  -38.5514 H   0  0  0  0  0  0  0  0  0  0  0  0
  -10.0503   12.6976  -37.1709 H   0  0  0  0  0  0  0  0  0  0  0  0
  -12.4443   15.7001  -40.3771 H   0  0  0  0  0  0  0  0  0  0  0  0
  -10.8377   15.4541  -39.6638 H   0  0  0  0  0  0  0  0  0  0  0  0
  -14.1993   16.2788  -37.1549 H   0  0  0  0  0  0  0  0  0  0  0  0
  -14.3697   16.6588  -38.8768 H   0  0  0  0  0  0  0  0  0  0  0  0
  -12.0882   15.8947  -36.1353 H   0  0  0  0  0  0  0  0  0  0  0  0
  -12.1278   13.6146  -36.6452 H   0  0  0  0  0  0  0  0  0  0  0  0
  -12.0893   17.4136  -38.4003 H   0  0  0  0  0  0  0  0  0  0  0  0
  -12.2709   13.2556  -39.3437 H   0  0  0  0  0  0  0  0  0  0  0  0
  -14.4360   12.8739  -37.6637 H   0  0  0  0  0  0  0  0  0  0  0  0
  1  2  3  0  0  0  0
  2 12  1  0  0  0  0
  3  4  1  0  0  0  0
  3  5  1  0  0  0  0
  4  8  1  0  0  0  0
  5  9  1  0  0  0  0
  6 10  1  0  0  0  0
  6 11  1  0  0  0  0
  7 10  1  0  0  0  0
  7 12  1  0  0  0  0
  8  9  1  0  0  0  0
  8 10  1  0  0  0  0
  9 11  1  0  0  0  0
 11 12  1  0  0  0  0
 12 13  1  0  0  0  0
  1 14  1  0  0  0  0
  3 15  1  0  0  0  0
  3 16  1  0  0  0  0
  4 17  1  0  0  0  0
  4 18  1  0  0  0  0
  5 19  1  0  0  0  0
  5 20  1  0  0  0  0
  6 21  1  0  0  0  0
  6 22  1  0  0  0  0
  7 23  1  0  0  0  0
  7 24  1  0  0  0  0
  8 25  1  0  0  0  0
  9 26  1  0  0  0  0
 10 27  1  0  0  0  0
 11 28  1  0  0  0  0
 13 29  1  0  0  0  0
M  END
> <id>
EN300-1273415

> <smiles>
OC1(CC2CC1C3CCCC23)C#C

> <MDLNUMBER>
MFCD21143225

> <IUPAC Name>
8-ethynyltricyclo[5.2.1.0,2,6]decan-8-ol

> <CAS>
13380-92-2

> <URL>
https://www.enaminestore.com/catalog/EN300-1273415

> <ROCS_ShapeQuery>
_x1247relevant_x1083L0AP1_x1305L0BP1_

> <ROCS_TanimotoCombo>
1.131 

> <ROCS_ShapeTanimoto>
0.522 

> <ROCS_ColorTanimoto>
0.609 

> <ROCS_RefTversky>
0.438 

> <ROCS_RefColorTversky>
0.782 

> <ROCS_RefTverskyCombo>
1.221 

> <ROCS_FitTversky>
1.579 

> <ROCS_FitColorTversky>
0.733 

> <ROCS_FitTverskyCombo>
2.312 

> <ROCS_ColorScore>
-7.589

> <ROCS_Overlap>
1079.467

> <ROCS_Rank>
10                  

$$$$
untitled-dbase-43865_0
  -OEChem-06232314403D

 24 26  0     1  0  0  0  0  0999 V2000
   -9.4565   13.8293  -36.6175 C   0  0  0  0  0  0  0  0  0  0  0  0
   -9.3306   15.2005  -36.3418 C   0  0  0  0  0  0  0  0  0  0  0  0
  -10.5429   13.3429  -37.3479 C   0  0  0  0  0  0  0  0  0  0  0  0
  -10.2890   16.1115  -36.7913 C   0  0  0  0  0  0  0  0  0  0  0  0
  -11.4946   14.2463  -37.7923 C   0  0  0  0  0  0  0  0  0  0  0  0
  -11.3696   15.6290  -37.5162 C   0  0  0  0  0  0  0  0  0  0  0  0
  -12.6667   14.8333  -39.8402 C   0  0  0  0  0  0  0  0  0  0  0  0
  -12.4376   16.3169  -39.5209 C   0  0  0  0  0  0  0  0  0  0  0  0
  -13.9358   14.4850  -37.7931 C   0  0  0  0  0  0  0  0  0  0  0  0
  -13.7003   15.9816  -37.4340 C   0  0  0  0  0  0  0  0  0  0  0  0
  -12.7356   13.9390  -38.5976 C   0  0  2  0  0  0  0  0  0  0  0  0
  -12.4242   16.4480  -38.0394 N   0  0  1  0  0  0  0  0  0  0  0  0
  -12.7855   14.4070  -40.9838 O   0  0  0  0  0  0  0  0  0  0  0  0
   -8.6974   13.1396  -36.2579 H   0  0  0  0  0  0  0  0  0  0  0  0
   -8.4758   15.5553  -35.7720 H   0  0  0  0  0  0  0  0  0  0  0  0
  -10.6335   12.2825  -37.5581 H   0  0  0  0  0  0  0  0  0  0  0  0
  -10.1846   17.1696  -36.5747 H   0  0  0  0  0  0  0  0  0  0  0  0
  -11.4855   16.6461  -39.9508 H   0  0  0  0  0  0  0  0  0  0  0  0
  -13.2569   16.9083  -39.9413 H   0  0  0  0  0  0  0  0  0  0  0  0
  -14.0706   13.9074  -36.8703 H   0  0  0  0  0  0  0  0  0  0  0  0
  -14.8584   14.3915  -38.3791 H   0  0  0  0  0  0  0  0  0  0  0  0
  -14.5303   16.5930  -37.8074 H   0  0  0  0  0  0  0  0  0  0  0  0
  -13.6758   16.1161  -36.3450 H   0  0  0  0  0  0  0  0  0  0  0  0
  -12.8362   12.8844  -38.8639 H   0  0  0  0  0  0  0  0  0  0  0  0
  1  2  2  0  0  0  0
  1  3  1  0  0  0  0
  2  4  1  0  0  0  0
  3  5  2  0  0  0  0
  4  6  2  0  0  0  0
  5  6  1  0  0  0  0
  5 11  1  0  0  0  0
  6 12  1  0  0  0  0
  7  8  1  0  0  0  0
  7 11  1  0  0  0  0
  7 13  2  0  0  0  0
  8 12  1  0  0  0  0
  9 10  1  0  0  0  0
  9 11  1  0  0  0  0
 10 12  1  0  0  0  0
  1 14  1  0  0  0  0
  2 15  1  0  0  0  0
  3 16  1  0  0  0  0
  4 17  1  0  0  0  0
  8 18  1  0  0  0  0
  8 19  1  0  0  0  0
  9 20  1  0  0  0  0
  9 21  1  0  0  0  0
 10 22  1  0  0  0  0
 10 23  1  0  0  0  0
 11 24  1  0  0  0  0
M  END
> <id>
EN300-8240821

> <smiles>
O=C1CN2CCC1C=3C=CC=CC23

> <MDLNUMBER>
MFCD00513384

> <IUPAC Name>
1-azatricyclo[6.2.2.0,2,7]dodeca-2,4,6-trien-9-one

> <CAS>
24562-79-6

> <Purity>
95

> <URL>
https://www.enaminestore.com/catalog/EN300-8240821

> <ROCS_ShapeQuery>
_x1247relevant_x1083L0AP1_x1305L0BP1_

> <ROCS_TanimotoCombo>
1.126 

> <ROCS_ShapeTanimoto>
0.507 

> <ROCS_ColorTanimoto>
0.619 

> <ROCS_RefTversky>
0.432 

> <ROCS_RefColorTversky>
0.710 

> <ROCS_RefTverskyCombo>
1.142 

> <ROCS_FitTversky>
1.517 

> <ROCS_FitColorTversky>
0.828 

> <ROCS_FitTverskyCombo>
2.345 

> <ROCS_ColorScore>
-6.810

> <ROCS_Overlap>
1064.418

> <ROCS_Rank>
11                  

$$$$
untitled-dbase-25572_0
  -OEChem-06232314403D

 27 28  0     0  0  0  0  0  0999 V2000
  -12.6056   15.8137  -36.7937 C   0  0  0  0  0  0  0  0  0  0  0  0
  -11.0166   15.5471  -38.7132 C   0  0  0  0  0  0  0  0  0  0  0  0
  -12.4805   13.6336  -38.0224 C   0  0  0  0  0  0  0  0  0  0  0  0
  -13.6932   16.2958  -37.7644 C   0  0  0  0  0  0  0  0  0  0  0  0
  -12.1070   16.0285  -39.6812 C   0  0  0  0  0  0  0  0  0  0  0  0
  -13.5696   14.1197  -38.9894 C   0  0  0  0  0  0  0  0  0  0  0  0
  -11.6462   14.8259  -37.4981 C   0  0  0  0  0  0  0  0  0  0  0  0
  -13.4943   15.6468  -39.1430 C   0  0  0  0  0  0  0  0  0  0  0  0
  -10.5618   14.3446  -36.5338 C   0  0  0  0  0  0  0  0  0  0  0  0
  -14.5278   16.1188  -40.0632 N   0  0  0  0  0  0  0  0  0  0  0  0
  -11.1230   13.7221  -35.4869 F   0  0  0  0  0  0  0  0  0  0  0  0
   -9.7390   13.4901  -37.1592 F   0  0  0  0  0  0  0  0  0  0  0  0
   -9.8486   15.3894  -36.0884 F   0  0  0  0  0  0  0  0  0  0  0  0
  -12.0507   16.6781  -36.4074 H   0  0  0  0  0  0  0  0  0  0  0  0
  -13.0771   15.3361  -35.9255 H   0  0  0  0  0  0  0  0  0  0  0  0
  -10.3283   14.8765  -39.2426 H   0  0  0  0  0  0  0  0  0  0  0  0
  -10.4186   16.4052  -38.3811 H   0  0  0  0  0  0  0  0  0  0  0  0
  -12.9469   13.0957  -37.1874 H   0  0  0  0  0  0  0  0  0  0  0  0
  -11.8341   12.9096  -38.5342 H   0  0  0  0  0  0  0  0  0  0  0  0
  -14.6811   16.0493  -37.3539 H   0  0  0  0  0  0  0  0  0  0  0  0
  -13.6540   17.3904  -37.8385 H   0  0  0  0  0  0  0  0  0  0  0  0
  -12.0229   17.1151  -39.8123 H   0  0  0  0  0  0  0  0  0  0  0  0
  -11.9354   15.5843  -40.6704 H   0  0  0  0  0  0  0  0  0  0  0  0
  -13.4428   13.6217  -39.9596 H   0  0  0  0  0  0  0  0  0  0  0  0
  -14.5536   13.8128  -38.6115 H   0  0  0  0  0  0  0  0  0  0  0  0
  -15.4118   15.8644  -39.6918 H   0  0  0  0  0  0  0  0  0  0  0  0
  -14.4478   17.1048  -40.1374 H   0  0  0  0  0  0  0  0  0  0  0  0
  1  4  1  0  0  0  0
  1  7  1  0  0  0  0
  2  5  1  0  0  0  0
  2  7  1  0  0  0  0
  3  6  1  0  0  0  0
  3  7  1  0  0  0  0
  4  8  1  0  0  0  0
  5  8  1  0  0  0  0
  6  8  1  0  0  0  0
  7  9  1  0  0  0  0
  8 10  1  0  0  0  0
  9 11  1  0  0  0  0
  9 12  1  0  0  0  0
  9 13  1  0  0  0  0
  1 14  1  0  0  0  0
  1 15  1  0  0  0  0
  2 16  1  0  0  0  0
  2 17  1  0  0  0  0
  3 18  1  0  0  0  0
  3 19  1  0  0  0  0
  4 20  1  0  0  0  0
  4 21  1  0  0  0  0
  5 22  1  0  0  0  0
  5 23  1  0  0  0  0
  6 24  1  0  0  0  0
  6 25  1  0  0  0  0
 10 26  1  0  0  0  0
 10 27  1  0  0  0  0
M  END
> <id>
EN300-177922

> <smiles>
Cl.NC1(CCC2(CC1)C(F)(F)F)CC2

> <MDLNUMBER>
MFCD28023685

> <IUPAC Name>
4-(trifluoromethyl)bicyclo[2.2.2]octan-1-amine hydrochloride

> <CAS>
22189-91-9

> <Purity>
95

> <URL>
https://www.enaminestore.com/catalog/EN300-177922

> <Saltdate>
Cl

> <ROCS_ShapeQuery>
_x1247relevant_x1083L0AP1_x1305L0BP1_

> <ROCS_TanimotoCombo>
1.121 

> <ROCS_ShapeTanimoto>
0.531 

> <ROCS_ColorTanimoto>
0.590 

> <ROCS_RefTversky>
0.443 

> <ROCS_RefColorTversky>
0.684 

> <ROCS_RefTverskyCombo>
1.127 

> <ROCS_FitTversky>
1.599 

> <ROCS_FitColorTversky>
0.812 

> <ROCS_FitTverskyCombo>
2.411 

> <ROCS_ColorScore>
-6.553

> <ROCS_Overlap>
1090.453

> <ROCS_Rank>
12                  

$$$$
untitled-dbase-38039_0
  -OEChem-06232314403D

 27 28  0     0  0  0  0  0  0999 V2000
  -12.6056   15.8137  -36.7937 C   0  0  0  0  0  0  0  0  0  0  0  0
  -11.0166   15.5471  -38.7132 C   0  0  0  0  0  0  0  0  0  0  0  0
  -12.4805   13.6336  -38.0224 C   0  0  0  0  0  0  0  0  0  0  0  0
  -13.6932   16.2958  -37.7644 C   0  0  0  0  0  0  0  0  0  0  0  0
  -12.1070   16.0285  -39.6812 C   0  0  0  0  0  0  0  0  0  0  0  0
  -13.5696   14.1197  -38.9894 C   0  0  0  0  0  0  0  0  0  0  0  0
  -11.6462   14.8259  -37.4981 C   0  0  0  0  0  0  0  0  0  0  0  0
  -13.4943   15.6468  -39.1430 C   0  0  0  0  0  0  0  0  0  0  0  0
  -10.5618   14.3446  -36.5338 C   0  0  0  0  0  0  0  0  0  0  0  0
  -14.5278   16.1188  -40.0632 N   0  0  0  0  0  0  0  0  0  0  0  0
  -11.1230   13.7221  -35.4869 F   0  0  0  0  0  0  0  0  0  0  0  0
   -9.7390   13.4901  -37.1592 F   0  0  0  0  0  0  0  0  0  0  0  0
   -9.8486   15.3894  -36.0884 F   0  0  0  0  0  0  0  0  0  0  0  0
  -12.0507   16.6781  -36.4074 H   0  0  0  0  0  0  0  0  0  0  0  0
  -13.0771   15.3361  -35.9255 H   0  0  0  0  0  0  0  0  0  0  0  0
  -10.3283   14.8765  -39.2426 H   0  0  0  0  0  0  0  0  0  0  0  0
  -10.4186   16.4052  -38.3811 H   0  0  0  0  0  0  0  0  0  0  0  0
  -12.9469   13.0957  -37.1874 H   0  0  0  0  0  0  0  0  0  0  0  0
  -11.8341   12.9096  -38.5342 H   0  0  0  0  0  0  0  0  0  0  0  0
  -14.6811   16.0493  -37.3539 H   0  0  0  0  0  0  0  0  0  0  0  0
  -13.6540   17.3904  -37.8385 H   0  0  0  0  0  0  0  0  0  0  0  0
  -12.0229   17.1151  -39.8123 H   0  0  0  0  0  0  0  0  0  0  0  0
  -11.9354   15.5843  -40.6704 H   0  0  0  0  0  0  0  0  0  0  0  0
  -13.4428   13.6217  -39.9596 H   0  0  0  0  0  0  0  0  0  0  0  0
  -14.5536   13.8128  -38.6115 H   0  0  0  0  0  0  0  0  0  0  0  0
  -15.4118   15.8644  -39.6918 H   0  0  0  0  0  0  0  0  0  0  0  0
  -14.4478   17.1048  -40.1374 H   0  0  0  0  0  0  0  0  0  0  0  0
  1  4  1  0  0  0  0
  1  7  1  0  0  0  0
  2  5  1  0  0  0  0
  2  7  1  0  0  0  0
  3  6  1  0  0  0  0
  3  7  1  0  0  0  0
  4  8  1  0  0  0  0
  5  8  1  0  0  0  0
  6  8  1  0  0  0  0
  7  9  1  0  0  0  0
  8 10  1  0  0  0  0
  9 11  1  0  0  0  0
  9 12  1  0  0  0  0
  9 13  1  0  0  0  0
  1 14  1  0  0  0  0
  1 15  1  0  0  0  0
  2 16  1  0  0  0  0
  2 17  1  0  0  0  0
  3 18  1  0  0  0  0
  3 19  1  0  0  0  0
  4 20  1  0  0  0  0
  4 21  1  0  0  0  0
  5 22  1  0  0  0  0
  5 23  1  0  0  0  0
  6 24  1  0  0  0  0
  6 25  1  0  0  0  0
 10 26  1  0  0  0  0
 10 27  1  0  0  0  0
M  END
> <id>
EN300-177920

> <smiles>
NC1(CCC2(CC1)C(F)(F)F)CC2

> <MDLNUMBER>
MFCD20699464

> <IUPAC Name>
4-(trifluoromethyl)bicyclo[2.2.2]octan-1-amine

> <CAS>
135908-49-5

> <URL>
https://www.enaminestore.com/catalog/EN300-177920

> <ROCS_ShapeQuery>
_x1247relevant_x1083L0AP1_x1305L0BP1_

> <ROCS_TanimotoCombo>
1.121 

> <ROCS_ShapeTanimoto>
0.531 

> <ROCS_ColorTanimoto>
0.590 

> <ROCS_RefTversky>
0.443 

> <ROCS_RefColorTversky>
0.684 

> <ROCS_RefTverskyCombo>
1.127 

> <ROCS_FitTversky>
1.599 

> <ROCS_FitColorTversky>
0.812 

> <ROCS_FitTverskyCombo>
2.411 

> <ROCS_ColorScore>
-6.553

> <ROCS_Overlap>
1090.453

> <ROCS_Rank>
13                  

$$$$
untitled-dbase-25753_0
  -OEChem-06232314403D

 21 22  0     0  0  0  0  0  0999 V2000
  -15.3333   14.0566  -40.6388 C   0  0  0  0  0  0  0  0  0  0  0  0
  -14.4820   14.4800  -39.9060 C   0  0  0  0  0  0  0  0  0  0  0  0
  -13.9934   15.6054  -37.7084 C   0  0  0  0  0  0  0  0  0  0  0  0
  -12.4965   16.0104  -39.6826 C   0  0  0  0  0  0  0  0  0  0  0  0
  -12.7672   15.5775  -36.7827 C   0  0  0  0  0  0  0  0  0  0  0  0
  -11.2689   15.9831  -38.7587 C   0  0  0  0  0  0  0  0  0  0  0  0
  -12.4695   13.9430  -38.4901 C   0  0  0  0  0  0  0  0  0  0  0  0
  -13.4490   14.9942  -39.0172 C   0  0  0  0  0  0  0  0  0  0  0  0
  -11.6877   14.9736  -37.6858 C   0  0  0  0  0  0  0  0  0  0  0  0
  -10.6546   14.4742  -37.0050 F   0  0  0  0  0  0  0  0  0  0  0  0
  -16.0885   13.6807  -41.2888 H   0  0  0  0  0  0  0  0  0  0  0  0
  -14.8017   15.0004  -37.2794 H   0  0  0  0  0  0  0  0  0  0  0  0
  -14.3776   16.6220  -37.8472 H   0  0  0  0  0  0  0  0  0  0  0  0
  -12.9334   17.0128  -39.7515 H   0  0  0  0  0  0  0  0  0  0  0  0
  -12.2109   15.7008  -40.6953 H   0  0  0  0  0  0  0  0  0  0  0  0
  -12.4993   16.5748  -36.4194 H   0  0  0  0  0  0  0  0  0  0  0  0
  -12.9501   14.9427  -35.9087 H   0  0  0  0  0  0  0  0  0  0  0  0
  -10.3794   15.6391  -39.2980 H   0  0  0  0  0  0  0  0  0  0  0  0
  -11.0424   16.9690  -38.3405 H   0  0  0  0  0  0  0  0  0  0  0  0
  -12.9315   13.1678  -37.8682 H   0  0  0  0  0  0  0  0  0  0  0  0
  -11.8704   13.4550  -39.2675 H   0  0  0  0  0  0  0  0  0  0  0  0
  1  2  3  0  0  0  0
  2  8  1  0  0  0  0
  3  5  1  0  0  0  0
  3  8  1  0  0  0  0
  4  6  1  0  0  0  0
  4  8  1  0  0  0  0
  5  9  1  0  0  0  0
  6  9  1  0  0  0  0
  7  8  1  0  0  0  0
  7  9  1  0  0  0  0
  9 10  1  0  0  0  0
  1 11  1  0  0  0  0
  3 12  1  0  0  0  0
  3 13  1  0  0  0  0
  4 14  1  0  0  0  0
  4 15  1  0  0  0  0
  5 16  1  0  0  0  0
  5 17  1  0  0  0  0
  6 18  1  0  0  0  0
  6 19  1  0  0  0  0
  7 20  1  0  0  0  0
  7 21  1  0  0  0  0
M  END
> <id>
EN300-6499583

> <smiles>
FC1(CCC2(CC1)C#C)C2

> <MDLNUMBER>
MFCD31794458

> <IUPAC Name>
1-ethynyl-4-fluorobicyclo[2.2.1]heptane

> <CAS>
2287310-81-8

> <Purity>
95

> <URL>
https://www.enaminestore.com/catalog/EN300-6499583

> <ROCS_ShapeQuery>
_x1247relevant_x1083L0AP1_x1305L0BP1_

> <ROCS_TanimotoCombo>
1.120 

> <ROCS_ShapeTanimoto>
0.460 

> <ROCS_ColorTanimoto>
0.660 

> <ROCS_RefTversky>
0.386 

> <ROCS_RefColorTversky>
0.707 

> <ROCS_RefTverskyCombo>
1.093 

> <ROCS_FitTversky>
1.722 

> <ROCS_FitColorTversky>
0.909 

> <ROCS_FitTverskyCombo>
2.631 

> <ROCS_ColorScore>
-6.752

> <ROCS_Overlap>
947.289

> <ROCS_Rank>
14                  

$$$$
untitled-dbase-35118_1
  -OEChem-06232314403D

 28 30  0     0  0  0  0  0  0999 V2000
   -8.9615   14.9759  -36.3277 C   0  0  0  0  0  0  0  0  0  0  0  0
   -9.4385   13.6730  -36.2514 C   0  0  0  0  0  0  0  0  0  0  0  0
   -9.6943   15.9461  -37.0097 C   0  0  0  0  0  0  0  0  0  0  0  0
  -10.6476   13.3387  -36.8609 C   0  0  0  0  0  0  0  0  0  0  0  0
  -10.9146   15.6189  -37.6227 C   0  0  0  0  0  0  0  0  0  0  0  0
  -11.4020   14.2999  -37.5593 C   0  0  0  0  0  0  0  0  0  0  0  0
  -11.6451   16.7141  -38.3255 C   0  0  0  0  0  0  0  0  0  0  0  0
  -12.7427   14.1961  -39.7031 C   0  0  0  0  0  0  0  0  0  0  0  0
  -13.9047   14.4594  -37.4711 C   0  0  0  0  0  0  0  0  0  0  0  0
  -13.1716   15.6378  -39.9801 C   0  0  0  0  0  0  0  0  0  0  0  0
  -13.9532   15.9835  -37.5847 C   0  0  0  0  0  0  0  0  0  0  0  0
  -12.7033   13.8563  -38.2050 C   0  0  0  0  0  0  0  0  0  0  0  0
  -13.0979   16.5181  -38.7368 C   0  0  0  0  0  0  0  0  0  0  0  0
  -11.0584   17.7620  -38.5918 O   0  0  0  0  0  0  0  0  0  0  0  0
   -8.0168   15.2378  -35.8602 H   0  0  0  0  0  0  0  0  0  0  0  0
   -8.8723   12.9161  -35.7166 H   0  0  0  0  0  0  0  0  0  0  0  0
   -9.2901   16.9542  -37.0593 H   0  0  0  0  0  0  0  0  0  0  0  0
  -11.0006   12.3127  -36.7839 H   0  0  0  0  0  0  0  0  0  0  0  0
  -13.4500   13.5143  -40.1983 H   0  0  0  0  0  0  0  0  0  0  0  0
  -11.7662   14.0075  -40.1720 H   0  0  0  0  0  0  0  0  0  0  0  0
  -13.9001   14.1645  -36.4163 H   0  0  0  0  0  0  0  0  0  0  0  0
  -14.8308   14.0570  -37.8962 H   0  0  0  0  0  0  0  0  0  0  0  0
  -12.5509   16.0576  -40.7818 H   0  0  0  0  0  0  0  0  0  0  0  0
  -14.1983   15.6256  -40.3661 H   0  0  0  0  0  0  0  0  0  0  0  0
  -14.9933   16.2967  -37.7449 H   0  0  0  0  0  0  0  0  0  0  0  0
  -13.6411   16.4302  -36.6326 H   0  0  0  0  0  0  0  0  0  0  0  0
  -12.7868   12.7661  -38.1023 H   0  0  0  0  0  0  0  0  0  0  0  0
  -13.4646   17.5120  -39.0278 H   0  0  0  0  0  0  0  0  0  0  0  0
  1  2  2  0  0  0  0
  1  3  1  0  0  0  0
  2  4  1  0  0  0  0
  3  5  2  0  0  0  0
  4  6  2  0  0  0  0
  5  6  1  0  0  0  0
  5  7  1  0  0  0  0
  6 12  1  0  0  0  0
  7 13  1  0  0  0  0
  7 14  2  0  0  0  0
  8 10  1  0  0  0  0
  8 12  1  0  0  0  0
  9 11  1  0  0  0  0
  9 12  1  0  0  0  0
 10 13  1  0  0  0  0
 11 13  1  0  0  0  0
  1 15  1  0  0  0  0
  2 16  1  0  0  0  0
  3 17  1  0  0  0  0
  4 18  1  0  0  0  0
  8 19  1  0  0  0  0
  8 20  1  0  0  0  0
  9 21  1  0  0  0  0
  9 22  1  0  0  0  0
 10 23  1  0  0  0  0
 10 24  1  0  0  0  0
 11 25  1  0  0  0  0
 11 26  1  0  0  0  0
 12 27  1  0  0  0  0
 13 28  1  0  0  0  0
M  END
> <id>
EN300-26981235

> <smiles>
O=C1C2CCC(CC2)C=3C=CC=CC13

> <MDLNUMBER>
MFCD32702778

> <IUPAC Name>
tricyclo[7.2.2.0,2,7]trideca-2,4,6-trien-8-one

> <CAS>
56129-78-3

> <Purity>
95

> <URL>
https://www.enaminestore.com/catalog/EN300-26981235

> <ROCS_ShapeQuery>
_x1247relevant_x1083L0AP1_x1305L0BP1_

> <ROCS_TanimotoCombo>
1.116 

> <ROCS_ShapeTanimoto>
0.503 

> <ROCS_ColorTanimoto>
0.613 

> <ROCS_RefTversky>
0.434 

> <ROCS_RefColorTversky>
0.685 

> <ROCS_RefTverskyCombo>
1.119 

> <ROCS_FitTversky>
1.465 

> <ROCS_FitColorTversky>
0.854 

> <ROCS_FitTverskyCombo>
2.319 

> <ROCS_ColorScore>
-6.544

> <ROCS_Overlap>
1069.981

> <ROCS_Rank>
15                  

$$$$
untitled-dbase-29340_0
  -OEChem-06232314403D

 25 27  0     1  0  0  0  0  0999 V2000
   -9.0287   14.9954  -36.3888 C   0  0  0  0  0  0  0  0  0  0  0  0
   -9.6071   13.7466  -36.1540 C   0  0  0  0  0  0  0  0  0  0  0  0
   -9.6713   15.9264  -37.2044 C   0  0  0  0  0  0  0  0  0  0  0  0
  -10.8325   13.4170  -36.7362 C   0  0  0  0  0  0  0  0  0  0  0  0
  -10.8963   15.5956  -37.7852 C   0  0  0  0  0  0  0  0  0  0  0  0
  -11.4855   14.3364  -37.5627 C   0  0  0  0  0  0  0  0  0  0  0  0
  -11.6207   16.5692  -38.6470 C   0  0  0  0  0  0  0  0  0  0  0  0
  -13.9592   14.7283  -37.4624 C   0  0  0  0  0  0  0  0  0  0  0  0
  -14.0164   16.1330  -38.0891 C   0  0  0  0  0  0  0  0  0  0  0  0
  -12.8732   14.6401  -39.5879 C   0  0  0  0  0  0  0  0  0  0  0  0
  -12.8218   14.0030  -38.1979 C   0  0  1  0  0  0  0  0  0  0  0  0
  -12.9658   16.1148  -39.2053 C   0  0  2  0  0  0  0  0  0  0  0  0
  -11.1714   17.6911  -38.8516 O   0  0  0  0  0  0  0  0  0  0  0  0
   -8.0753   15.2437  -35.9309 H   0  0  0  0  0  0  0  0  0  0  0  0
   -9.1029   13.0281  -35.5139 H   0  0  0  0  0  0  0  0  0  0  0  0
   -9.2085   16.8947  -37.3709 H   0  0  0  0  0  0  0  0  0  0  0  0
  -11.2702   12.4414  -36.5423 H   0  0  0  0  0  0  0  0  0  0  0  0
  -13.8135   14.7731  -36.3777 H   0  0  0  0  0  0  0  0  0  0  0  0
  -14.9112   14.2162  -37.6480 H   0  0  0  0  0  0  0  0  0  0  0  0
  -15.0152   16.3082  -38.5048 H   0  0  0  0  0  0  0  0  0  0  0  0
  -13.8246   16.9096  -37.3409 H   0  0  0  0  0  0  0  0  0  0  0  0
  -11.9938   14.4094  -40.1997 H   0  0  0  0  0  0  0  0  0  0  0  0
  -13.7707   14.3214  -40.1312 H   0  0  0  0  0  0  0  0  0  0  0  0
  -12.9781   12.9203  -38.2418 H   0  0  0  0  0  0  0  0  0  0  0  0
  -13.2346   16.7467  -40.0568 H   0  0  0  0  0  0  0  0  0  0  0  0
  1  2  2  0  0  0  0
  1  3  1  0  0  0  0
  2  4  1  0  0  0  0
  3  5  2  0  0  0  0
  4  6  2  0  0  0  0
  5  6  1  0  0  0  0
  5  7  1  0  0  0  0
  6 11  1  0  0  0  0
  7 12  1  0  0  0  0
  7 13  2  0  0  0  0
  8  9  1  0  0  0  0
  8 11  1  0  0  0  0
  9 12  1  0  0  0  0
 10 11  1  0  0  0  0
 10 12  1  0  0  0  0
  1 14  1  0  0  0  0
  2 15  1  0  0  0  0
  3 16  1  0  0  0  0
  4 17  1  0  0  0  0
  8 18  1  0  0  0  0
  8 19  1  0  0  0  0
  9 20  1  0  0  0  0
  9 21  1  0  0  0  0
 10 22  1  0  0  0  0
 10 23  1  0  0  0  0
 11 24  1  0  0  0  0
 12 25  1  0  0  0  0
M  END
> <id>
EN300-7436703

> <smiles>
O=C1C2CCC(C2)C=3C=CC=CC13

> <MDLNUMBER>
MFCD19301357

> <IUPAC Name>
tricyclo[7.2.1.0,2,7]dodeca-2,4,6-trien-8-one

> <CAS>
5387-19-9

> <Purity>
95

> <URL>
https://www.enaminestore.com/catalog/EN300-7436703

> <ROCS_ShapeQuery>
_x1247relevant_x1083L0AP1_x1305L0BP1_

> <ROCS_TanimotoCombo>
1.115 

> <ROCS_ShapeTanimoto>
0.503 

> <ROCS_ColorTanimoto>
0.612 

> <ROCS_RefTversky>
0.429 

> <ROCS_RefColorTversky>
0.692 

> <ROCS_RefTverskyCombo>
1.121 

> <ROCS_FitTversky>
1.520 

> <ROCS_FitColorTversky>
0.841 

> <ROCS_FitTverskyCombo>
2.362 

> <ROCS_ColorScore>
-6.620

> <ROCS_Overlap>
1057.488

> <ROCS_Rank>
16                  

$$$$
untitled-dbase-43820_0
  -OEChem-06232314403D

 29 31  0     1  0  0  0  0  0999 V2000
  -14.2109   14.6535  -37.9002 C   0  0  0  0  0  0  0  0  0  0  0  0
  -11.8951   13.6889  -37.9278 C   0  0  0  0  0  0  0  0  0  0  0  0
  -12.3579   15.8184  -36.6741 C   0  0  0  0  0  0  0  0  0  0  0  0
  -12.8542   14.7091  -40.0075 C   0  0  0  0  0  0  0  0  0  0  0  0
  -13.3155   16.8325  -38.7574 C   0  0  0  0  0  0  0  0  0  0  0  0
  -10.9993   15.8733  -38.7869 C   0  0  0  0  0  0  0  0  0  0  0  0
  -13.1814   13.8882  -38.7502 C   0  0  2  0  0  0  0  0  0  0  0  0
  -13.6458   16.0254  -37.4920 C   0  0  1  0  0  0  0  0  0  0  0  0
  -11.3009   15.0559  -37.5098 C   0  0  0  0  0  0  0  0  0  0  0  0
  -12.2844   16.0729  -39.6003 C   0  0  0  0  0  0  0  0  0  0  0  0
  -10.0222   14.8529  -36.6936 C   0  0  0  0  0  0  0  0  0  0  0  0
  -12.0013   16.7909  -40.7154 F   0  0  0  0  0  0  0  0  0  0  0  0
   -9.1137   14.1923  -37.4251 F   0  0  0  0  0  0  0  0  0  0  0  0
   -9.5153   16.0413  -36.3361 F   0  0  0  0  0  0  0  0  0  0  0  0
  -10.2937   14.1433  -35.5891 F   0  0  0  0  0  0  0  0  0  0  0  0
  -15.1397   14.7863  -38.4686 H   0  0  0  0  0  0  0  0  0  0  0  0
  -14.4650   14.0717  -37.0057 H   0  0  0  0  0  0  0  0  0  0  0  0
  -12.1165   13.0841  -37.0390 H   0  0  0  0  0  0  0  0  0  0  0  0
  -11.1641   13.1230  -38.5198 H   0  0  0  0  0  0  0  0  0  0  0  0
  -11.9615   16.7924  -36.3595 H   0  0  0  0  0  0  0  0  0  0  0  0
  -12.5897   15.2615  -35.7571 H   0  0  0  0  0  0  0  0  0  0  0  0
  -12.1337   14.1750  -40.6393 H   0  0  0  0  0  0  0  0  0  0  0  0
  -13.7525   14.8463  -40.6220 H   0  0  0  0  0  0  0  0  0  0  0  0
  -14.2230   17.0118  -39.3472 H   0  0  0  0  0  0  0  0  0  0  0  0
  -12.9264   17.8231  -38.4916 H   0  0  0  0  0  0  0  0  0  0  0  0
  -10.5686   16.8503  -38.5315 H   0  0  0  0  0  0  0  0  0  0  0  0
  -10.2463   15.3670  -39.4048 H   0  0  0  0  0  0  0  0  0  0  0  0
  -13.5907   12.9138  -39.0393 H   0  0  0  0  0  0  0  0  0  0  0  0
  -14.3843   16.5657  -36.8893 H   0  0  0  0  0  0  0  0  0  0  0  0
  1  7  1  0  0  0  0
  1  8  1  0  0  0  0
  2  7  1  0  0  0  0
  2  9  1  0  0  0  0
  3  8  1  0  0  0  0
  3  9  1  0  0  0  0
  4  7  1  0  0  0  0
  4 10  1  0  0  0  0
  5  8  1  0  0  0  0
  5 10  1  0  0  0  0
  6  9  1  0  0  0  0
  6 10  1  0  0  0  0
  9 11  1  0  0  0  0
 10 12  1  0  0  0  0
 11 13  1  0  0  0  0
 11 14  1  0  0  0  0
 11 15  1  0  0  0  0
  1 16  1  0  0  0  0
  1 17  1  0  0  0  0
  2 18  1  0  0  0  0
  2 19  1  0  0  0  0
  3 20  1  0  0  0  0
  3 21  1  0  0  0  0
  4 22  1  0  0  0  0
  4 23  1  0  0  0  0
  5 24  1  0  0  0  0
  5 25  1  0  0  0  0
  6 26  1  0  0  0  0
  6 27  1  0  0  0  0
  7 28  1  0  0  0  0
  8 29  1  0  0  0  0
M  END
> <id>
EN300-27695130

> <smiles>
FC(F)(F)C1(CC2CC3CC(F)(C2)C1)C3

> <IUPAC Name>
1-fluoro-3-(trifluoromethyl)adamantane

> <CAS>
40556-45-4

> <Purity>
95

> <URL>
https://www.enaminestore.com/catalog/EN300-27695130

> <ROCS_ShapeQuery>
_x1247relevant_x1083L0AP1_x1305L0BP1_

> <ROCS_TanimotoCombo>
1.115 

> <ROCS_ShapeTanimoto>
0.574 

> <ROCS_ColorTanimoto>
0.541 

> <ROCS_RefTversky>
0.481 

> <ROCS_RefColorTversky>
0.596 

> <ROCS_RefTverskyCombo>
1.077 

> <ROCS_FitTversky>
1.506 

> <ROCS_FitColorTversky>
0.854 

> <ROCS_FitTverskyCombo>
2.360 

> <ROCS_ColorScore>
-5.666

> <ROCS_Overlap>
1187.303

> <ROCS_Rank>
17                  

$$$$
untitled-dbase-30248_0
  -OEChem-06232314403D

 26 28  0     1  0  0  0  0  0999 V2000
   -9.6558   14.5712  -36.4461 C   0  0  0  0  0  0  0  0  0  0  0  0
  -10.2654   15.9294  -36.7591 C   0  0  0  0  0  0  0  0  0  0  0  0
  -10.7761   13.5973  -36.7791 C   0  0  0  0  0  0  0  0  0  0  0  0
  -13.0736   16.1329  -39.4657 C   0  0  0  0  0  0  0  0  0  0  0  0
  -13.4039   14.6300  -39.4775 C   0  0  0  0  0  0  0  0  0  0  0  0
  -13.3204   15.3813  -37.2313 C   0  0  0  0  0  0  0  0  0  0  0  0
  -12.4701   16.3456  -38.0638 C   0  0  1  0  0  0  0  0  0  0  0  0
  -12.9488   14.1626  -38.0814 C   0  0  2  0  0  0  0  0  0  0  0  0
  -11.0745   15.6883  -38.0344 C   0  0  2  0  0  0  0  0  0  0  0  0
  -11.4063   14.1753  -38.0471 C   0  0  1  0  0  0  0  0  0  0  0  0
   -8.7884   14.3868  -37.0910 H   0  0  0  0  0  0  0  0  0  0  0  0
   -9.3317   14.4913  -35.4046 H   0  0  0  0  0  0  0  0  0  0  0  0
  -10.9004   16.2615  -35.9302 H   0  0  0  0  0  0  0  0  0  0  0  0
   -9.4966   16.6942  -36.9070 H   0  0  0  0  0  0  0  0  0  0  0  0
  -10.3967   12.5837  -36.9424 H   0  0  0  0  0  0  0  0  0  0  0  0
  -11.4946   13.5473  -35.9534 H   0  0  0  0  0  0  0  0  0  0  0  0
  -12.3834   16.4089  -40.2690 H   0  0  0  0  0  0  0  0  0  0  0  0
  -13.9910   16.7198  -39.5879 H   0  0  0  0  0  0  0  0  0  0  0  0
  -14.4824   14.4835  -39.6049 H   0  0  0  0  0  0  0  0  0  0  0  0
  -12.8907   14.1023  -40.2876 H   0  0  0  0  0  0  0  0  0  0  0  0
  -13.0070   15.3041  -36.1869 H   0  0  0  0  0  0  0  0  0  0  0  0
  -14.3902   15.6162  -37.2635 H   0  0  0  0  0  0  0  0  0  0  0  0
  -12.4815   17.3872  -37.7362 H   0  0  0  0  0  0  0  0  0  0  0  0
  -13.3959   13.2165  -37.7697 H   0  0  0  0  0  0  0  0  0  0  0  0
  -10.4769   15.9654  -38.9113 H   0  0  0  0  0  0  0  0  0  0  0  0
  -10.9768   13.6878  -38.9308 H   0  0  0  0  0  0  0  0  0  0  0  0
  1  2  1  0  0  0  0
  1  3  1  0  0  0  0
  2  9  1  0  0  0  0
  3 10  1  0  0  0  0
  4  5  1  0  0  0  0
  4  7  1  0  0  0  0
  5  8  1  0  0  0  0
  6  7  1  0  0  0  0
  6  8  1  0  0  0  0
  7  9  1  0  0  0  0
  8 10  1  0  0  0  0
  9 10  1  0  0  0  0
  1 11  1  0  0  0  0
  1 12  1  0  0  0  0
  2 13  1  0  0  0  0
  2 14  1  0  0  0  0
  3 15  1  0  0  0  0
  3 16  1  0  0  0  0
  4 17  1  0  0  0  0
  4 18  1  0  0  0  0
  5 19  1  0  0  0  0
  5 20  1  0  0  0  0
  6 21  1  0  0  0  0
  6 22  1  0  0  0  0
  7 23  1  0  0  0  0
  8 24  1  0  0  0  0
  9 25  1  0  0  0  0
 10 26  1  0  0  0  0
M  END
> <id>
EN300-7539455

> <smiles>
C1CC2C3CCC(C3)C2C1

> <IUPAC Name>
tricyclo[5.2.1.0,2,6]decane

> <CAS>
6004-38-2

> <URL>
https://www.enaminestore.com/catalog/EN300-7539455

> <MP>
77-78

> <ROCS_ShapeQuery>
_x1247relevant_x1083L0AP1_x1305L0BP1_

> <ROCS_TanimotoCombo>
1.108 

> <ROCS_ShapeTanimoto>
0.468 

> <ROCS_ColorTanimoto>
0.640 

> <ROCS_RefTversky>
0.391 

> <ROCS_RefColorTversky>
0.698 

> <ROCS_RefTverskyCombo>
1.089 

> <ROCS_FitTversky>
1.734 

> <ROCS_FitColorTversky>
0.885 

> <ROCS_FitTverskyCombo>
2.619 

> <ROCS_ColorScore>
-6.668

> <ROCS_Overlap>
959.833

> <ROCS_Rank>
18                  

$$$$
untitled-dbase-24006_0
  -OEChem-06232314403D

 22 24  0     1  0  0  0  0  0999 V2000
  -10.0491   14.7043  -36.2276 C   0  0  0  0  0  0  0  0  0  0  0  0
  -10.2784   15.8792  -36.8199 C   0  0  0  0  0  0  0  0  0  0  0  0
  -13.1495   16.0827  -39.3617 C   0  0  0  0  0  0  0  0  0  0  0  0
  -13.3893   14.7646  -39.4445 C   0  0  0  0  0  0  0  0  0  0  0  0
  -10.6722   13.5573  -36.9521 C   0  0  0  0  0  0  0  0  0  0  0  0
  -13.2805   15.2852  -37.2035 C   0  0  0  0  0  0  0  0  0  0  0  0
  -12.5101   16.3369  -38.0142 C   0  0  1  0  0  0  0  0  0  0  0  0
  -12.9095   14.1393  -38.1520 C   0  0  2  0  0  0  0  0  0  0  0  0
  -11.0810   15.7402  -38.0716 C   0  0  2  0  0  0  0  0  0  0  0  0
  -11.3573   14.1988  -38.1669 C   0  0  1  0  0  0  0  0  0  0  0  0
   -9.4828   14.5909  -35.3142 H   0  0  0  0  0  0  0  0  0  0  0  0
   -9.9170   16.8260  -36.4447 H   0  0  0  0  0  0  0  0  0  0  0  0
  -13.3256   16.8163  -40.1318 H   0  0  0  0  0  0  0  0  0  0  0  0
  -13.7946   14.2385  -40.2938 H   0  0  0  0  0  0  0  0  0  0  0  0
   -9.8956   12.8559  -37.2750 H   0  0  0  0  0  0  0  0  0  0  0  0
  -11.3765   13.0180  -36.3112 H   0  0  0  0  0  0  0  0  0  0  0  0
  -12.9140   15.1519  -36.1812 H   0  0  0  0  0  0  0  0  0  0  0  0
  -14.3607   15.4788  -37.1578 H   0  0  0  0  0  0  0  0  0  0  0  0
  -12.6007   17.3597  -37.6457 H   0  0  0  0  0  0  0  0  0  0  0  0
  -13.3583   13.1739  -37.9152 H   0  0  0  0  0  0  0  0  0  0  0  0
  -10.5097   16.1028  -38.9342 H   0  0  0  0  0  0  0  0  0  0  0  0
  -10.9561   13.7746  -39.0964 H   0  0  0  0  0  0  0  0  0  0  0  0
  1  2  2  0  0  0  0
  1  5  1  0  0  0  0
  2  9  1  0  0  0  0
  3  4  2  0  0  0  0
  3  7  1  0  0  0  0
  4  8  1  0  0  0  0
  5 10  1  0  0  0  0
  6  7  1  0  0  0  0
  6  8  1  0  0  0  0
  7  9  1  0  0  0  0
  8 10  1  0  0  0  0
  9 10  1  0  0  0  0
  1 11  1  0  0  0  0
  2 12  1  0  0  0  0
  3 13  1  0  0  0  0
  4 14  1  0  0  0  0
  5 15  1  0  0  0  0
  5 16  1  0  0  0  0
  6 17  1  0  0  0  0
  6 18  1  0  0  0  0
  7 19  1  0  0  0  0
  8 20  1  0  0  0  0
  9 21  1  0  0  0  0
 10 22  1  0  0  0  0
M  END
> <id>
EN300-19736

> <smiles>
C1C=CC2C3CC(C=C3)C12

> <MDLNUMBER>
MFCD00078246

> <IUPAC Name>
tricyclo[5.2.1.0,2,6]deca-3,8-diene

> <CAS>
77-73-6

> <Purity>
95

> <URL>
https://www.enaminestore.com/catalog/EN300-19736

> <MP>
33-34

> <ROCS_ShapeQuery>
_x1247relevant_x1083L0AP1_x1305L0BP1_

> <ROCS_TanimotoCombo>
1.103 

> <ROCS_ShapeTanimoto>
0.471 

> <ROCS_ColorTanimoto>
0.632 

> <ROCS_RefTversky>
0.394 

> <ROCS_RefColorTversky>
0.696 

> <ROCS_RefTverskyCombo>
1.090 

> <ROCS_FitTversky>
1.707 

> <ROCS_FitColorTversky>
0.874 

> <ROCS_FitTverskyCombo>
2.581 

> <ROCS_ColorScore>
-6.647

> <ROCS_Overlap>
967.707

> <ROCS_Rank>
19                  

$$$$
untitled-dbase-34970_0
  -OEChem-06232314403D

 22 24  0     0  0  0  0  0  0999 V2000
   -8.9478   14.8489  -36.6567 C   0  0  0  0  0  0  0  0  0  0  0  0
   -9.7032   13.8506  -36.0378 C   0  0  0  0  0  0  0  0  0  0  0  0
   -9.5292   15.6768  -37.6137 C   0  0  0  0  0  0  0  0  0  0  0  0
  -11.0490   13.6714  -36.3714 C   0  0  0  0  0  0  0  0  0  0  0  0
  -10.8714   15.4881  -37.9374 C   0  0  0  0  0  0  0  0  0  0  0  0
  -11.6654   14.4855  -37.3290 C   0  0  0  0  0  0  0  0  0  0  0  0
  -11.5756   16.3303  -38.9522 C   0  0  0  0  0  0  0  0  0  0  0  0
  -13.9173   15.7627  -37.8383 C   0  0  0  0  0  0  0  0  0  0  0  0
  -13.3627   14.4076  -39.3476 C   0  0  0  0  0  0  0  0  0  0  0  0
  -13.1898   14.3697  -37.7851 C   0  0  0  0  0  0  0  0  0  0  0  0
  -13.1036   15.9454  -39.1682 C   0  0  0  0  0  0  0  0  0  0  0  0
  -10.9654   17.2250  -39.5312 O   0  0  0  0  0  0  0  0  0  0  0  0
   -7.9027   14.9788  -36.3898 H   0  0  0  0  0  0  0  0  0  0  0  0
   -9.2419   13.2092  -35.2920 H   0  0  0  0  0  0  0  0  0  0  0  0
   -8.9335   16.4494  -38.0894 H   0  0  0  0  0  0  0  0  0  0  0  0
  -11.6208   12.8893  -35.8786 H   0  0  0  0  0  0  0  0  0  0  0  0
  -15.0057   15.7127  -37.9628 H   0  0  0  0  0  0  0  0  0  0  0  0
  -13.6878   16.4630  -37.0302 H   0  0  0  0  0  0  0  0  0  0  0  0
  -12.6209   13.8567  -39.9329 H   0  0  0  0  0  0  0  0  0  0  0  0
  -14.3637   14.1444  -39.7095 H   0  0  0  0  0  0  0  0  0  0  0  0
  -13.7486   13.5764  -37.2782 H   0  0  0  0  0  0  0  0  0  0  0  0
  -13.5947   16.5764  -39.9152 H   0  0  0  0  0  0  0  0  0  0  0  0
  1  2  2  0  0  0  0
  1  3  1  0  0  0  0
  2  4  1  0  0  0  0
  3  5  2  0  0  0  0
  4  6  2  0  0  0  0
  5  6  1  0  0  0  0
  5  7  1  0  0  0  0
  6 10  1  0  0  0  0
  7 11  1  0  0  0  0
  7 12  2  0  0  0  0
  8 10  1  0  0  0  0
  8 11  1  0  0  0  0
  9 10  1  0  0  0  0
  9 11  1  0  0  0  0
  1 13  1  0  0  0  0
  2 14  1  0  0  0  0
  3 15  1  0  0  0  0
  4 16  1  0  0  0  0
  8 17  1  0  0  0  0
  8 18  1  0  0  0  0
  9 19  1  0  0  0  0
  9 20  1  0  0  0  0
 10 21  1  0  0  0  0
 11 22  1  0  0  0  0
M  END
> <id>
EN300-650580

> <smiles>
O=C1C2CC(C2)C=3C=CC=CC13

> <MDLNUMBER>
MFCD24692444

> <IUPAC Name>
tricyclo[7.1.1.0,2,7]undeca-2,4,6-trien-8-one

> <CAS>
69584-47-0

> <Purity>
95

> <URL>
https://www.enaminestore.com/catalog/EN300-650580

> <ROCS_ShapeQuery>
_x1247relevant_x1083L0AP1_x1305L0BP1_

> <ROCS_TanimotoCombo>
1.102 

> <ROCS_ShapeTanimoto>
0.496 

> <ROCS_ColorTanimoto>
0.606 

> <ROCS_RefTversky>
0.418 

> <ROCS_RefColorTversky>
0.694 

> <ROCS_RefTverskyCombo>
1.112 

> <ROCS_FitTversky>
1.597 

> <ROCS_FitColorTversky>
0.827 

> <ROCS_FitTverskyCombo>
2.424 

> <ROCS_ColorScore>
-6.650

> <ROCS_Overlap>
1028.795

> <ROCS_Rank>
20                  

$$$$
untitled-dbase-51323_0
  -OEChem-06232314403D

 22 24  0     0  0  0  0  0  0999 V2000
   -8.9461   14.8518  -36.6556 C   0  0  0  0  0  0  0  0  0  0  0  0
   -9.6968   13.8429  -36.0483 C   0  0  0  0  0  0  0  0  0  0  0  0
   -9.5309   15.6865  -37.6046 C   0  0  0  0  0  0  0  0  0  0  0  0
  -11.0412   13.6597  -36.3856 C   0  0  0  0  0  0  0  0  0  0  0  0
  -10.8716   15.4938  -37.9321 C   0  0  0  0  0  0  0  0  0  0  0  0
  -11.6608   14.4805  -37.3353 C   0  0  0  0  0  0  0  0  0  0  0  0
  -11.5791   16.3426  -38.9391 C   0  0  0  0  0  0  0  0  0  0  0  0
  -13.3551   14.4144  -39.3569 C   0  0  0  0  0  0  0  0  0  0  0  0
  -13.9191   15.7505  -37.8342 C   0  0  0  0  0  0  0  0  0  0  0  0
  -13.1839   14.3611  -37.7948 C   0  0  0  0  0  0  0  0  0  0  0  0
  -13.1047   15.9517  -39.1610 C   0  0  0  0  0  0  0  0  0  0  0  0
  -10.9732   17.2466  -39.5080 O   0  0  0  0  0  0  0  0  0  0  0  0
   -7.9023   14.9850  -36.3855 H   0  0  0  0  0  0  0  0  0  0  0  0
   -9.2331   13.1966  -35.3083 H   0  0  0  0  0  0  0  0  0  0  0  0
   -8.9390   16.4678  -38.0708 H   0  0  0  0  0  0  0  0  0  0  0  0
  -11.6094   12.8695  -35.9018 H   0  0  0  0  0  0  0  0  0  0  0  0
  -12.6096   13.8738  -39.9470 H   0  0  0  0  0  0  0  0  0  0  0  0
  -14.3542   14.1497  -39.7231 H   0  0  0  0  0  0  0  0  0  0  0  0
  -15.0069   15.6960  -37.9608 H   0  0  0  0  0  0  0  0  0  0  0  0
  -13.6944   16.4434  -37.0184 H   0  0  0  0  0  0  0  0  0  0  0  0
  -13.7390   13.5594  -37.2970 H   0  0  0  0  0  0  0  0  0  0  0  0
  -13.5983   16.5878  -39.9020 H   0  0  0  0  0  0  0  0  0  0  0  0
  1  2  2  0  0  0  0
  1  3  1  0  0  0  0
  2  4  1  0  0  0  0
  3  5  2  0  0  0  0
  4  6  2  0  0  0  0
  5  6  1  0  0  0  0
  5  7  1  0  0  0  0
  6 10  1  0  0  0  0
  7 11  1  0  0  0  0
  7 12  2  0  0  0  0
  8 10  1  1  0  0  0
  8 11  1  1  0  0  0
  9 10  1  0  0  0  0
  9 11  1  0  0  0  0
  1 13  1  0  0  0  0
  2 14  1  0  0  0  0
  3 15  1  0  0  0  0
  4 16  1  0  0  0  0
  8 17  1  0  0  0  0
  8 18  1  0  0  0  0
  9 19  1  0  0  0  0
  9 20  1  0  0  0  0
 10 21  1  0  0  0  0
 11 22  1  0  0  0  0
M  END
> <id>
EN300-37375128

> <smiles>
O=C1[C@H]2C[C@H](C2)C=3C=CC=CC13

> <IUPAC Name>
(1s,9s)-tricyclo[7.1.1.0,2,7]undeca-2,4,6-trien-8-one

> <CAS>
69584-47-0

> <URL>
https://www.enaminestore.com/catalog/EN300-37375128

> <ROCS_ShapeQuery>
_x1247relevant_x1083L0AP1_x1305L0BP1_

> <ROCS_TanimotoCombo>
1.102 

> <ROCS_ShapeTanimoto>
0.495 

> <ROCS_ColorTanimoto>
0.606 

> <ROCS_RefTversky>
0.418 

> <ROCS_RefColorTversky>
0.694 

> <ROCS_RefTverskyCombo>
1.112 

> <ROCS_FitTversky>
1.597 

> <ROCS_FitColorTversky>
0.827 

> <ROCS_FitTverskyCombo>
2.424 

> <ROCS_ColorScore>
-6.651

> <ROCS_Overlap>
1028.638

> <ROCS_Rank>
21                  

$$$$
untitled-dbase-8631_0
  -OEChem-06232314403D

 18 19  0     0  0  0  0  0  0999 V2000
  -15.2209   14.1322  -40.5249 C   0  0  0  0  0  0  0  0  0  0  0  0
  -14.3478   14.5041  -39.7898 C   0  0  0  0  0  0  0  0  0  0  0  0
  -12.0017   15.6504  -39.3139 C   0  0  0  0  0  0  0  0  0  0  0  0
  -13.4334   15.9674  -37.7734 C   0  0  0  0  0  0  0  0  0  0  0  0
  -12.4727   14.0791  -37.9601 C   0  0  0  0  0  0  0  0  0  0  0  0
  -13.3248   14.9392  -38.9289 C   0  0  0  0  0  0  0  0  0  0  0  0
  -11.9085   15.5418  -37.7368 C   0  0  0  0  0  0  0  0  0  0  0  0
  -10.8332   15.9996  -36.8314 C   0  0  0  0  0  0  0  0  0  0  0  0
  -10.6309   17.3408  -36.9191 F   0  0  0  0  0  0  0  0  0  0  0  0
  -11.1140   15.7275  -35.5297 F   0  0  0  0  0  0  0  0  0  0  0  0
   -9.6445   15.4028  -37.1111 F   0  0  0  0  0  0  0  0  0  0  0  0
  -15.9957   13.8025  -41.1770 H   0  0  0  0  0  0  0  0  0  0  0  0
  -11.2694   15.0742  -39.8898 H   0  0  0  0  0  0  0  0  0  0  0  0
  -12.0760   16.6597  -39.7330 H   0  0  0  0  0  0  0  0  0  0  0  0
  -13.6464   17.0075  -38.0431 H   0  0  0  0  0  0  0  0  0  0  0  0
  -14.0419   15.6883  -36.9063 H   0  0  0  0  0  0  0  0  0  0  0  0
  -12.9881   13.6168  -37.1111 H   0  0  0  0  0  0  0  0  0  0  0  0
  -11.7861   13.3506  -38.4047 H   0  0  0  0  0  0  0  0  0  0  0  0
  1  2  3  0  0  0  0
  2  6  1  0  0  0  0
  3  6  1  0  0  0  0
  3  7  1  0  0  0  0
  4  6  1  0  0  0  0
  4  7  1  0  0  0  0
  5  6  1  0  0  0  0
  5  7  1  0  0  0  0
  7  8  1  0  0  0  0
  8  9  1  0  0  0  0
  8 10  1  0  0  0  0
  8 11  1  0  0  0  0
  1 12  1  0  0  0  0
  3 13  1  0  0  0  0
  3 14  1  0  0  0  0
  4 15  1  0  0  0  0
  4 16  1  0  0  0  0
  5 17  1  0  0  0  0
  5 18  1  0  0  0  0
M  END
> <id>
EN300-298074

> <smiles>
FC(F)(F)C1(CC2(C1)C#C)C2

> <MDLNUMBER>
MFCD30180978

> <IUPAC Name>
1-ethynyl-3-(trifluoromethyl)bicyclo[1.1.1]pentane

> <CAS>
1955540-63-2

> <URL>
https://www.enaminestore.com/catalog/EN300-298074

> <ROCS_ShapeQuery>
_x1247relevant_x1083L0AP1_x1305L0BP1_

> <ROCS_TanimotoCombo>
1.102 

> <ROCS_ShapeTanimoto>
0.428 

> <ROCS_ColorTanimoto>
0.673 

> <ROCS_RefTversky>
0.372 

> <ROCS_RefColorTversky>
0.762 

> <ROCS_RefTverskyCombo>
1.134 

> <ROCS_FitTversky>
1.540 

> <ROCS_FitColorTversky>
0.853 

> <ROCS_FitTverskyCombo>
2.393 

> <ROCS_ColorScore>
-7.318

> <ROCS_Overlap>
915.418

> <ROCS_Rank>
22                  

$$$$
untitled-dbase-46278_0
  -OEChem-06232314403D

 32 34  0     1  0  0  0  0  0999 V2000
  -12.4415   14.7840  -36.6690 C   0  0  0  0  0  0  0  0  0  0  0  0
  -12.3655   16.9500  -37.9316 C   0  0  0  0  0  0  0  0  0  0  0  0
  -14.3851   15.4711  -38.0989 C   0  0  0  0  0  0  0  0  0  0  0  0
  -10.9006   15.0340  -38.6393 C   0  0  0  0  0  0  0  0  0  0  0  0
  -12.9251   13.5521  -38.8066 C   0  0  0  0  0  0  0  0  0  0  0  0
  -12.8491   15.7226  -40.0718 C   0  0  0  0  0  0  0  0  0  0  0  0
  -13.2758   15.9780  -37.1624 C   0  0  0  0  0  0  0  0  0  0  0  0
  -11.7998   14.0413  -37.8640 C   0  0  2  0  0  0  0  0  0  0  0  0
  -11.7226   16.2426  -39.1472 C   0  0  1  0  0  0  0  0  0  0  0  0
  -13.7528   14.7499  -39.2981 C   0  0  0  0  0  0  0  0  0  0  0  0
  -10.9714   12.8534  -37.3662 C   0  0  0  0  0  0  0  0  0  0  0  0
  -10.8186   17.2159  -39.9093 C   0  0  0  0  0  0  0  0  0  0  0  0
  -15.1693   14.1095  -40.4820 Br  0  0  0  0  0  0  0  0  0  0  0  0
  -11.6636   15.1379  -35.9801 H   0  0  0  0  0  0  0  0  0  0  0  0
  -13.0810   14.0998  -36.0963 H   0  0  0  0  0  0  0  0  0  0  0  0
  -12.9506   17.8174  -38.2633 H   0  0  0  0  0  0  0  0  0  0  0  0
  -11.5867   17.3345  -37.2605 H   0  0  0  0  0  0  0  0  0  0  0  0
  -15.0542   14.7973  -37.5478 H   0  0  0  0  0  0  0  0  0  0  0  0
  -15.0011   16.3162  -38.4331 H   0  0  0  0  0  0  0  0  0  0  0  0
  -10.0854   15.3833  -37.9910 H   0  0  0  0  0  0  0  0  0  0  0  0
  -10.4256   14.5228  -39.4876 H   0  0  0  0  0  0  0  0  0  0  0  0
  -12.4910   13.0108  -39.6584 H   0  0  0  0  0  0  0  0  0  0  0  0
  -13.5676   12.8329  -38.2802 H   0  0  0  0  0  0  0  0  0  0  0  0
  -13.4367   16.5672  -40.4568 H   0  0  0  0  0  0  0  0  0  0  0  0
  -12.4134   15.2254  -40.9493 H   0  0  0  0  0  0  0  0  0  0  0  0
  -13.7239   16.4933  -36.3053 H   0  0  0  0  0  0  0  0  0  0  0  0
  -10.5251   12.3388  -38.2138 H   0  0  0  0  0  0  0  0  0  0  0  0
  -11.6127   12.1633  -36.8233 H   0  0  0  0  0  0  0  0  0  0  0  0
  -10.1841   13.2088  -36.7056 H   0  0  0  0  0  0  0  0  0  0  0  0
  -10.3722   16.7085  -40.7611 H   0  0  0  0  0  0  0  0  0  0  0  0
  -10.0311   17.5743  -39.2507 H   0  0  0  0  0  0  0  0  0  0  0  0
  -11.4062   18.0606  -40.2608 H   0  0  0  0  0  0  0  0  0  0  0  0
  1  7  1  0  0  0  0
  1  8  1  0  0  0  0
  2  7  1  0  0  0  0
  2  9  1  0  0  0  0
  3  7  1  0  0  0  0
  3 10  1  0  0  0  0
  4  8  1  0  0  0  0
  4  9  1  0  0  0  0
  5  8  1  0  0  0  0
  5 10  1  0  0  0  0
  6  9  1  0  0  0  0
  6 10  1  0  0  0  0
  8 11  1  0  0  0  0
  9 12  1  0  0  0  0
 10 13  1  0  0  0  0
  1 14  1  0  0  0  0
  1 15  1  0  0  0  0
  2 16  1  0  0  0  0
  2 17  1  0  0  0  0
  3 18  1  0  0  0  0
  3 19  1  0  0  0  0
  4 20  1  0  0  0  0
  4 21  1  0  0  0  0
  5 22  1  0  0  0  0
  5 23  1  0  0  0  0
  6 24  1  0  0  0  0
  6 25  1  0  0  0  0
  7 26  1  0  0  0  0
 11 27  1  0  0  0  0
 11 28  1  0  0  0  0
 11 29  1  0  0  0  0
 12 30  1  0  0  0  0
 12 31  1  0  0  0  0
 12 32  1  0  0  0  0
M  END
> <id>
EN300-99028

> <smiles>
CC1(CC2CC3(C)C1)CC(Br)(C2)C3

> <IUPAC Name>
1-bromo-3,5-dimethyladamantane

> <CAS>
941-37-7

> <Purity>
95

> <URL>
https://www.enaminestore.com/catalog/EN300-99028

> <ROCS_ShapeQuery>
_x1247relevant_x1083L0AP1_x1305L0BP1_

> <ROCS_TanimotoCombo>
1.101 

> <ROCS_ShapeTanimoto>
0.477 

> <ROCS_ColorTanimoto>
0.623 

> <ROCS_RefTversky>
0.410 

> <ROCS_RefColorTversky>
0.688 

> <ROCS_RefTverskyCombo>
1.098 

> <ROCS_FitTversky>
1.520 

> <ROCS_FitColorTversky>
0.869 

> <ROCS_FitTverskyCombo>
2.388 

> <ROCS_ColorScore>
-6.575

> <ROCS_Overlap>
1010.301

> <ROCS_Rank>
23                  

$$$$
untitled-dbase-24868_0
  -OEChem-06232314403D

 25 27  0     1  0  0  0  0  0999 V2000
   -9.5183   14.3145  -36.5491 C   0  0  0  0  0  0  0  0  0  0  0  0
  -10.6890   15.2125  -36.1038 C   0  0  0  0  0  0  0  0  0  0  0  0
   -9.9137   14.4634  -38.0308 C   0  0  0  0  0  0  0  0  0  0  0  0
  -13.2819   14.8228  -39.6866 C   0  0  0  0  0  0  0  0  0  0  0  0
  -12.1591   15.8715  -39.6808 C   0  0  0  0  0  0  0  0  0  0  0  0
  -13.4068   16.0686  -37.6613 C   0  0  0  0  0  0  0  0  0  0  0  0
  -12.4467   13.8833  -37.5135 C   0  0  0  0  0  0  0  0  0  0  0  0
  -13.6037   14.6490  -38.1932 C   0  0  2  0  0  0  0  0  0  0  0  0
  -11.9698   16.1692  -38.1831 C   0  0  1  0  0  0  0  0  0  0  0  0
  -11.3160   14.9409  -37.5182 C   0  0  0  0  0  0  0  0  0  0  0  0
   -8.6420   13.7160  -35.9641 O   0  0  0  0  0  0  0  0  0  0  0  0
  -11.2443   14.8388  -35.2409 H   0  0  0  0  0  0  0  0  0  0  0  0
  -10.3758   16.2448  -35.9182 H   0  0  0  0  0  0  0  0  0  0  0  0
   -9.3193   15.2233  -38.5473 H   0  0  0  0  0  0  0  0  0  0  0  0
   -9.9010   13.5315  -38.6000 H   0  0  0  0  0  0  0  0  0  0  0  0
  -14.1520   15.2067  -40.2310 H   0  0  0  0  0  0  0  0  0  0  0  0
  -12.9683   13.8874  -40.1607 H   0  0  0  0  0  0  0  0  0  0  0  0
  -11.2533   15.4975  -40.1664 H   0  0  0  0  0  0  0  0  0  0  0  0
  -12.4857   16.7706  -40.2156 H   0  0  0  0  0  0  0  0  0  0  0  0
  -14.0828   16.7999  -38.1168 H   0  0  0  0  0  0  0  0  0  0  0  0
  -13.4782   16.1281  -36.5702 H   0  0  0  0  0  0  0  0  0  0  0  0
  -12.7302   13.6010  -36.4937 H   0  0  0  0  0  0  0  0  0  0  0  0
  -12.1802   12.9762  -38.0651 H   0  0  0  0  0  0  0  0  0  0  0  0
  -14.5842   14.2057  -38.0083 H   0  0  0  0  0  0  0  0  0  0  0  0
  -11.4599   17.1142  -37.9840 H   0  0  0  0  0  0  0  0  0  0  0  0
  1  2  1  0  0  0  0
  1  3  1  0  0  0  0
  1 11  2  0  0  0  0
  2 10  1  0  0  0  0
  3 10  1  0  0  0  0
  4  5  1  0  0  0  0
  4  8  1  0  0  0  0
  5  9  1  0  0  0  0
  6  8  1  0  0  0  0
  6  9  1  0  0  0  0
  7  8  1  0  0  0  0
  7 10  1  0  0  0  0
  9 10  1  0  0  0  0
  2 12  1  0  0  0  0
  2 13  1  0  0  0  0
  3 14  1  0  0  0  0
  3 15  1  0  0  0  0
  4 16  1  0  0  0  0
  4 17  1  0  0  0  0
  5 18  1  0  0  0  0
  5 19  1  0  0  0  0
  6 20  1  0  0  0  0
  6 21  1  0  0  0  0
  7 22  1  0  0  0  0
  7 23  1  0  0  0  0
  8 24  1  0  0  0  0
  9 25  1  0  0  0  0
M  END
> <id>
EN300-6497331

> <smiles>
O=C1CC2(C1)CC3CCC2C3

> <MDLNUMBER>
MFCD31718762

> <IUPAC Name>
spiro[bicyclo[2.2.1]heptane-2,1'-cyclobutane]-3'-one

> <CAS>
2248287-18-3

> <Purity>
95

> <URL>
https://www.enaminestore.com/catalog/EN300-6497331

> <ROCS_ShapeQuery>
_x1247relevant_x1083L0AP1_x1305L0BP1_

> <ROCS_TanimotoCombo>
1.099 

> <ROCS_ShapeTanimoto>
0.492 

> <ROCS_ColorTanimoto>
0.606 

> <ROCS_RefTversky>
0.410 

> <ROCS_RefColorTversky>
0.708 

> <ROCS_RefTverskyCombo>
1.117 

> <ROCS_FitTversky>
1.693 

> <ROCS_FitColorTversky>
0.809 

> <ROCS_FitTverskyCombo>
2.502 

> <ROCS_ColorScore>
-6.792

> <ROCS_Overlap>
1007.155

> <ROCS_Rank>
24                  

$$$$
untitled-dbase-30340_2
  -OEChem-06232314403D

 26 28  0     1  0  0  0  0  0999 V2000
   -9.5445   15.0578  -36.1334 C   0  0  0  0  0  0  0  0  0  0  0  0
   -9.4621   13.8189  -36.8053 C   0  0  0  0  0  0  0  0  0  0  0  0
  -10.5388   15.9885  -36.4484 C   0  0  0  0  0  0  0  0  0  0  0  0
  -10.3718   13.4772  -37.8102 C   0  0  0  0  0  0  0  0  0  0  0  0
  -11.4245   15.6461  -37.4441 C   0  0  0  0  0  0  0  0  0  0  0  0
  -11.3420   14.4031  -38.1179 C   0  0  0  0  0  0  0  0  0  0  0  0
  -12.6713   16.5282  -40.5567 C   0  0  0  0  0  0  0  0  0  0  0  0
  -13.8724   15.6136  -37.5192 C   0  0  0  0  0  0  0  0  0  0  0  0
  -13.7803   14.2323  -38.2678 C   0  0  0  0  0  0  0  0  0  0  0  0
  -12.6208   16.3615  -38.0301 C   0  0  2  0  0  0  0  0  0  0  0  0
  -12.4895   14.3830  -39.1045 C   0  0  1  0  0  0  0  0  0  0  0  0
  -12.5716   15.8181  -39.3844 N   0  0  0  0  0  0  0  0  0  0  0  0
  -13.2290   15.8440  -41.6147 N   0  0  0  0  0  0  0  0  0  0  0  0
  -12.2943   17.6964  -40.6745 O   0  0  0  0  0  0  0  0  0  0  0  0
   -8.8224   15.2880  -35.3539 H   0  0  0  0  0  0  0  0  0  0  0  0
   -8.6780   13.1173  -36.5311 H   0  0  0  0  0  0  0  0  0  0  0  0
  -10.6054   16.9353  -35.9261 H   0  0  0  0  0  0  0  0  0  0  0  0
  -10.3118   12.5228  -38.3192 H   0  0  0  0  0  0  0  0  0  0  0  0
  -14.7912   16.1318  -37.8162 H   0  0  0  0  0  0  0  0  0  0  0  0
  -13.8789   15.4760  -36.4326 H   0  0  0  0  0  0  0  0  0  0  0  0
  -13.7401   13.3987  -37.5583 H   0  0  0  0  0  0  0  0  0  0  0  0
  -14.6564   14.1059  -38.9139 H   0  0  0  0  0  0  0  0  0  0  0  0
  -12.6214   17.4502  -37.9667 H   0  0  0  0  0  0  0  0  0  0  0  0
  -12.3718   13.7247  -39.9637 H   0  0  0  0  0  0  0  0  0  0  0  0
  -13.3252   16.3238  -42.5035 H   0  0  0  0  0  0  0  0  0  0  0  0
  -13.5474   14.8850  -41.5476 H   0  0  0  0  0  0  0  0  0  0  0  0
  1  2  2  0  0  0  0
  1  3  1  0  0  0  0
  2  4  1  0  0  0  0
  3  5  2  0  0  0  0
  4  6  2  0  0  0  0
  5  6  1  0  0  0  0
  5 10  1  0  0  0  0
  6 11  1  0  0  0  0
  7 12  1  0  0  0  0
  7 13  1  0  0  0  0
  7 14  2  0  0  0  0
  8  9  1  0  0  0  0
  8 10  1  0  0  0  0
  9 11  1  0  0  0  0
 10 12  1  0  0  0  0
 11 12  1  0  0  0  0
  1 15  1  0  0  0  0
  2 16  1  0  0  0  0
  3 17  1  0  0  0  0
  4 18  1  0  0  0  0
  8 19  1  0  0  0  0
  8 20  1  0  0  0  0
  9 21  1  0  0  0  0
  9 22  1  0  0  0  0
 10 23  1  0  0  0  0
 11 24  1  0  0  0  0
 13 25  1  0  0  0  0
 13 26  1  0  0  0  0
M  END
> <id>
EN300-7536311

> <smiles>
NC(=O)N1C2CCC1C=3C=CC=CC23

> <MDLNUMBER>
MFCD30673366

> <IUPAC Name>
11-azatricyclo[6.2.1.0,2,7]undeca-2,4,6-triene-11-carboxamide

> <CAS>
2125207-35-2

> <Purity>
95

> <URL>
https://www.enaminestore.com/catalog/EN300-7536311

> <ROCS_ShapeQuery>
_x1247relevant_x1083L0AP1_x1305L0BP1_

> <ROCS_TanimotoCombo>
1.095 

> <ROCS_ShapeTanimoto>
0.528 

> <ROCS_ColorTanimoto>
0.568 

> <ROCS_RefTversky>
0.450 

> <ROCS_RefColorTversky>
0.717 

> <ROCS_RefTverskyCombo>
1.168 

> <ROCS_FitTversky>
1.481 

> <ROCS_FitColorTversky>
0.731 

> <ROCS_FitTverskyCombo>
2.213 

> <ROCS_ColorScore>
-6.925

> <ROCS_Overlap>
1110.795

> <ROCS_Rank>
25                  

$$$$
untitled-dbase-52646_18
  -OEChem-06232314403D

 24 25  0     1  0  0  0  0  0999 V2000
  -10.3792   14.2131  -37.3879 C   0  0  0  0  0  0  0  0  0  0  0  0
  -13.3757   15.5795  -37.1280 C   0  0  0  0  0  0  0  0  0  0  0  0
  -13.2596   14.0958  -39.2797 C   0  0  0  0  0  0  0  0  0  0  0  0
  -12.1604   16.4249  -39.2882 C   0  0  0  0  0  0  0  0  0  0  0  0
  -12.9641   14.2294  -37.7832 C   0  0  1  0  0  0  0  0  0  0  0  0
  -12.0770   16.1230  -37.7902 C   0  0  2  0  0  0  0  0  0  0  0  0
  -13.1429   15.4629  -39.9812 C   0  0  0  0  0  0  0  0  0  0  0  0
   -9.4435   15.1046  -36.6174 C   0  0  0  0  0  0  0  0  0  0  0  0
  -11.6125   14.7509  -37.6134 N   0  0  0  0  0  0  0  0  0  0  0  0
  -10.0314   13.0981  -37.7732 O   0  0  0  0  0  0  0  0  0  0  0  0
  -14.4300   16.0881  -40.0023 O   0  0  0  0  0  0  0  0  0  0  0  0
  -10.0427   16.2701  -36.3099 F   0  0  0  0  0  0  0  0  0  0  0  0
   -9.0595   14.5151  -35.4698 F   0  0  0  0  0  0  0  0  0  0  0  0
   -8.3396   15.3779  -37.3377 F   0  0  0  0  0  0  0  0  0  0  0  0
  -14.3229   16.0222  -37.4447 H   0  0  0  0  0  0  0  0  0  0  0  0
  -13.3537   15.5733  -36.0302 H   0  0  0  0  0  0  0  0  0  0  0  0
  -12.5467   13.3915  -39.7251 H   0  0  0  0  0  0  0  0  0  0  0  0
  -14.2636   13.6789  -39.4199 H   0  0  0  0  0  0  0  0  0  0  0  0
  -12.4706   17.4656  -39.4350 H   0  0  0  0  0  0  0  0  0  0  0  0
  -11.1629   16.3151  -39.7315 H   0  0  0  0  0  0  0  0  0  0  0  0
  -13.1876   13.3409  -37.1867 H   0  0  0  0  0  0  0  0  0  0  0  0
  -11.5263   16.8601  -37.1994 H   0  0  0  0  0  0  0  0  0  0  0  0
  -12.8595   15.3265  -41.0302 H   0  0  0  0  0  0  0  0  0  0  0  0
  -15.0126   15.4904  -40.4926 H   0  0  0  0  0  0  0  0  0  0  0  0
  1  8  1  0  0  0  0
  1  9  1  0  0  0  0
  1 10  2  0  0  0  0
  2  5  1  0  0  0  0
  2  6  1  6  0  0  0
  3  5  1  1  0  0  0
  3  7  1  0  0  0  0
  4  6  1  0  0  0  0
  4  7  1  0  0  0  0
  5  9  1  0  0  0  0
  6  9  1  0  0  0  0
  7 11  1  6  0  0  0
  8 12  1  0  0  0  0
  8 13  1  0  0  0  0
  8 14  1  0  0  0  0
  2 15  1  0  0  0  0
  2 16  1  0  0  0  0
  3 17  1  0  0  0  0
  3 18  1  0  0  0  0
  4 19  1  0  0  0  0
  4 20  1  0  0  0  0
  5 21  1  0  0  0  0
  6 22  1  0  0  0  0
  7 23  1  0  0  0  0
 11 24  1  0  0  0  0
M  END
> <id>
EN300-45377140

> <smiles>
O[C@@H]1C[C@@H]2C[C@H](C1)N2C(=O)C(F)(F)F

> <IUPAC Name>
2,2,2-trifluoro-1-[(1R,3r,5S)-3-hydroxy-6-azabicyclo[3.1.1]heptan-6-yl]ethan-1-one

> <URL>
https://www.enaminestore.com/catalog/EN300-45377140

> <ROCS_ShapeQuery>
_x1247relevant_x1083L0AP1_x1305L0BP1_

> <ROCS_TanimotoCombo>
1.094 

> <ROCS_ShapeTanimoto>
0.542 

> <ROCS_ColorTanimoto>
0.551 

> <ROCS_RefTversky>
0.457 

> <ROCS_RefColorTversky>
0.694 

> <ROCS_RefTverskyCombo>
1.150 

> <ROCS_FitTversky>
1.530 

> <ROCS_FitColorTversky>
0.728 

> <ROCS_FitTverskyCombo>
2.259 

> <ROCS_ColorScore>
-6.688

> <ROCS_Overlap>
1125.701

> <ROCS_Rank>
26                  

$$$$
untitled-dbase-21956_0
  -OEChem-06232314403D

 26 28  0     0  0  0  0  0  0999 V2000
  -11.2827   15.1270  -37.2753 C   0  0  0  0  0  0  0  0  0  0  0  0
  -11.8994   16.6025  -39.2053 C   0  0  0  0  0  0  0  0  0  0  0  0
  -13.4647   16.3601  -37.2420 C   0  0  0  0  0  0  0  0  0  0  0  0
  -11.8834   14.1192  -39.4901 C   0  0  0  0  0  0  0  0  0  0  0  0
  -13.4400   13.8780  -37.5376 C   0  0  0  0  0  0  0  0  0  0  0  0
  -11.9865   16.4346  -37.6749 C   0  0  0  0  0  0  0  0  0  0  0  0
  -11.9643   13.9336  -37.9659 C   0  0  0  0  0  0  0  0  0  0  0  0
  -12.5985   15.4197  -39.9106 C   0  0  0  0  0  0  0  0  0  0  0  0
  -14.1656   15.1769  -37.9450 C   0  0  0  0  0  0  0  0  0  0  0  0
  -14.0681   15.4220  -39.4594 C   0  0  0  0  0  0  0  0  0  0  0  0
  -15.1386   14.1420  -40.4709 Br  0  0  0  0  0  0  0  0  0  0  0  0
  -10.2237   15.1693  -37.5575 H   0  0  0  0  0  0  0  0  0  0  0  0
  -11.3168   15.0001  -36.1864 H   0  0  0  0  0  0  0  0  0  0  0  0
  -12.3689   17.5478  -39.5039 H   0  0  0  0  0  0  0  0  0  0  0  0
  -10.8490   16.6576  -39.5170 H   0  0  0  0  0  0  0  0  0  0  0  0
  -13.5308   16.2423  -36.1533 H   0  0  0  0  0  0  0  0  0  0  0  0
  -13.9739   17.2993  -37.4909 H   0  0  0  0  0  0  0  0  0  0  0  0
  -10.8322   14.1581  -39.8030 H   0  0  0  0  0  0  0  0  0  0  0  0
  -12.3226   13.2523  -39.9964 H   0  0  0  0  0  0  0  0  0  0  0  0
  -13.9266   13.0038  -37.9844 H   0  0  0  0  0  0  0  0  0  0  0  0
  -13.5051   13.7441  -36.4503 H   0  0  0  0  0  0  0  0  0  0  0  0
  -11.4992   17.2830  -37.1816 H   0  0  0  0  0  0  0  0  0  0  0  0
  -11.4596   13.0045  -37.6783 H   0  0  0  0  0  0  0  0  0  0  0  0
  -12.5235   15.5457  -40.9970 H   0  0  0  0  0  0  0  0  0  0  0  0
  -15.2128   15.1291  -37.6239 H   0  0  0  0  0  0  0  0  0  0  0  0
  -14.5317   16.3842  -39.7102 H   0  0  0  0  0  0  0  0  0  0  0  0
  1  6  1  0  0  0  0
  1  7  1  0  0  0  0
  2  6  1  0  0  0  0
  2  8  1  0  0  0  0
  3  6  1  0  0  0  0
  3  9  1  0  0  0  0
  4  7  1  0  0  0  0
  4  8  1  0  0  0  0
  5  7  1  0  0  0  0
  5  9  1  0  0  0  0
  8 10  1  0  0  0  0
  9 10  1  0  0  0  0
 10 11  1  0  0  0  0
  1 12  1  0  0  0  0
  1 13  1  0  0  0  0
  2 14  1  0  0  0  0
  2 15  1  0  0  0  0
  3 16  1  0  0  0  0
  3 17  1  0  0  0  0
  4 18  1  0  0  0  0
  4 19  1  0  0  0  0
  5 20  1  0  0  0  0
  5 21  1  0  0  0  0
  6 22  1  0  0  0  0
  7 23  1  0  0  0  0
  8 24  1  0  0  0  0
  9 25  1  0  0  0  0
 10 26  1  0  0  0  0
M  END
> <id>
EN300-17158

> <smiles>
BrC1C2CC3CC(C2)CC1C3

> <MDLNUMBER>
MFCD00074745

> <IUPAC Name>
2-bromoadamantane

> <CAS>
7314-85-4

> <Purity>
95

> <URL>
https://www.enaminestore.com/catalog/EN300-17158

> <MP>
138-142

> <ROCS_ShapeQuery>
_x1247relevant_x1083L0AP1_x1305L0BP1_

> <ROCS_TanimotoCombo>
1.086 

> <ROCS_ShapeTanimoto>
0.447 

> <ROCS_ColorTanimoto>
0.639 

> <ROCS_RefTversky>
0.382 

> <ROCS_RefColorTversky>
0.699 

> <ROCS_RefTverskyCombo>
1.081 

> <ROCS_FitTversky>
1.616 

> <ROCS_FitColorTversky>
0.881 

> <ROCS_FitTverskyCombo>
2.497 

> <ROCS_ColorScore>
-6.678

> <ROCS_Overlap>
939.011

> <ROCS_Rank>
27                  

$$$$
untitled-dbase-33260_0
  -OEChem-06232314403D

 25 26  0     0  0  0  0  0  0999 V2000
  -13.3832   14.1054  -39.2043 C   0  0  0  0  0  0  0  0  0  0  0  0
  -13.8712   16.0326  -37.6937 C   0  0  0  0  0  0  0  0  0  0  0  0
  -12.2558   13.6420  -38.2737 C   0  0  0  0  0  0  0  0  0  0  0  0
  -12.7519   15.5883  -36.7442 C   0  0  0  0  0  0  0  0  0  0  0  0
  -12.1189   16.2332  -39.4458 C   0  0  0  0  0  0  0  0  0  0  0  0
  -13.5031   15.6399  -39.1363 C   0  0  0  0  0  0  0  0  0  0  0  0
  -11.6568   14.8534  -37.5374 C   0  0  0  0  0  0  0  0  0  0  0  0
  -10.5098   14.4297  -36.6262 C   0  0  0  0  0  0  0  0  0  0  0  0
  -14.5149   16.1164  -40.0711 N   0  0  0  0  0  0  0  0  0  0  0  0
  -11.1255   15.7617  -38.5207 O   0  0  0  0  0  0  0  0  0  0  0  0
   -9.5365   13.8509  -37.3472 F   0  0  0  0  0  0  0  0  0  0  0  0
  -10.0023   15.4997  -35.9941 F   0  0  0  0  0  0  0  0  0  0  0  0
  -10.9483   13.5530  -35.7090 F   0  0  0  0  0  0  0  0  0  0  0  0
  -13.1693   13.7733  -40.2284 H   0  0  0  0  0  0  0  0  0  0  0  0
  -14.3263   13.6257  -38.9126 H   0  0  0  0  0  0  0  0  0  0  0  0
  -14.8195   15.5699  -37.3914 H   0  0  0  0  0  0  0  0  0  0  0  0
  -14.0128   17.1178  -37.6063 H   0  0  0  0  0  0  0  0  0  0  0  0
  -12.6372   12.8982  -37.5642 H   0  0  0  0  0  0  0  0  0  0  0  0
  -11.4836   13.1495  -38.8780 H   0  0  0  0  0  0  0  0  0  0  0  0
  -12.3318   16.4779  -36.2585 H   0  0  0  0  0  0  0  0  0  0  0  0
  -13.1621   14.9494  -35.9532 H   0  0  0  0  0  0  0  0  0  0  0  0
  -11.7828   15.9638  -40.4540 H   0  0  0  0  0  0  0  0  0  0  0  0
  -12.1286   17.3279  -39.3877 H   0  0  0  0  0  0  0  0  0  0  0  0
  -14.2468   15.8451  -40.9883 H   0  0  0  0  0  0  0  0  0  0  0  0
  -15.3854   15.7051  -39.8263 H   0  0  0  0  0  0  0  0  0  0  0  0
  1  3  1  0  0  0  0
  1  6  1  0  0  0  0
  2  4  1  0  0  0  0
  2  6  1  0  0  0  0
  3  7  1  0  0  0  0
  4  7  1  0  0  0  0
  5  6  1  0  0  0  0
  5 10  1  0  0  0  0
  6  9  1  0  0  0  0
  7  8  1  0  0  0  0
  7 10  1  0  0  0  0
  8 11  1  0  0  0  0
  8 12  1  0  0  0  0
  8 13  1  0  0  0  0
  1 14  1  0  0  0  0
  1 15  1  0  0  0  0
  2 16  1  0  0  0  0
  2 17  1  0  0  0  0
  3 18  1  0  0  0  0
  3 19  1  0  0  0  0
  4 20  1  0  0  0  0
  4 21  1  0  0  0  0
  5 22  1  0  0  0  0
  5 23  1  0  0  0  0
  9 24  1  0  0  0  0
  9 25  1  0  0  0  0
M  END
> <id>
EN300-37380847

> <smiles>
NC1(CCC2(CC1)C(F)(F)F)CO2

> <IUPAC Name>
1-(trifluoromethyl)-2-oxabicyclo[2.2.2]octan-4-amine

> <Purity>
95

> <URL>
https://www.enaminestore.com/catalog/EN300-37380847

> <ROCS_ShapeQuery>
_x1247relevant_x1083L0AP1_x1305L0BP1_

> <ROCS_TanimotoCombo>
1.084 

> <ROCS_ShapeTanimoto>
0.541 

> <ROCS_ColorTanimoto>
0.543 

> <ROCS_RefTversky>
0.450 

> <ROCS_RefColorTversky>
0.683 

> <ROCS_RefTverskyCombo>
1.133 

> <ROCS_FitTversky>
1.602 

> <ROCS_FitColorTversky>
0.725 

> <ROCS_FitTverskyCombo>
2.327 

> <ROCS_ColorScore>
-6.583

> <ROCS_Overlap>
1107.711

> <ROCS_Rank>
28                  

$$$$
untitled-dbase-37683_0
  -OEChem-06232314403D

 22 24  0     1  0  0  0  0  0999 V2000
   -9.6594   14.5994  -37.5054 C   0  0  0  0  0  0  0  0  0  0  0  0
  -10.6006   13.6503  -37.5395 C   0  0  0  0  0  0  0  0  0  0  0  0
  -12.4051   14.6821  -39.6841 C   0  0  0  0  0  0  0  0  0  0  0  0
  -12.1845   15.9946  -39.5212 C   0  0  0  0  0  0  0  0  0  0  0  0
  -10.2043   15.9596  -37.2030 C   0  0  0  0  0  0  0  0  0  0  0  0
  -13.8456   15.4029  -38.0371 C   0  0  0  0  0  0  0  0  0  0  0  0
  -13.0094   14.1652  -38.3979 C   0  0  2  0  0  0  0  0  0  0  0  0
  -12.6453   16.3595  -38.1291 C   0  0  1  0  0  0  0  0  0  0  0  0
  -11.9590   14.1974  -37.2563 C   0  0  2  0  0  0  0  0  0  0  0  0
  -11.7122   15.7308  -37.0585 C   0  0  1  0  0  0  0  0  0  0  0  0
   -8.6095   14.4099  -37.6784 H   0  0  0  0  0  0  0  0  0  0  0  0
  -10.4032   12.6074  -37.7417 H   0  0  0  0  0  0  0  0  0  0  0  0
  -12.1483   14.0916  -40.5489 H   0  0  0  0  0  0  0  0  0  0  0  0
  -11.7178   16.6585  -40.2311 H   0  0  0  0  0  0  0  0  0  0  0  0
   -9.7789   16.3256  -36.2623 H   0  0  0  0  0  0  0  0  0  0  0  0
   -9.9555   16.6774  -37.9899 H   0  0  0  0  0  0  0  0  0  0  0  0
  -14.6378   15.6234  -38.7643 H   0  0  0  0  0  0  0  0  0  0  0  0
  -14.2873   15.3528  -37.0352 H   0  0  0  0  0  0  0  0  0  0  0  0
  -13.5765   13.2387  -38.4982 H   0  0  0  0  0  0  0  0  0  0  0  0
  -12.8866   17.4135  -37.9877 H   0  0  0  0  0  0  0  0  0  0  0  0
  -12.3692   13.7592  -36.3383 H   0  0  0  0  0  0  0  0  0  0  0  0
  -12.0490   16.0379  -36.0594 H   0  0  0  0  0  0  0  0  0  0  0  0
  1  2  2  0  0  0  0
  1  5  1  0  0  0  0
  2  9  1  1  0  0  0
  3  4  2  0  0  0  0
  3  7  1  1  0  0  0
  4  8  1  1  0  0  0
  5 10  1  1  0  0  0
  6  7  1  0  0  0  0
  6  8  1  0  0  0  0
  7  9  1  0  0  0  0
  8 10  1  0  0  0  0
  9 10  1  0  0  0  0
  1 11  1  0  0  0  0
  2 12  1  0  0  0  0
  3 13  1  0  0  0  0
  4 14  1  0  0  0  0
  5 15  1  0  0  0  0
  5 16  1  0  0  0  0
  6 17  1  0  0  0  0
  6 18  1  0  0  0  0
  7 19  1  0  0  0  0
  8 20  1  0  0  0  0
  9 21  1  0  0  0  0
 10 22  1  0  0  0  0
M  END
> <id>
EN300-7541081

> <smiles>
C1C=C[C@@H]2[C@H]3C[C@H](C=C3)[C@H]12 |&1:3,4,6,9,r|

> <IUPAC Name>
rac-(1R,2S,6R,7S)-tricyclo[5.2.1.0,2,6]deca-3,8-diene

> <CAS>
1755-01-7

> <Purity>
95

> <URL>
https://www.enaminestore.com/catalog/EN300-7541081

> <MP>
30-32

> <ROCS_ShapeQuery>
_x1247relevant_x1083L0AP1_x1305L0BP1_

> <ROCS_TanimotoCombo>
1.082 

> <ROCS_ShapeTanimoto>
0.467 

> <ROCS_ColorTanimoto>
0.614 

> <ROCS_RefTversky>
0.392 

> <ROCS_RefColorTversky>
0.682 

> <ROCS_RefTverskyCombo>
1.074 

> <ROCS_FitTversky>
1.698 

> <ROCS_FitColorTversky>
0.861 

> <ROCS_FitTverskyCombo>
2.559 

> <ROCS_ColorScore>
-6.516

> <ROCS_Overlap>
963.058

> <ROCS_Rank>
29                  

$$$$
untitled-dbase-41108_0
  -OEChem-06232314403D

 35 38  0     0  0  0  0  0  0999 V2000
   -9.7178   13.8957  -35.9126 C   0  0  0  0  0  0  0  0  0  0  0  0
  -10.9359   14.8034  -35.9310 C   0  0  0  0  0  0  0  0  0  0  0  0
  -14.2003   15.4339  -39.3431 C   0  0  0  0  0  0  0  0  0  0  0  0
  -13.3695   13.7945  -37.6460 C   0  0  0  0  0  0  0  0  0  0  0  0
  -13.4138   16.2486  -37.1063 C   0  0  0  0  0  0  0  0  0  0  0  0
  -12.0082   14.2650  -39.6832 C   0  0  0  0  0  0  0  0  0  0  0  0
  -12.0640   16.7234  -39.1581 C   0  0  0  0  0  0  0  0  0  0  0  0
   -8.9909   14.1970  -37.2119 C   0  0  0  0  0  0  0  0  0  0  0  0
  -14.1411   15.1096  -37.8410 C   0  0  0  0  0  0  0  0  0  0  0  0
  -12.7754   15.5812  -39.9023 C   0  0  0  0  0  0  0  0  0  0  0  0
  -11.9246   13.9386  -38.1730 C   0  0  0  0  0  0  0  0  0  0  0  0
  -11.9769   16.4039  -37.6487 C   0  0  0  0  0  0  0  0  0  0  0  0
  -11.1778   15.0878  -37.4202 C   0  0  0  0  0  0  0  0  0  0  0  0
   -9.7825   15.2190  -37.9063 N   0  0  0  0  0  0  0  0  0  0  0  0
   -9.0935   14.0898  -35.0347 H   0  0  0  0  0  0  0  0  0  0  0  0
  -10.0249   12.8441  -35.8846 H   0  0  0  0  0  0  0  0  0  0  0  0
  -11.7773   14.3431  -35.4080 H   0  0  0  0  0  0  0  0  0  0  0  0
  -10.6946   15.7323  -35.3968 H   0  0  0  0  0  0  0  0  0  0  0  0
  -14.7331   14.6385  -39.8786 H   0  0  0  0  0  0  0  0  0  0  0  0
  -14.7656   16.3599  -39.5056 H   0  0  0  0  0  0  0  0  0  0  0  0
  -13.3753   13.5070  -36.5897 H   0  0  0  0  0  0  0  0  0  0  0  0
  -13.8788   12.9839  -38.1830 H   0  0  0  0  0  0  0  0  0  0  0  0
  -13.9641   17.1881  -37.2428 H   0  0  0  0  0  0  0  0  0  0  0  0
  -13.3995   16.0522  -36.0282 H   0  0  0  0  0  0  0  0  0  0  0  0
  -12.5163   13.4478  -40.2108 H   0  0  0  0  0  0  0  0  0  0  0  0
  -11.0053   14.3370  -40.1199 H   0  0  0  0  0  0  0  0  0  0  0  0
  -11.0641   16.8807  -39.5792 H   0  0  0  0  0  0  0  0  0  0  0  0
  -12.6125   17.6622  -39.3064 H   0  0  0  0  0  0  0  0  0  0  0  0
   -7.9731   14.5572  -37.0301 H   0  0  0  0  0  0  0  0  0  0  0  0
   -8.9136   13.2963  -37.8305 H   0  0  0  0  0  0  0  0  0  0  0  0
  -15.1581   15.0044  -37.4472 H   0  0  0  0  0  0  0  0  0  0  0  0
  -12.8218   15.8090  -40.9731 H   0  0  0  0  0  0  0  0  0  0  0  0
  -11.4078   12.9801  -38.0457 H   0  0  0  0  0  0  0  0  0  0  0  0
  -11.4899   17.2426  -37.1352 H   0  0  0  0  0  0  0  0  0  0  0  0
   -9.4290   16.1367  -37.6318 H   0  0  0  0  0  0  0  0  0  0  0  0
  1  2  1  0  0  0  0
  1  8  1  0  0  0  0
  2 13  1  0  0  0  0
  3  9  1  0  0  0  0
  3 10  1  0  0  0  0
  4  9  1  0  0  0  0
  4 11  1  0  0  0  0
  5  9  1  0  0  0  0
  5 12  1  0  0  0  0
  6 10  1  0  0  0  0
  6 11  1  0  0  0  0
  7 10  1  0  0  0  0
  7 12  1  0  0  0  0
  8 14  1  0  0  0  0
 11 13  1  0  0  0  0
 12 13  1  0  0  0  0
 13 14  1  0  0  0  0
  1 15  1  0  0  0  0
  1 16  1  0  0  0  0
  2 17  1  0  0  0  0
  2 18  1  0  0  0  0
  3 19  1  0  0  0  0
  3 20  1  0  0  0  0
  4 21  1  0  0  0  0
  4 22  1  0  0  0  0
  5 23  1  0  0  0  0
  5 24  1  0  0  0  0
  6 25  1  0  0  0  0
  6 26  1  0  0  0  0
  7 27  1  0  0  0  0
  7 28  1  0  0  0  0
  8 29  1  0  0  0  0
  8 30  1  0  0  0  0
  9 31  1  0  0  0  0
 10 32  1  0  0  0  0
 11 33  1  0  0  0  0
 12 34  1  0  0  0  0
 14 35  1  0  0  0  0
M  END
> <id>
EN300-27685046

> <smiles>
Cl.C1CNC2(C1)C3CC4CC(C3)CC2C4

> <IUPAC Name>
spiro[adamantane-2,2'-pyrrolidine] hydrochloride

> <CAS>
158833-10-4

> <Purity>
95

> <URL>
https://www.enaminestore.com/catalog/EN300-27685046

> <Saltdate>
Cl

> <ROCS_ShapeQuery>
_x1247relevant_x1083L0AP1_x1305L0BP1_

> <ROCS_TanimotoCombo>
1.081 

> <ROCS_ShapeTanimoto>
0.549 

> <ROCS_ColorTanimoto>
0.532 

> <ROCS_RefTversky>
0.460 

> <ROCS_RefColorTversky>
0.688 

> <ROCS_RefTverskyCombo>
1.147 

> <ROCS_FitTversky>
1.544 

> <ROCS_FitColorTversky>
0.702 

> <ROCS_FitTverskyCombo>
2.245 

> <ROCS_ColorScore>
-6.639

> <ROCS_Overlap>
1133.351

> <ROCS_Rank>
30                  

$$$$
untitled-dbase-42084_0
  -OEChem-06232314403D

 35 38  0     0  0  0  0  0  0999 V2000
   -9.7178   13.8957  -35.9126 C   0  0  0  0  0  0  0  0  0  0  0  0
  -10.9359   14.8034  -35.9310 C   0  0  0  0  0  0  0  0  0  0  0  0
  -14.2003   15.4339  -39.3431 C   0  0  0  0  0  0  0  0  0  0  0  0
  -13.3695   13.7945  -37.6460 C   0  0  0  0  0  0  0  0  0  0  0  0
  -13.4138   16.2486  -37.1063 C   0  0  0  0  0  0  0  0  0  0  0  0
  -12.0082   14.2650  -39.6832 C   0  0  0  0  0  0  0  0  0  0  0  0
  -12.0640   16.7234  -39.1581 C   0  0  0  0  0  0  0  0  0  0  0  0
   -8.9909   14.1970  -37.2119 C   0  0  0  0  0  0  0  0  0  0  0  0
  -14.1411   15.1096  -37.8410 C   0  0  0  0  0  0  0  0  0  0  0  0
  -12.7754   15.5812  -39.9023 C   0  0  0  0  0  0  0  0  0  0  0  0
  -11.9246   13.9386  -38.1730 C   0  0  0  0  0  0  0  0  0  0  0  0
  -11.9769   16.4039  -37.6487 C   0  0  0  0  0  0  0  0  0  0  0  0
  -11.1778   15.0878  -37.4202 C   0  0  0  0  0  0  0  0  0  0  0  0
   -9.7825   15.2190  -37.9063 N   0  0  0  0  0  0  0  0  0  0  0  0
   -9.0935   14.0898  -35.0347 H   0  0  0  0  0  0  0  0  0  0  0  0
  -10.0249   12.8441  -35.8846 H   0  0  0  0  0  0  0  0  0  0  0  0
  -11.7773   14.3431  -35.4080 H   0  0  0  0  0  0  0  0  0  0  0  0
  -10.6946   15.7323  -35.3968 H   0  0  0  0  0  0  0  0  0  0  0  0
  -14.7331   14.6385  -39.8786 H   0  0  0  0  0  0  0  0  0  0  0  0
  -14.7656   16.3599  -39.5056 H   0  0  0  0  0  0  0  0  0  0  0  0
  -13.3753   13.5070  -36.5897 H   0  0  0  0  0  0  0  0  0  0  0  0
  -13.8788   12.9839  -38.1830 H   0  0  0  0  0  0  0  0  0  0  0  0
  -13.9641   17.1881  -37.2428 H   0  0  0  0  0  0  0  0  0  0  0  0
  -13.3995   16.0522  -36.0282 H   0  0  0  0  0  0  0  0  0  0  0  0
  -12.5163   13.4478  -40.2108 H   0  0  0  0  0  0  0  0  0  0  0  0
  -11.0053   14.3370  -40.1199 H   0  0  0  0  0  0  0  0  0  0  0  0
  -11.0641   16.8807  -39.5792 H   0  0  0  0  0  0  0  0  0  0  0  0
  -12.6125   17.6622  -39.3064 H   0  0  0  0  0  0  0  0  0  0  0  0
   -7.9731   14.5572  -37.0301 H   0  0  0  0  0  0  0  0  0  0  0  0
   -8.9136   13.2963  -37.8305 H   0  0  0  0  0  0  0  0  0  0  0  0
  -15.1581   15.0044  -37.4472 H   0  0  0  0  0  0  0  0  0  0  0  0
  -12.8218   15.8090  -40.9731 H   0  0  0  0  0  0  0  0  0  0  0  0
  -11.4078   12.9801  -38.0457 H   0  0  0  0  0  0  0  0  0  0  0  0
  -11.4899   17.2426  -37.1352 H   0  0  0  0  0  0  0  0  0  0  0  0
   -9.4290   16.1367  -37.6318 H   0  0  0  0  0  0  0  0  0  0  0  0
  1  2  1  0  0  0  0
  1  8  1  0  0  0  0
  2 13  1  0  0  0  0
  3  9  1  0  0  0  0
  3 10  1  0  0  0  0
  4  9  1  0  0  0  0
  4 11  1  0  0  0  0
  5  9  1  0  0  0  0
  5 12  1  0  0  0  0
  6 10  1  0  0  0  0
  6 11  1  0  0  0  0
  7 10  1  0  0  0  0
  7 12  1  0  0  0  0
  8 14  1  0  0  0  0
 11 13  1  0  0  0  0
 12 13  1  0  0  0  0
 13 14  1  0  0  0  0
  1 15  1  0  0  0  0
  1 16  1  0  0  0  0
  2 17  1  0  0  0  0
  2 18  1  0  0  0  0
  3 19  1  0  0  0  0
  3 20  1  0  0  0  0
  4 21  1  0  0  0  0
  4 22  1  0  0  0  0
  5 23  1  0  0  0  0
  5 24  1  0  0  0  0
  6 25  1  0  0  0  0
  6 26  1  0  0  0  0
  7 27  1  0  0  0  0
  7 28  1  0  0  0  0
  8 29  1  0  0  0  0
  8 30  1  0  0  0  0
  9 31  1  0  0  0  0
 10 32  1  0  0  0  0
 11 33  1  0  0  0  0
 12 34  1  0  0  0  0
 14 35  1  0  0  0  0
M  END
> <id>
EN300-8643570

> <smiles>
C1CNC2(C1)C3CC4CC(C3)CC2C4

> <MDLNUMBER>
MFCD20661792

> <IUPAC Name>
spiro[adamantane-2,2'-pyrrolidine]

> <CAS>
59831-69-5

> <URL>
https://www.enaminestore.com/catalog/EN300-8643570

> <ROCS_ShapeQuery>
_x1247relevant_x1083L0AP1_x1305L0BP1_

> <ROCS_TanimotoCombo>
1.081 

> <ROCS_ShapeTanimoto>
0.549 

> <ROCS_ColorTanimoto>
0.532 

> <ROCS_RefTversky>
0.460 

> <ROCS_RefColorTversky>
0.688 

> <ROCS_RefTverskyCombo>
1.147 

> <ROCS_FitTversky>
1.544 

> <ROCS_FitColorTversky>
0.702 

> <ROCS_FitTverskyCombo>
2.245 

> <ROCS_ColorScore>
-6.639

> <ROCS_Overlap>
1133.351

> <ROCS_Rank>
31                  

$$$$
untitled-dbase-27790_0
  -OEChem-06232314403D

 25 27  0     1  0  0  0  0  0999 V2000
  -13.3604   14.6459  -39.4108 C   0  0  0  0  0  0  0  0  0  0  0  0
  -13.0953   16.1347  -39.5083 C   0  0  0  0  0  0  0  0  0  0  0  0
   -9.6532   14.5802  -36.4651 C   0  0  0  0  0  0  0  0  0  0  0  0
  -10.7859   13.6060  -36.7531 C   0  0  0  0  0  0  0  0  0  0  0  0
  -10.2554   15.9347  -36.8083 C   0  0  0  0  0  0  0  0  0  0  0  0
  -13.3226   15.4246  -37.2413 C   0  0  0  0  0  0  0  0  0  0  0  0
  -12.9668   14.1596  -38.0285 C   0  0  2  0  0  0  0  0  0  0  0  0
  -12.4653   16.3528  -38.1121 C   0  0  1  0  0  0  0  0  0  0  0  0
  -11.4315   14.1507  -38.0266 C   0  0  1  0  0  0  0  0  0  0  0  0
  -11.0789   15.6658  -38.0685 C   0  0  2  0  0  0  0  0  0  0  0  0
  -13.7893   13.9444  -40.3132 O   0  0  0  0  0  0  0  0  0  0  0  0
  -12.4080   16.3669  -40.3242 H   0  0  0  0  0  0  0  0  0  0  0  0
  -14.0428   16.6699  -39.6132 H   0  0  0  0  0  0  0  0  0  0  0  0
   -9.3147   14.5275  -35.4265 H   0  0  0  0  0  0  0  0  0  0  0  0
   -8.7966   14.3698  -37.1164 H   0  0  0  0  0  0  0  0  0  0  0  0
  -10.4168   12.5848  -36.8916 H   0  0  0  0  0  0  0  0  0  0  0  0
  -11.4931   13.5871  -35.9160 H   0  0  0  0  0  0  0  0  0  0  0  0
  -10.8801   16.2925  -35.9823 H   0  0  0  0  0  0  0  0  0  0  0  0
   -9.4829   16.6899  -36.9834 H   0  0  0  0  0  0  0  0  0  0  0  0
  -14.3890   15.6746  -37.2855 H   0  0  0  0  0  0  0  0  0  0  0  0
  -13.0104   15.3889  -36.1941 H   0  0  0  0  0  0  0  0  0  0  0  0
  -13.4729   13.2453  -37.7206 H   0  0  0  0  0  0  0  0  0  0  0  0
  -12.4526   17.4010  -37.8058 H   0  0  0  0  0  0  0  0  0  0  0  0
  -11.0236   13.6413  -38.9085 H   0  0  0  0  0  0  0  0  0  0  0  0
  -10.4834   15.9029  -38.9585 H   0  0  0  0  0  0  0  0  0  0  0  0
  1  2  1  0  0  0  0
  1  7  1  0  0  0  0
  1 11  2  0  0  0  0
  2  8  1  0  0  0  0
  3  4  1  0  0  0  0
  3  5  1  0  0  0  0
  4  9  1  0  0  0  0
  5 10  1  0  0  0  0
  6  7  1  0  0  0  0
  6  8  1  0  0  0  0
  7  9  1  0  0  0  0
  8 10  1  0  0  0  0
  9 10  1  0  0  0  0
  2 12  1  0  0  0  0
  2 13  1  0  0  0  0
  3 14  1  0  0  0  0
  3 15  1  0  0  0  0
  4 16  1  0  0  0  0
  4 17  1  0  0  0  0
  5 18  1  0  0  0  0
  5 19  1  0  0  0  0
  6 20  1  0  0  0  0
  6 21  1  0  0  0  0
  7 22  1  0  0  0  0
  8 23  1  0  0  0  0
  9 24  1  0  0  0  0
 10 25  1  0  0  0  0
M  END
> <id>
EN300-21135

> <smiles>
O=C1CC2CC1C3CCCC23

> <MDLNUMBER>
MFCD00168034

> <IUPAC Name>
tricyclo[5.2.1.0,2,6]decan-8-one

> <CAS>
13380-94-4

> <Purity>
95

> <URL>
https://www.enaminestore.com/catalog/EN300-21135

> <ROCS_ShapeQuery>
_x1247relevant_x1083L0AP1_x1305L0BP1_

> <ROCS_TanimotoCombo>
1.080 

> <ROCS_ShapeTanimoto>
0.496 

> <ROCS_ColorTanimoto>
0.584 

> <ROCS_RefTversky>
0.413 

> <ROCS_RefColorTversky>
0.695 

> <ROCS_RefTverskyCombo>
1.108 

> <ROCS_FitTversky>
1.686 

> <ROCS_FitColorTversky>
0.784 

> <ROCS_FitTverskyCombo>
2.471 

> <ROCS_ColorScore>
-6.675

> <ROCS_Overlap>
1014.907

> <ROCS_Rank>
32                  

$$$$
untitled-dbase-4816_0
  -OEChem-06232314403D

 24 26  0     1  0  0  0  0  0999 V2000
   -9.4187   13.8447  -36.6543 C   0  0  0  0  0  0  0  0  0  0  0  0
   -9.3013   15.2074  -36.3394 C   0  0  0  0  0  0  0  0  0  0  0  0
  -10.5040   13.3738  -37.3962 C   0  0  0  0  0  0  0  0  0  0  0  0
  -10.2668   16.1237  -36.7616 C   0  0  0  0  0  0  0  0  0  0  0  0
  -11.4641   14.2828  -37.8143 C   0  0  0  0  0  0  0  0  0  0  0  0
  -11.3446   15.6559  -37.4978 C   0  0  0  0  0  0  0  0  0  0  0  0
  -12.6908   14.8681  -39.8707 C   0  0  0  0  0  0  0  0  0  0  0  0
  -13.9256   14.4240  -37.7835 C   0  0  0  0  0  0  0  0  0  0  0  0
  -13.7844   15.9308  -37.4214 C   0  0  0  0  0  0  0  0  0  0  0  0
  -12.7083   13.9664  -38.6246 C   0  0  2  0  0  0  0  0  0  0  0  0
  -12.4875   16.4844  -38.0490 C   0  0  2  0  0  0  0  0  0  0  0  0
  -12.5620   16.2120  -39.4871 N   0  0  0  0  0  0  0  0  0  0  0  0
  -12.7812   14.4557  -41.0199 O   0  0  0  0  0  0  0  0  0  0  0  0
   -8.6552   13.1492  -36.3160 H   0  0  0  0  0  0  0  0  0  0  0  0
   -8.4483   15.5523  -35.7611 H   0  0  0  0  0  0  0  0  0  0  0  0
  -10.5879   12.3189  -37.6354 H   0  0  0  0  0  0  0  0  0  0  0  0
  -10.1694   17.1758  -36.5160 H   0  0  0  0  0  0  0  0  0  0  0  0
  -14.0046   13.8321  -36.8633 H   0  0  0  0  0  0  0  0  0  0  0  0
  -14.8541   14.2724  -38.3473 H   0  0  0  0  0  0  0  0  0  0  0  0
  -14.6566   16.4850  -37.7886 H   0  0  0  0  0  0  0  0  0  0  0  0
  -13.7674   16.0457  -36.3304 H   0  0  0  0  0  0  0  0  0  0  0  0
  -12.7708   12.9124  -38.9083 H   0  0  0  0  0  0  0  0  0  0  0  0
  -12.3580   17.5575  -37.8845 H   0  0  0  0  0  0  0  0  0  0  0  0
  -12.5224   16.9594  -40.1728 H   0  0  0  0  0  0  0  0  0  0  0  0
  1  2  2  0  0  0  0
  1  3  1  0  0  0  0
  2  4  1  0  0  0  0
  3  5  2  0  0  0  0
  4  6  2  0  0  0  0
  5  6  1  0  0  0  0
  5 10  1  0  0  0  0
  6 11  1  0  0  0  0
  7 10  1  0  0  0  0
  7 12  1  0  0  0  0
  7 13  2  0  0  0  0
  8  9  1  0  0  0  0
  8 10  1  0  0  0  0
  9 11  1  0  0  0  0
 11 12  1  0  0  0  0
  1 14  1  0  0  0  0
  2 15  1  0  0  0  0
  3 16  1  0  0  0  0
  4 17  1  0  0  0  0
  8 18  1  0  0  0  0
  8 19  1  0  0  0  0
  9 20  1  0  0  0  0
  9 21  1  0  0  0  0
 10 22  1  0  0  0  0
 11 23  1  0  0  0  0
 12 24  1  0  0  0  0
M  END
> <id>
EN300-203744

> <smiles>
O=C1NC2CCC1C=3C=CC=CC23

> <MDLNUMBER>
MFCD24551084

> <IUPAC Name>
9-azatricyclo[6.2.2.0,2,7]dodeca-2,4,6-trien-10-one

> <CAS>
3118-16-9

> <Purity>
95

> <URL>
https://www.enaminestore.com/catalog/EN300-203744

> <ROCS_ShapeQuery>
_x1247relevant_x1083L0AP1_x1305L0BP1_

> <ROCS_TanimotoCombo>
1.079 

> <ROCS_ShapeTanimoto>
0.506 

> <ROCS_ColorTanimoto>
0.573 

> <ROCS_RefTversky>
0.432 

> <ROCS_RefColorTversky>
0.709 

> <ROCS_RefTverskyCombo>
1.141 

> <ROCS_FitTversky>
1.517 

> <ROCS_FitColorTversky>
0.749 

> <ROCS_FitTverskyCombo>
2.266 

> <ROCS_ColorScore>
-6.835

> <ROCS_Overlap>
1063.357

> <ROCS_Rank>
33                  

$$$$
untitled-dbase-44408_0
  -OEChem-06232314403D

 24 26  0     1  0  0  0  0  0999 V2000
  -10.3715   14.0050  -36.7720 C   0  0  0  0  0  0  0  0  0  0  0  0
  -10.2367   13.6139  -38.2164 C   0  0  0  0  0  0  0  0  0  0  0  0
  -13.4182   15.5242  -37.3141 C   0  0  0  0  0  0  0  0  0  0  0  0
  -13.2631   14.1714  -39.2672 C   0  0  0  0  0  0  0  0  0  0  0  0
  -11.2426   16.0560  -38.1536 C   0  0  0  0  0  0  0  0  0  0  0  0
  -12.7835   14.2139  -37.8028 C   0  0  1  0  0  0  0  0  0  0  0  0
  -12.7395   16.3722  -38.4012 C   0  0  1  0  0  0  0  0  0  0  0  0
  -13.2000   15.6547  -39.6875 C   0  0  2  0  0  0  0  0  0  0  0  0
  -11.3110   14.5849  -37.7991 C   0  0  0  0  0  0  0  0  0  0  0  0
  -14.4952   16.0973  -40.0682 O   0  0  0  0  0  0  0  0  0  0  0  0
  -10.7546   13.2612  -36.0841 H   0  0  0  0  0  0  0  0  0  0  0  0
   -9.6043   14.6448  -36.3531 H   0  0  0  0  0  0  0  0  0  0  0  0
   -9.3831   13.9958  -38.7629 H   0  0  0  0  0  0  0  0  0  0  0  0
  -10.5309   12.6087  -38.4925 H   0  0  0  0  0  0  0  0  0  0  0  0
  -14.5112   15.5253  -37.3753 H   0  0  0  0  0  0  0  0  0  0  0  0
  -13.1039   15.8043  -36.3027 H   0  0  0  0  0  0  0  0  0  0  0  0
  -12.6085   13.5542  -39.8911 H   0  0  0  0  0  0  0  0  0  0  0  0
  -14.2831   13.7767  -39.3345 H   0  0  0  0  0  0  0  0  0  0  0  0
  -10.6300   16.2505  -39.0393 H   0  0  0  0  0  0  0  0  0  0  0  0
  -10.8620   16.6435  -37.3110 H   0  0  0  0  0  0  0  0  0  0  0  0
  -13.0390   13.3264  -37.2195 H   0  0  0  0  0  0  0  0  0  0  0  0
  -12.9845   17.4360  -38.3658 H   0  0  0  0  0  0  0  0  0  0  0  0
  -12.5182   15.8122  -40.5297 H   0  0  0  0  0  0  0  0  0  0  0  0
  -14.4093   17.0302  -40.3235 H   0  0  0  0  0  0  0  0  0  0  0  0
  1  2  1  0  0  0  0
  1  9  1  0  0  0  0
  2  9  1  0  0  0  0
  3  6  1  0  0  0  0
  3  7  1  0  0  0  0
  4  6  1  0  0  0  0
  4  8  1  0  0  0  0
  5  7  1  0  0  0  0
  5  9  1  0  0  0  0
  6  9  1  0  0  0  0
  7  8  1  0  0  0  0
  8 10  1  0  0  0  0
  1 11  1  0  0  0  0
  1 12  1  0  0  0  0
  2 13  1  0  0  0  0
  2 14  1  0  0  0  0
  3 15  1  0  0  0  0
  3 16  1  0  0  0  0
  4 17  1  0  0  0  0
  4 18  1  0  0  0  0
  5 19  1  0  0  0  0
  5 20  1  0  0  0  0
  6 21  1  0  0  0  0
  7 22  1  0  0  0  0
  8 23  1  0  0  0  0
 10 24  1  0  0  0  0
M  END
> <id>
EN300-7682466

> <smiles>
OC1CC2CC1CC32CC3

> <MDLNUMBER>
MFCD34168683

> <IUPAC Name>
spiro[bicyclo[2.2.1]heptane-2,1'-cyclopropane]-5-ol

> <CAS>
111266-25-2

> <Purity>
95

> <URL>
https://www.enaminestore.com/catalog/EN300-7682466

> <ROCS_ShapeQuery>
_x1247relevant_x1083L0AP1_x1305L0BP1_

> <ROCS_TanimotoCombo>
1.078 

> <ROCS_ShapeTanimoto>
0.464 

> <ROCS_ColorTanimoto>
0.614 

> <ROCS_RefTversky>
0.388 

> <ROCS_RefColorTversky>
0.713 

> <ROCS_RefTverskyCombo>
1.101 

> <ROCS_FitTversky>
1.729 

> <ROCS_FitColorTversky>
0.815 

> <ROCS_FitTverskyCombo>
2.544 

> <ROCS_ColorScore>
-6.845

> <ROCS_Overlap>
953.659

> <ROCS_Rank>
34                  

$$$$
untitled-dbase-40288_0
  -OEChem-06232314403D

 23 25  0     1  0  0  0  0  0999 V2000
   -9.4883   15.3980  -37.8752 C   0  0  0  0  0  0  0  0  0  0  0  0
   -8.9886   14.6239  -36.8373 C   0  0  0  0  0  0  0  0  0  0  0  0
  -11.0866   13.9434  -36.1763 C   0  0  0  0  0  0  0  0  0  0  0  0
  -10.8658   15.4260  -38.0602 C   0  0  0  0  0  0  0  0  0  0  0  0
  -11.6902   14.6952  -37.1731 C   0  0  0  0  0  0  0  0  0  0  0  0
  -13.3731   14.7789  -39.7499 C   0  0  0  0  0  0  0  0  0  0  0  0
  -13.4510   13.8418  -38.5226 C   0  0  0  0  0  0  0  0  0  0  0  0
  -13.5138   16.0707  -37.7606 C   0  0  0  0  0  0  0  0  0  0  0  0
  -12.9269   16.1374  -39.1747 C   0  0  1  0  0  0  0  0  0  0  0  0
   -9.7497   13.8941  -35.9871 N   0  0  0  0  0  0  0  0  0  0  0  0
  -11.4665   16.1841  -39.0670 N   0  0  0  0  0  0  0  0  0  0  0  0
  -13.1031   14.7069  -37.3702 N   0  0  2  0  0  0  0  0  0  0  0  0
   -8.8172   15.9563  -38.5189 H   0  0  0  0  0  0  0  0  0  0  0  0
   -7.9196   14.5679  -36.6568 H   0  0  0  0  0  0  0  0  0  0  0  0
  -11.6715   13.3469  -35.4838 H   0  0  0  0  0  0  0  0  0  0  0  0
  -12.6881   14.4029  -40.5171 H   0  0  0  0  0  0  0  0  0  0  0  0
  -14.3670   14.8729  -40.2030 H   0  0  0  0  0  0  0  0  0  0  0  0
  -14.4760   13.4734  -38.3994 H   0  0  0  0  0  0  0  0  0  0  0  0
  -12.7954   12.9686  -38.6253 H   0  0  0  0  0  0  0  0  0  0  0  0
  -13.1410   16.8498  -37.0840 H   0  0  0  0  0  0  0  0  0  0  0  0
  -14.6087   16.1377  -37.7802 H   0  0  0  0  0  0  0  0  0  0  0  0
  -13.2962   16.9830  -39.7610 H   0  0  0  0  0  0  0  0  0  0  0  0
  -10.9057   16.5989  -39.8001 H   0  0  0  0  0  0  0  0  0  0  0  0
  1  2  1  0  0  0  0
  1  4  2  0  0  0  0
  2 10  2  0  0  0  0
  3  5  2  0  0  0  0
  3 10  1  0  0  0  0
  4  5  1  0  0  0  0
  4 11  1  0  0  0  0
  5 12  1  0  0  0  0
  6  7  1  0  0  0  0
  6  9  1  0  0  0  0
  7 12  1  0  0  0  0
  8  9  1  0  0  0  0
  8 12  1  0  0  0  0
  9 11  1  0  0  0  0
  1 13  1  0  0  0  0
  2 14  1  0  0  0  0
  3 15  1  0  0  0  0
  6 16  1  0  0  0  0
  6 17  1  0  0  0  0
  7 18  1  0  0  0  0
  7 19  1  0  0  0  0
  8 20  1  0  0  0  0
  8 21  1  0  0  0  0
  9 22  1  0  0  0  0
 11 23  1  0  0  0  0
M  END
> <id>
EN300-813963

> <smiles>
Cl.Cl.C1CN2CC1NC=3C=CN=CC23

> <MDLNUMBER>
MFCD31558782

> <IUPAC Name>
1,4,8-triazatricyclo[7.2.1.0,2,7]dodeca-2,4,6-triene dihydrochloride

> <CAS>
2137655-27-5

> <Purity>
95

> <URL>
https://www.enaminestore.com/catalog/EN300-813963

> <Saltdate>
Cl

> <ROCS_ShapeQuery>
_x1247relevant_x1083L0AP1_x1305L0BP1_

> <ROCS_TanimotoCombo>
1.078 

> <ROCS_ShapeTanimoto>
0.524 

> <ROCS_ColorTanimoto>
0.554 

> <ROCS_RefTversky>
0.437 

> <ROCS_RefColorTversky>
0.688 

> <ROCS_RefTverskyCombo>
1.125 

> <ROCS_FitTversky>
1.617 

> <ROCS_FitColorTversky>
0.741 

> <ROCS_FitTverskyCombo>
2.358 

> <ROCS_ColorScore>
-6.623

> <ROCS_Overlap>
1074.758

> <ROCS_Rank>
35                  

$$$$
untitled-dbase-15112_0
  -OEChem-06232314403D

 23 25  0     1  0  0  0  0  0999 V2000
   -9.4883   15.3980  -37.8752 C   0  0  0  0  0  0  0  0  0  0  0  0
   -8.9886   14.6239  -36.8373 C   0  0  0  0  0  0  0  0  0  0  0  0
  -11.0866   13.9434  -36.1763 C   0  0  0  0  0  0  0  0  0  0  0  0
  -10.8658   15.4260  -38.0602 C   0  0  0  0  0  0  0  0  0  0  0  0
  -11.6902   14.6952  -37.1731 C   0  0  0  0  0  0  0  0  0  0  0  0
  -13.3731   14.7789  -39.7499 C   0  0  0  0  0  0  0  0  0  0  0  0
  -13.4510   13.8418  -38.5226 C   0  0  0  0  0  0  0  0  0  0  0  0
  -13.5138   16.0707  -37.7606 C   0  0  0  0  0  0  0  0  0  0  0  0
  -12.9269   16.1374  -39.1747 C   0  0  1  0  0  0  0  0  0  0  0  0
   -9.7497   13.8941  -35.9871 N   0  0  0  0  0  0  0  0  0  0  0  0
  -11.4665   16.1841  -39.0670 N   0  0  0  0  0  0  0  0  0  0  0  0
  -13.1031   14.7069  -37.3702 N   0  0  2  0  0  0  0  0  0  0  0  0
   -8.8172   15.9563  -38.5189 H   0  0  0  0  0  0  0  0  0  0  0  0
   -7.9196   14.5679  -36.6568 H   0  0  0  0  0  0  0  0  0  0  0  0
  -11.6715   13.3469  -35.4838 H   0  0  0  0  0  0  0  0  0  0  0  0
  -12.6881   14.4029  -40.5171 H   0  0  0  0  0  0  0  0  0  0  0  0
  -14.3670   14.8729  -40.2030 H   0  0  0  0  0  0  0  0  0  0  0  0
  -14.4760   13.4734  -38.3994 H   0  0  0  0  0  0  0  0  0  0  0  0
  -12.7954   12.9686  -38.6253 H   0  0  0  0  0  0  0  0  0  0  0  0
  -13.1410   16.8498  -37.0840 H   0  0  0  0  0  0  0  0  0  0  0  0
  -14.6087   16.1377  -37.7802 H   0  0  0  0  0  0  0  0  0  0  0  0
  -13.2962   16.9830  -39.7610 H   0  0  0  0  0  0  0  0  0  0  0  0
  -10.9057   16.5989  -39.8001 H   0  0  0  0  0  0  0  0  0  0  0  0
  1  2  1  0  0  0  0
  1  4  2  0  0  0  0
  2 10  2  0  0  0  0
  3  5  2  0  0  0  0
  3 10  1  0  0  0  0
  4  5  1  0  0  0  0
  4 11  1  0  0  0  0
  5 12  1  0  0  0  0
  6  7  1  0  0  0  0
  6  9  1  0  0  0  0
  7 12  1  0  0  0  0
  8  9  1  0  0  0  0
  8 12  1  0  0  0  0
  9 11  1  0  0  0  0
  1 13  1  0  0  0  0
  2 14  1  0  0  0  0
  3 15  1  0  0  0  0
  6 16  1  0  0  0  0
  6 17  1  0  0  0  0
  7 18  1  0  0  0  0
  7 19  1  0  0  0  0
  8 20  1  0  0  0  0
  8 21  1  0  0  0  0
  9 22  1  0  0  0  0
 11 23  1  0  0  0  0
M  END
> <id>
EN300-813964

> <smiles>
C1CN2CC1NC=3C=CN=CC23

> <MDLNUMBER>
MFCD31689400

> <IUPAC Name>
1,4,8-triazatricyclo[7.2.1.0,2,7]dodeca-2,4,6-triene

> <CAS>
2137562-44-6

> <URL>
https://www.enaminestore.com/catalog/EN300-813964

> <ROCS_ShapeQuery>
_x1247relevant_x1083L0AP1_x1305L0BP1_

> <ROCS_TanimotoCombo>
1.078 

> <ROCS_ShapeTanimoto>
0.524 

> <ROCS_ColorTanimoto>
0.554 

> <ROCS_RefTversky>
0.437 

> <ROCS_RefColorTversky>
0.688 

> <ROCS_RefTverskyCombo>
1.125 

> <ROCS_FitTversky>
1.617 

> <ROCS_FitColorTversky>
0.741 

> <ROCS_FitTverskyCombo>
2.358 

> <ROCS_ColorScore>
-6.623

> <ROCS_Overlap>
1074.758

> <ROCS_Rank>
36                  

$$$$
untitled-dbase-37047_0
  -OEChem-06232314403D

 18 19  0     0  0  0  0  0  0999 V2000
  -11.8039   15.8346  -39.0486 C   0  0  0  0  0  0  0  0  0  0  0  0
  -13.2400   15.8530  -37.4628 C   0  0  0  0  0  0  0  0  0  0  0  0
  -12.9759   14.0904  -38.6473 C   0  0  0  0  0  0  0  0  0  0  0  0
  -11.9618   14.9304  -37.7383 C   0  0  0  0  0  0  0  0  0  0  0  0
  -13.2978   15.5477  -38.9544 C   0  0  0  0  0  0  0  0  0  0  0  0
  -10.9280   14.4521  -36.7971 C   0  0  0  0  0  0  0  0  0  0  0  0
  -14.2810   16.0028  -39.8515 N   0  0  0  0  0  0  0  0  0  0  0  0
  -10.2623   15.4797  -36.2065 F   0  0  0  0  0  0  0  0  0  0  0  0
  -11.4587   13.7002  -35.7966 F   0  0  0  0  0  0  0  0  0  0  0  0
   -9.9939   13.6818  -37.4152 F   0  0  0  0  0  0  0  0  0  0  0  0
  -11.4742   16.8676  -38.8970 H   0  0  0  0  0  0  0  0  0  0  0  0
  -11.2536   15.3949  -39.8868 H   0  0  0  0  0  0  0  0  0  0  0  0
  -14.0236   15.4294  -36.8262 H   0  0  0  0  0  0  0  0  0  0  0  0
  -13.0445   16.8875  -37.1626 H   0  0  0  0  0  0  0  0  0  0  0  0
  -12.5355   13.4872  -39.4477 H   0  0  0  0  0  0  0  0  0  0  0  0
  -13.7350   13.5019  -38.1218 H   0  0  0  0  0  0  0  0  0  0  0  0
  -14.3040   17.0126  -39.8854 H   0  0  0  0  0  0  0  0  0  0  0  0
  -14.1027   15.6666  -40.7878 H   0  0  0  0  0  0  0  0  0  0  0  0
  1  4  1  0  0  0  0
  1  5  1  0  0  0  0
  2  4  1  0  0  0  0
  2  5  1  0  0  0  0
  3  4  1  0  0  0  0
  3  5  1  0  0  0  0
  4  6  1  0  0  0  0
  5  7  1  0  0  0  0
  6  8  1  0  0  0  0
  6  9  1  0  0  0  0
  6 10  1  0  0  0  0
  1 11  1  0  0  0  0
  1 12  1  0  0  0  0
  2 13  1  0  0  0  0
  2 14  1  0  0  0  0
  3 15  1  0  0  0  0
  3 16  1  0  0  0  0
  7 17  1  0  0  0  0
  7 18  1  0  0  0  0
M  END
> <id>
EN300-53462

> <smiles>
NC1(CC2(C1)C(F)(F)F)C2

> <MDLNUMBER>
MFCD17480480

> <IUPAC Name>
3-(trifluoromethyl)bicyclo[1.1.1]pentan-1-amine

> <CAS>
262852-08-4

> <URL>
https://www.enaminestore.com/catalog/EN300-53462

> <ROCS_ShapeQuery>
_x1247relevant_x1083L0AP1_x1305L0BP1_

> <ROCS_TanimotoCombo>
1.077 

> <ROCS_ShapeTanimoto>
0.463 

> <ROCS_ColorTanimoto>
0.614 

> <ROCS_RefTversky>
0.388 

> <ROCS_RefColorTversky>
0.755 

> <ROCS_RefTverskyCombo>
1.143 

> <ROCS_FitTversky>
1.721 

> <ROCS_FitColorTversky>
0.767 

> <ROCS_FitTverskyCombo>
2.488 

> <ROCS_ColorScore>
-7.294

> <ROCS_Overlap>
952.104

> <ROCS_Rank>
37                  

$$$$
untitled-dbase-1757_0
  -OEChem-06232314403D

 18 19  0     0  0  0  0  0  0999 V2000
  -11.8039   15.8346  -39.0486 C   0  0  0  0  0  0  0  0  0  0  0  0
  -13.2400   15.8530  -37.4628 C   0  0  0  0  0  0  0  0  0  0  0  0
  -12.9759   14.0904  -38.6473 C   0  0  0  0  0  0  0  0  0  0  0  0
  -11.9618   14.9304  -37.7383 C   0  0  0  0  0  0  0  0  0  0  0  0
  -13.2978   15.5477  -38.9544 C   0  0  0  0  0  0  0  0  0  0  0  0
  -10.9280   14.4521  -36.7971 C   0  0  0  0  0  0  0  0  0  0  0  0
  -14.2810   16.0028  -39.8515 N   0  0  0  0  0  0  0  0  0  0  0  0
  -10.2623   15.4797  -36.2065 F   0  0  0  0  0  0  0  0  0  0  0  0
  -11.4587   13.7002  -35.7966 F   0  0  0  0  0  0  0  0  0  0  0  0
   -9.9939   13.6818  -37.4152 F   0  0  0  0  0  0  0  0  0  0  0  0
  -11.4742   16.8676  -38.8970 H   0  0  0  0  0  0  0  0  0  0  0  0
  -11.2536   15.3949  -39.8868 H   0  0  0  0  0  0  0  0  0  0  0  0
  -14.0236   15.4294  -36.8262 H   0  0  0  0  0  0  0  0  0  0  0  0
  -13.0445   16.8875  -37.1626 H   0  0  0  0  0  0  0  0  0  0  0  0
  -12.5355   13.4872  -39.4477 H   0  0  0  0  0  0  0  0  0  0  0  0
  -13.7350   13.5019  -38.1218 H   0  0  0  0  0  0  0  0  0  0  0  0
  -14.3040   17.0126  -39.8854 H   0  0  0  0  0  0  0  0  0  0  0  0
  -14.1027   15.6666  -40.7878 H   0  0  0  0  0  0  0  0  0  0  0  0
  1  4  1  0  0  0  0
  1  5  1  0  0  0  0
  2  4  1  0  0  0  0
  2  5  1  0  0  0  0
  3  4  1  0  0  0  0
  3  5  1  0  0  0  0
  4  6  1  0  0  0  0
  5  7  1  0  0  0  0
  6  8  1  0  0  0  0
  6  9  1  0  0  0  0
  6 10  1  0  0  0  0
  1 11  1  0  0  0  0
  1 12  1  0  0  0  0
  2 13  1  0  0  0  0
  2 14  1  0  0  0  0
  3 15  1  0  0  0  0
  3 16  1  0  0  0  0
  7 17  1  0  0  0  0
  7 18  1  0  0  0  0
M  END
> <id>
EN300-97962

> <smiles>
Cl.NC1(CC2(C1)C(F)(F)F)C2

> <MDLNUMBER>
MFCD22056474

> <IUPAC Name>
3-(trifluoromethyl)bicyclo[1.1.1]pentan-1-amine hydrochloride

> <CAS>
262852-11-9

> <Purity>
95

> <URL>
https://www.enaminestore.com/catalog/EN300-97962

> <Saltdate>
Cl

> <ROCS_ShapeQuery>
_x1247relevant_x1083L0AP1_x1305L0BP1_

> <ROCS_TanimotoCombo>
1.077 

> <ROCS_ShapeTanimoto>
0.463 

> <ROCS_ColorTanimoto>
0.614 

> <ROCS_RefTversky>
0.388 

> <ROCS_RefColorTversky>
0.755 

> <ROCS_RefTverskyCombo>
1.143 

> <ROCS_FitTversky>
1.721 

> <ROCS_FitColorTversky>
0.767 

> <ROCS_FitTverskyCombo>
2.488 

> <ROCS_ColorScore>
-7.294

> <ROCS_Overlap>
952.104

> <ROCS_Rank>
38                  

$$$$
untitled-dbase-41367_0
  -OEChem-06232314403D

 18 19  0     0  0  0  0  0  0999 V2000
  -13.1784   15.9319  -37.4809 C   0  0  0  0  0  0  0  0  0  0  0  0
  -13.0402   14.0960  -38.5704 C   0  0  0  0  0  0  0  0  0  0  0  0
  -11.7919   15.7511  -39.1001 C   0  0  0  0  0  0  0  0  0  0  0  0
  -11.9580   14.9296  -37.7372 C   0  0  0  0  0  0  0  0  0  0  0  0
  -13.2946   15.5490  -38.9515 C   0  0  0  0  0  0  0  0  0  0  0  0
  -10.9234   14.4503  -36.7974 C   0  0  0  0  0  0  0  0  0  0  0  0
  -14.2798   16.0057  -39.8455 N   0  0  0  0  0  0  0  0  0  0  0  0
  -11.4629   13.7837  -35.7425 F   0  0  0  0  0  0  0  0  0  0  0  0
  -10.0477   13.5992  -37.3946 F   0  0  0  0  0  0  0  0  0  0  0  0
  -10.1897   15.4727  -36.2830 F   0  0  0  0  0  0  0  0  0  0  0  0
  -13.9646   15.5862  -36.8018 H   0  0  0  0  0  0  0  0  0  0  0  0
  -12.9215   16.9694  -37.2440 H   0  0  0  0  0  0  0  0  0  0  0  0
  -12.6542   13.4270  -39.3464 H   0  0  0  0  0  0  0  0  0  0  0  0
  -13.8134   13.5784  -37.9935 H   0  0  0  0  0  0  0  0  0  0  0  0
  -11.4052   16.7719  -39.0153 H   0  0  0  0  0  0  0  0  0  0  0  0
  -11.2890   15.2376  -39.9260 H   0  0  0  0  0  0  0  0  0  0  0  0
  -15.2051   15.7493  -39.5302 H   0  0  0  0  0  0  0  0  0  0  0  0
  -14.2520   17.0120  -39.9346 H   0  0  0  0  0  0  0  0  0  0  0  0
  1  4  1  0  0  0  0
  1  5  1  0  0  0  0
  2  4  1  0  0  0  0
  2  5  1  0  0  0  0
  3  4  1  0  0  0  0
  3  5  1  0  0  0  0
  4  6  1  6  0  0  0
  5  7  1  6  0  0  0
  6  8  1  0  0  0  0
  6  9  1  0  0  0  0
  6 10  1  0  0  0  0
  1 11  1  0  0  0  0
  1 12  1  0  0  0  0
  2 13  1  0  0  0  0
  2 14  1  0  0  0  0
  3 15  1  0  0  0  0
  3 16  1  0  0  0  0
  7 17  1  0  0  0  0
  7 18  1  0  0  0  0
M  END
> <id>
EN300-27713402

> <smiles>
N[C@]1(C[C@]2(C1)C(F)(F)F)C2

> <IUPAC Name>
3-(trifluoromethyl)bicyclo[1.1.1]pentan-1-amine

> <URL>
https://www.enaminestore.com/catalog/EN300-27713402

> <ROCS_ShapeQuery>
_x1247relevant_x1083L0AP1_x1305L0BP1_

> <ROCS_TanimotoCombo>
1.077 

> <ROCS_ShapeTanimoto>
0.463 

> <ROCS_ColorTanimoto>
0.614 

> <ROCS_RefTversky>
0.388 

> <ROCS_RefColorTversky>
0.755 

> <ROCS_RefTverskyCombo>
1.143 

> <ROCS_FitTversky>
1.721 

> <ROCS_FitColorTversky>
0.767 

> <ROCS_FitTverskyCombo>
2.487 

> <ROCS_ColorScore>
-7.294

> <ROCS_Overlap>
952.081

> <ROCS_Rank>
39                  

$$$$
untitled-dbase-50083_0
  -OEChem-06232314403D

 18 19  0     0  0  0  0  0  0999 V2000
  -13.1784   15.9319  -37.4809 C   0  0  0  0  0  0  0  0  0  0  0  0
  -13.0402   14.0960  -38.5704 C   0  0  0  0  0  0  0  0  0  0  0  0
  -11.7919   15.7511  -39.1001 C   0  0  0  0  0  0  0  0  0  0  0  0
  -11.9580   14.9296  -37.7372 C   0  0  0  0  0  0  0  0  0  0  0  0
  -13.2946   15.5490  -38.9515 C   0  0  0  0  0  0  0  0  0  0  0  0
  -10.9234   14.4503  -36.7974 C   0  0  0  0  0  0  0  0  0  0  0  0
  -14.2798   16.0057  -39.8455 N   0  0  0  0  0  0  0  0  0  0  0  0
  -11.4629   13.7837  -35.7425 F   0  0  0  0  0  0  0  0  0  0  0  0
  -10.0477   13.5992  -37.3946 F   0  0  0  0  0  0  0  0  0  0  0  0
  -10.1897   15.4727  -36.2830 F   0  0  0  0  0  0  0  0  0  0  0  0
  -13.9646   15.5862  -36.8018 H   0  0  0  0  0  0  0  0  0  0  0  0
  -12.9215   16.9694  -37.2440 H   0  0  0  0  0  0  0  0  0  0  0  0
  -12.6542   13.4270  -39.3464 H   0  0  0  0  0  0  0  0  0  0  0  0
  -13.8134   13.5784  -37.9935 H   0  0  0  0  0  0  0  0  0  0  0  0
  -11.4052   16.7719  -39.0153 H   0  0  0  0  0  0  0  0  0  0  0  0
  -11.2890   15.2376  -39.9260 H   0  0  0  0  0  0  0  0  0  0  0  0
  -15.2051   15.7493  -39.5302 H   0  0  0  0  0  0  0  0  0  0  0  0
  -14.2520   17.0120  -39.9346 H   0  0  0  0  0  0  0  0  0  0  0  0
  1  4  1  0  0  0  0
  1  5  1  0  0  0  0
  2  4  1  0  0  0  0
  2  5  1  0  0  0  0
  3  4  1  0  0  0  0
  3  5  1  0  0  0  0
  4  6  1  6  0  0  0
  5  7  1  6  0  0  0
  6  8  1  0  0  0  0
  6  9  1  0  0  0  0
  6 10  1  0  0  0  0
  1 11  1  0  0  0  0
  1 12  1  0  0  0  0
  2 13  1  0  0  0  0
  2 14  1  0  0  0  0
  3 15  1  0  0  0  0
  3 16  1  0  0  0  0
  7 17  1  0  0  0  0
  7 18  1  0  0  0  0
M  END
> <id>
EN300-37374040

> <smiles>
Cl.N[C@]1(C[C@]2(C1)C(F)(F)F)C2

> <IUPAC Name>
3-(trifluoromethyl)bicyclo[1.1.1]pentan-1-amine hydrochloride

> <CAS>
262852-11-9

> <URL>
https://www.enaminestore.com/catalog/EN300-37374040

> <ROCS_ShapeQuery>
_x1247relevant_x1083L0AP1_x1305L0BP1_

> <ROCS_TanimotoCombo>
1.077 

> <ROCS_ShapeTanimoto>
0.463 

> <ROCS_ColorTanimoto>
0.614 

> <ROCS_RefTversky>
0.388 

> <ROCS_RefColorTversky>
0.755 

> <ROCS_RefTverskyCombo>
1.143 

> <ROCS_FitTversky>
1.721 

> <ROCS_FitColorTversky>
0.767 

> <ROCS_FitTverskyCombo>
2.487 

> <ROCS_ColorScore>
-7.294

> <ROCS_Overlap>
952.081

> <ROCS_Rank>
40                  

$$$$
untitled-dbase-43620_0
  -OEChem-06232314403D

 17 18  0     0  0  0  0  0  0999 V2000
  -11.8084   15.9267  -38.9564 C   0  0  0  0  0  0  0  0  0  0  0  0
  -12.8637   14.0912  -38.7210 C   0  0  0  0  0  0  0  0  0  0  0  0
  -13.2783   15.7327  -37.4269 C   0  0  0  0  0  0  0  0  0  0  0  0
  -11.9470   14.9273  -37.7332 C   0  0  0  0  0  0  0  0  0  0  0  0
  -13.3108   15.5535  -38.9641 C   0  0  0  0  0  0  0  0  0  0  0  0
  -10.9081   14.4503  -36.7958 C   0  0  0  0  0  0  0  0  0  0  0  0
  -14.2947   16.0096  -39.8575 O   0  0  0  0  0  0  0  0  0  0  0  0
  -10.3315   15.4736  -36.1119 F   0  0  0  0  0  0  0  0  0  0  0  0
  -11.4132   13.5928  -35.8702 F   0  0  0  0  0  0  0  0  0  0  0  0
   -9.9072   13.7922  -37.4380 F   0  0  0  0  0  0  0  0  0  0  0  0
  -11.5507   16.9637  -38.7176 H   0  0  0  0  0  0  0  0  0  0  0  0
  -11.2031   15.5870  -39.8032 H   0  0  0  0  0  0  0  0  0  0  0  0
  -12.3589   13.5776  -39.5457 H   0  0  0  0  0  0  0  0  0  0  0  0
  -13.5916   13.4140  -38.2625 H   0  0  0  0  0  0  0  0  0  0  0  0
  -14.0456   15.2118  -36.8450 H   0  0  0  0  0  0  0  0  0  0  0  0
  -13.1604   16.7514  -37.0432 H   0  0  0  0  0  0  0  0  0  0  0  0
  -15.1407   15.5954  -39.6032 H   0  0  0  0  0  0  0  0  0  0  0  0
  1  4  1  0  0  0  0
  1  5  1  0  0  0  0
  2  4  1  0  0  0  0
  2  5  1  0  0  0  0
  3  4  1  0  0  0  0
  3  5  1  0  0  0  0
  4  6  1  0  0  0  0
  5  7  1  0  0  0  0
  6  8  1  0  0  0  0
  6  9  1  0  0  0  0
  6 10  1  0  0  0  0
  1 11  1  0  0  0  0
  1 12  1  0  0  0  0
  2 13  1  0  0  0  0
  2 14  1  0  0  0  0
  3 15  1  0  0  0  0
  3 16  1  0  0  0  0
  7 17  1  0  0  0  0
M  END
> <id>
EN300-22133888

> <smiles>
OC1(CC2(C1)C(F)(F)F)C2

> <MDLNUMBER>
MFCD18826719

> <IUPAC Name>
3-(trifluoromethyl)bicyclo[1.1.1]pentan-1-ol

> <CAS>
585532-19-0

> <Purity>
95

> <URL>
https://www.enaminestore.com/catalog/EN300-22133888

> <ROCS_ShapeQuery>
_x1247relevant_x1083L0AP1_x1305L0BP1_

> <ROCS_TanimotoCombo>
1.076 

> <ROCS_ShapeTanimoto>
0.461 

> <ROCS_ColorTanimoto>
0.615 

> <ROCS_RefTversky>
0.387 

> <ROCS_RefColorTversky>
0.756 

> <ROCS_RefTverskyCombo>
1.143 

> <ROCS_FitTversky>
1.720 

> <ROCS_FitColorTversky>
0.767 

> <ROCS_FitTverskyCombo>
2.487 

> <ROCS_ColorScore>
-7.305

> <ROCS_Overlap>
949.685

> <ROCS_Rank>
41                  

$$$$
untitled-dbase-51271_0
  -OEChem-06232314403D

 17 18  0     0  0  0  0  0  0999 V2000
  -13.0258   16.0782  -37.5436 C   0  0  0  0  0  0  0  0  0  0  0  0
  -13.1519   14.1284  -38.3921 C   0  0  0  0  0  0  0  0  0  0  0  0
  -11.7815   15.5518  -39.1906 C   0  0  0  0  0  0  0  0  0  0  0  0
  -11.9490   14.9310  -37.7409 C   0  0  0  0  0  0  0  0  0  0  0  0
  -13.3140   15.5547  -38.9717 C   0  0  0  0  0  0  0  0  0  0  0  0
  -10.9094   14.4558  -36.8034 C   0  0  0  0  0  0  0  0  0  0  0  0
  -14.3037   16.0095  -39.8594 O   0  0  0  0  0  0  0  0  0  0  0  0
  -11.4447   13.9862  -35.6457 F   0  0  0  0  0  0  0  0  0  0  0  0
  -10.1694   13.4465  -37.3335 F   0  0  0  0  0  0  0  0  0  0  0  0
  -10.0410   15.4446  -36.4634 F   0  0  0  0  0  0  0  0  0  0  0  0
  -13.7936   15.9066  -36.7823 H   0  0  0  0  0  0  0  0  0  0  0  0
  -12.6444   17.1005  -37.4520 H   0  0  0  0  0  0  0  0  0  0  0  0
  -12.8891   13.3298  -39.0936 H   0  0  0  0  0  0  0  0  0  0  0  0
  -13.9310   13.7716  -37.7107 H   0  0  0  0  0  0  0  0  0  0  0  0
  -11.2815   16.5236  -39.2546 H   0  0  0  0  0  0  0  0  0  0  0  0
  -11.3881   14.8889  -39.9682 H   0  0  0  0  0  0  0  0  0  0  0  0
  -14.2329   15.4825  -40.6774 H   0  0  0  0  0  0  0  0  0  0  0  0
  1  4  1  0  0  0  0
  1  5  1  0  0  0  0
  2  4  1  0  0  0  0
  2  5  1  0  0  0  0
  3  4  1  0  0  0  0
  3  5  1  0  0  0  0
  4  6  1  6  0  0  0
  5  7  1  6  0  0  0
  6  8  1  0  0  0  0
  6  9  1  0  0  0  0
  6 10  1  0  0  0  0
  1 11  1  0  0  0  0
  1 12  1  0  0  0  0
  2 13  1  0  0  0  0
  2 14  1  0  0  0  0
  3 15  1  0  0  0  0
  3 16  1  0  0  0  0
  7 17  1  0  0  0  0
M  END
> <id>
EN300-28221012

> <smiles>
O[C@]1(C[C@]2(C1)C(F)(F)F)C2

> <IUPAC Name>
3-(trifluoromethyl)bicyclo[1.1.1]pentan-1-ol

> <CAS>
585532-19-0

> <URL>
https://www.enaminestore.com/catalog/EN300-28221012

> <ROCS_ShapeQuery>
_x1247relevant_x1083L0AP1_x1305L0BP1_

> <ROCS_TanimotoCombo>
1.076 

> <ROCS_ShapeTanimoto>
0.461 

> <ROCS_ColorTanimoto>
0.615 

> <ROCS_RefTversky>
0.387 

> <ROCS_RefColorTversky>
0.756 

> <ROCS_RefTverskyCombo>
1.143 

> <ROCS_FitTversky>
1.719 

> <ROCS_FitColorTversky>
0.767 

> <ROCS_FitTverskyCombo>
2.486 

> <ROCS_ColorScore>
-7.305

> <ROCS_Overlap>
949.602

> <ROCS_Rank>
42                  

$$$$
untitled-dbase-2414_72
  -OEChem-06232314403D

 37 38  0     1  0  0  0  0  0999 V2000
  -10.1481   14.0643  -37.5807 C   0  0  0  0  0  0  0  0  0  0  0  0
  -13.6257   15.0383  -37.4692 C   0  0  0  0  0  0  0  0  0  0  0  0
  -12.8341   14.3852  -39.6208 C   0  0  0  0  0  0  0  0  0  0  0  0
  -11.5621   16.1732  -37.6294 C   0  0  0  0  0  0  0  0  0  0  0  0
  -13.0130   16.2902  -38.1262 C   0  0  1  0  0  0  0  0  0  0  0  0
  -12.6115   14.0996  -38.1212 C   0  0  1  0  0  0  0  0  0  0  0  0
  -13.1286   15.9088  -39.6304 C   0  0  1  0  0  0  0  0  0  0  0  0
   -9.1173   13.5029  -35.3437 C   0  0  0  0  0  0  0  0  0  0  0  0
   -6.9934   14.4040  -36.3367 C   0  0  0  0  0  0  0  0  0  0  0  0
   -8.5922   15.9591  -35.1818 C   0  0  0  0  0  0  0  0  0  0  0  0
  -12.2257   16.6870  -40.5784 C   0  0  0  0  0  0  0  0  0  0  0  0
   -8.4612   14.6977  -36.0342 C   0  0  0  0  0  0  0  0  0  0  0  0
  -11.3432   14.7327  -37.7432 N   0  0  0  0  0  0  0  0  0  0  0  0
  -10.0160   12.8475  -37.6872 O   0  0  0  0  0  0  0  0  0  0  0  0
  -14.4793   16.1089  -40.0551 O   0  0  0  0  0  0  0  0  0  0  0  0
   -9.1229   14.9214  -37.2842 O   0  0  0  0  0  0  0  0  0  0  0  0
  -12.3826   16.2443  -41.8367 F   0  0  0  0  0  0  0  0  0  0  0  0
  -12.5298   17.9946  -40.5402 F   0  0  0  0  0  0  0  0  0  0  0  0
  -10.9391   16.5331  -40.2247 F   0  0  0  0  0  0  0  0  0  0  0  0
  -13.5599   15.0495  -36.3756 H   0  0  0  0  0  0  0  0  0  0  0  0
  -14.6601   14.8417  -37.7687 H   0  0  0  0  0  0  0  0  0  0  0  0
  -11.9505   14.1132  -40.2087 H   0  0  0  0  0  0  0  0  0  0  0  0
  -13.6886   13.8099  -39.9956 H   0  0  0  0  0  0  0  0  0  0  0  0
  -10.8254   16.7316  -38.2112 H   0  0  0  0  0  0  0  0  0  0  0  0
  -11.4659   16.4489  -36.5735 H   0  0  0  0  0  0  0  0  0  0  0  0
  -13.5149   17.2209  -37.8527 H   0  0  0  0  0  0  0  0  0  0  0  0
  -12.6617   13.0444  -37.8464 H   0  0  0  0  0  0  0  0  0  0  0  0
  -10.1710   13.7098  -35.1248 H   0  0  0  0  0  0  0  0  0  0  0  0
   -9.0610   12.5998  -35.9601 H   0  0  0  0  0  0  0  0  0  0  0  0
   -8.6366   13.2953  -34.3808 H   0  0  0  0  0  0  0  0  0  0  0  0
   -6.5186   15.2586  -36.8322 H   0  0  0  0  0  0  0  0  0  0  0  0
   -6.8988   13.5565  -37.0252 H   0  0  0  0  0  0  0  0  0  0  0  0
   -6.4310   14.1752  -35.4257 H   0  0  0  0  0  0  0  0  0  0  0  0
   -8.1216   16.8162  -35.6769 H   0  0  0  0  0  0  0  0  0  0  0  0
   -9.6405   16.2062  -34.9855 H   0  0  0  0  0  0  0  0  0  0  0  0
   -8.0778   15.8358  -34.2218 H   0  0  0  0  0  0  0  0  0  0  0  0
  -14.6267   17.0660  -40.0490 H   0  0  0  0  0  0  0  0  0  0  0  0
  1 13  1  0  0  0  0
  1 14  2  0  0  0  0
  1 16  1  0  0  0  0
  2  5  1  0  0  0  0
  2  6  1  0  0  0  0
  3  6  1  0  0  0  0
  3  7  1  0  0  0  0
  4  5  1  0  0  0  0
  4 13  1  0  0  0  0
  5  7  1  0  0  0  0
  6 13  1  0  0  0  0
  7 11  1  0  0  0  0
  7 15  1  0  0  0  0
  8 12  1  0  0  0  0
  9 12  1  0  0  0  0
 10 12  1  0  0  0  0
 11 17  1  0  0  0  0
 11 18  1  0  0  0  0
 11 19  1  0  0  0  0
 12 16  1  0  0  0  0
  2 20  1  0  0  0  0
  2 21  1  0  0  0  0
  3 22  1  0  0  0  0
  3 23  1  0  0  0  0
  4 24  1  0  0  0  0
  4 25  1  0  0  0  0
  5 26  1  0  0  0  0
  6 27  1  0  0  0  0
  8 28  1  0  0  0  0
  8 29  1  0  0  0  0
  8 30  1  0  0  0  0
  9 31  1  0  0  0  0
  9 32  1  0  0  0  0
  9 33  1  0  0  0  0
 10 34  1  0  0  0  0
 10 35  1  0  0  0  0
 10 36  1  0  0  0  0
 15 37  1  0  0  0  0
M  END
> <id>
EN300-89639

> <smiles>
CC(C)(C)OC(=O)N1CC2CC1CC2(O)C(F)(F)F

> <MDLNUMBER>
MFCD18791490

> <IUPAC Name>
tert-butyl 5-hydroxy-5-(trifluoromethyl)-2-azabicyclo[2.2.1]heptane-2-carboxylate

> <CAS>
1251923-83-7

> <URL>
https://www.enaminestore.com/catalog/EN300-89639

> <ROCS_ShapeQuery>
_x1247relevant_x1083L0AP1_x1305L0BP1_

> <ROCS_TanimotoCombo>
1.076 

> <ROCS_ShapeTanimoto>
0.554 

> <ROCS_ColorTanimoto>
0.522 

> <ROCS_RefTversky>
0.494 

> <ROCS_RefColorTversky>
0.708 

> <ROCS_RefTverskyCombo>
1.202 

> <ROCS_FitTversky>
1.280 

> <ROCS_FitColorTversky>
0.666 

> <ROCS_FitTverskyCombo>
1.946 

> <ROCS_ColorScore>
-6.866

> <ROCS_Overlap>
1223.776

> <ROCS_Rank>
43                  

$$$$
untitled-dbase-10165_1
  -OEChem-06232314403D

 27 29  0     1  0  0  0  0  0999 V2000
   -9.6331   15.1520  -35.8819 C   0  0  0  0  0  0  0  0  0  0  0  0
   -9.9732   13.6770  -36.1035 C   0  0  0  0  0  0  0  0  0  0  0  0
   -9.8410   15.8398  -37.2281 C   0  0  0  0  0  0  0  0  0  0  0  0
  -10.5335   13.5622  -37.5215 C   0  0  0  0  0  0  0  0  0  0  0  0
  -13.9206   15.6628  -39.2714 C   0  0  0  0  0  0  0  0  0  0  0  0
  -14.1397   14.3240  -38.5729 C   0  0  0  0  0  0  0  0  0  0  0  0
  -12.5159   16.0972  -38.8760 C   0  0  1  0  0  0  0  0  0  0  0  0
  -12.3779   15.4359  -37.4906 C   0  0  2  0  0  0  0  0  0  0  0  0
  -11.3121   15.2549  -39.3715 C   0  0  2  0  0  0  0  0  0  0  0  0
  -10.9332   14.9903  -37.8817 C   0  0  0  0  0  0  0  0  0  0  0  0
  -13.4042   14.4225  -37.3478 O   0  0  0  0  0  0  0  0  0  0  0  0
  -10.1384   16.0437  -40.4818 Cl  0  0  0  0  0  0  0  0  0  0  0  0
  -10.2536   15.6047  -35.0845 H   0  0  0  0  0  0  0  0  0  0  0  0
   -8.5774   15.2494  -35.5580 H   0  0  0  0  0  0  0  0  0  0  0  0
   -9.0962   13.0204  -35.9507 H   0  0  0  0  0  0  0  0  0  0  0  0
  -10.7375   13.3566  -35.3682 H   0  0  0  0  0  0  0  0  0  0  0  0
  -10.1976   16.8591  -37.0477 H   0  0  0  0  0  0  0  0  0  0  0  0
   -8.9175   15.9058  -37.8039 H   0  0  0  0  0  0  0  0  0  0  0  0
   -9.7441   13.1964  -38.1866 H   0  0  0  0  0  0  0  0  0  0  0  0
  -11.3629   12.8522  -37.5562 H   0  0  0  0  0  0  0  0  0  0  0  0
  -14.0557   15.5909  -40.3542 H   0  0  0  0  0  0  0  0  0  0  0  0
  -14.6440   16.3934  -38.8897 H   0  0  0  0  0  0  0  0  0  0  0  0
  -15.1953   14.1358  -38.3623 H   0  0  0  0  0  0  0  0  0  0  0  0
  -13.7343   13.4897  -39.1527 H   0  0  0  0  0  0  0  0  0  0  0  0
  -12.3487   17.1826  -38.8803 H   0  0  0  0  0  0  0  0  0  0  0  0
  -12.4378   16.1367  -36.6525 H   0  0  0  0  0  0  0  0  0  0  0  0
  -11.6122   14.3534  -39.9091 H   0  0  0  0  0  0  0  0  0  0  0  0
  1  2  1  0  0  0  0
  1  3  1  0  0  0  0
  2  4  1  0  0  0  0
  3 10  1  0  0  0  0
  4 10  1  0  0  0  0
  5  6  1  0  0  0  0
  5  7  1  0  0  0  0
  6 11  1  0  0  0  0
  7  8  1  0  0  0  0
  7  9  1  0  0  0  0
  8 10  1  0  0  0  0
  8 11  1  0  0  0  0
  9 10  1  0  0  0  0
  9 12  1  0  0  0  0
  1 13  1  0  0  0  0
  1 14  1  0  0  0  0
  2 15  1  0  0  0  0
  2 16  1  0  0  0  0
  3 17  1  0  0  0  0
  3 18  1  0  0  0  0
  4 19  1  0  0  0  0
  4 20  1  0  0  0  0
  5 21  1  0  0  0  0
  5 22  1  0  0  0  0
  6 23  1  0  0  0  0
  6 24  1  0  0  0  0
  7 25  1  0  0  0  0
  8 26  1  0  0  0  0
  9 27  1  0  0  0  0
M  END
> <id>
EN300-359570

> <smiles>
ClC1C2CCOC2C31CCCC3

> <MDLNUMBER>
MFCD30538155

> <IUPAC Name>
7-chloro-4-oxaspiro[bicyclo[3.2.0]heptane-6,1'-cyclopentane]

> <CAS>
2137746-48-4

> <URL>
https://www.enaminestore.com/catalog/EN300-359570

> <ROCS_ShapeQuery>
_x1247relevant_x1083L0AP1_x1305L0BP1_

> <ROCS_TanimotoCombo>
1.076 

> <ROCS_ShapeTanimoto>
0.486 

> <ROCS_ColorTanimoto>
0.589 

> <ROCS_RefTversky>
0.410 

> <ROCS_RefColorTversky>
0.664 

> <ROCS_RefTverskyCombo>
1.074 

> <ROCS_FitTversky>
1.623 

> <ROCS_FitColorTversky>
0.840 

> <ROCS_FitTverskyCombo>
2.463 

> <ROCS_ColorScore>
-6.343

> <ROCS_Overlap>
1008.119

> <ROCS_Rank>
44                  

$$$$
untitled-dbase-30817_21
  -OEChem-06232314403D

 40 41  0     1  0  0  0  0  0999 V2000
   -9.8584   14.6414  -36.8866 C   0  0  0  0  0  0  0  0  0  0  0  0
  -13.9220   15.3012  -37.3323 C   0  0  0  0  0  0  0  0  0  0  0  0
  -13.7273   14.0303  -38.1727 C   0  0  0  0  0  0  0  0  0  0  0  0
  -11.6270   16.3361  -37.4603 C   0  0  0  0  0  0  0  0  0  0  0  0
  -11.3091   14.2455  -38.8477 C   0  0  0  0  0  0  0  0  0  0  0  0
  -13.0563   16.3756  -38.0252 C   0  0  1  0  0  0  0  0  0  0  0  0
  -12.7624   14.4438  -39.3053 C   0  0  2  0  0  0  0  0  0  0  0  0
  -13.0895   15.9326  -39.4961 C   0  0  0  0  0  0  0  0  0  0  0  0
  -10.5856   12.7115  -35.2659 C   0  0  0  0  0  0  0  0  0  0  0  0
   -9.6160   11.0507  -36.8817 C   0  0  0  0  0  0  0  0  0  0  0  0
   -8.0900   12.4440  -35.4541 C   0  0  0  0  0  0  0  0  0  0  0  0
  -12.1753   16.6973  -40.4471 C   0  0  0  0  0  0  0  0  0  0  0  0
   -9.4200   12.4058  -36.2055 C   0  0  0  0  0  0  0  0  0  0  0  0
  -10.9553   15.0397  -37.6625 N   0  0  0  0  0  0  0  0  0  0  0  0
   -9.3656   15.3192  -35.9866 O   0  0  0  0  0  0  0  0  0  0  0  0
  -14.4202   16.0543  -40.0111 O   0  0  0  0  0  0  0  0  0  0  0  0
   -9.3910   13.4014  -37.2346 O   0  0  0  0  0  0  0  0  0  0  0  0
  -10.8961   16.5722  -40.0592 F   0  0  0  0  0  0  0  0  0  0  0  0
  -12.2984   16.2154  -41.6940 F   0  0  0  0  0  0  0  0  0  0  0  0
  -12.5000   17.9999  -40.4528 F   0  0  0  0  0  0  0  0  0  0  0  0
  -14.9787   15.5935  -37.3481 H   0  0  0  0  0  0  0  0  0  0  0  0
  -13.6440   15.1445  -36.2850 H   0  0  0  0  0  0  0  0  0  0  0  0
  -13.3439   13.1984  -37.5727 H   0  0  0  0  0  0  0  0  0  0  0  0
  -14.6913   13.7150  -38.5894 H   0  0  0  0  0  0  0  0  0  0  0  0
  -10.9988   17.1020  -37.9289 H   0  0  0  0  0  0  0  0  0  0  0  0
  -11.6510   16.5647  -36.3886 H   0  0  0  0  0  0  0  0  0  0  0  0
  -11.1247   13.1864  -38.6316 H   0  0  0  0  0  0  0  0  0  0  0  0
  -10.6090   14.5242  -39.6437 H   0  0  0  0  0  0  0  0  0  0  0  0
  -13.4977   17.3671  -37.8776 H   0  0  0  0  0  0  0  0  0  0  0  0
  -12.9628   13.8524  -40.2051 H   0  0  0  0  0  0  0  0  0  0  0  0
  -10.4486   13.6835  -34.7786 H   0  0  0  0  0  0  0  0  0  0  0  0
  -11.5417   12.7217  -35.7993 H   0  0  0  0  0  0  0  0  0  0  0  0
  -10.6454   11.9685  -34.4624 H   0  0  0  0  0  0  0  0  0  0  0  0
   -8.7820   10.8272  -37.5567 H   0  0  0  0  0  0  0  0  0  0  0  0
  -10.5215   11.0499  -37.4991 H   0  0  0  0  0  0  0  0  0  0  0  0
   -9.6953   10.2412  -36.1489 H   0  0  0  0  0  0  0  0  0  0  0  0
   -7.2538   12.2248  -36.1278 H   0  0  0  0  0  0  0  0  0  0  0  0
   -7.9152   13.4216  -34.9930 H   0  0  0  0  0  0  0  0  0  0  0  0
   -8.0637   11.6792  -34.6694 H   0  0  0  0  0  0  0  0  0  0  0  0
  -14.3796   15.7637  -40.9333 H   0  0  0  0  0  0  0  0  0  0  0  0
  1 14  1  0  0  0  0
  1 15  2  0  0  0  0
  1 17  1  0  0  0  0
  2  3  1  0  0  0  0
  2  6  1  0  0  0  0
  3  7  1  0  0  0  0
  4  6  1  0  0  0  0
  4 14  1  0  0  0  0
  5  7  1  0  0  0  0
  5 14  1  0  0  0  0
  6  8  1  0  0  0  0
  7  8  1  0  0  0  0
  8 12  1  0  0  0  0
  8 16  1  0  0  0  0
  9 13  1  0  0  0  0
 10 13  1  0  0  0  0
 11 13  1  0  0  0  0
 12 18  1  0  0  0  0
 12 19  1  0  0  0  0
 12 20  1  0  0  0  0
 13 17  1  0  0  0  0
  2 21  1  0  0  0  0
  2 22  1  0  0  0  0
  3 23  1  0  0  0  0
  3 24  1  0  0  0  0
  4 25  1  0  0  0  0
  4 26  1  0  0  0  0
  5 27  1  0  0  0  0
  5 28  1  0  0  0  0
  6 29  1  0  0  0  0
  7 30  1  0  0  0  0
  9 31  1  0  0  0  0
  9 32  1  0  0  0  0
  9 33  1  0  0  0  0
 10 34  1  0  0  0  0
 10 35  1  0  0  0  0
 10 36  1  0  0  0  0
 11 37  1  0  0  0  0
 11 38  1  0  0  0  0
 11 39  1  0  0  0  0
 16 40  1  0  0  0  0
M  END
> <id>
EN300-26665937

> <smiles>
CC(C)(C)OC(=O)N1CC2CCC(C1)C2(O)C(F)(F)F

> <IUPAC Name>
tert-butyl 8-hydroxy-8-(trifluoromethyl)-3-azabicyclo[3.2.1]octane-3-carboxylate

> <CAS>
2413886-80-1

> <URL>
https://www.enaminestore.com/catalog/EN300-26665937

> <ROCS_ShapeQuery>
_x1247relevant_x1083L0AP1_x1305L0BP1_

> <ROCS_TanimotoCombo>
1.075 

> <ROCS_ShapeTanimoto>
0.559 

> <ROCS_ColorTanimoto>
0.517 

> <ROCS_RefTversky>
0.502 

> <ROCS_RefColorTversky>
0.686 

> <ROCS_RefTverskyCombo>
1.188 

> <ROCS_FitTversky>
1.253 

> <ROCS_FitColorTversky>
0.677 

> <ROCS_FitTverskyCombo>
1.930 

> <ROCS_ColorScore>
-6.631

> <ROCS_Overlap>
1245.007

> <ROCS_Rank>
45                  

$$$$
untitled-dbase-27509_0
  -OEChem-06232314403D

 31 34  0     0  0  0  0  0  0999 V2000
   -9.3192   14.4875  -36.5833 C   0  0  0  0  0  0  0  0  0  0  0  0
  -10.7465   14.4490  -36.0183 C   0  0  0  0  0  0  0  0  0  0  0  0
  -14.1386   15.6390  -39.2588 C   0  0  0  0  0  0  0  0  0  0  0  0
  -13.4400   13.8268  -37.6692 C   0  0  0  0  0  0  0  0  0  0  0  0
  -13.2377   16.2401  -36.9948 C   0  0  0  0  0  0  0  0  0  0  0  0
  -12.0746   14.2904  -39.7261 C   0  0  0  0  0  0  0  0  0  0  0  0
  -11.8729   16.6978  -39.0533 C   0  0  0  0  0  0  0  0  0  0  0  0
  -14.0862   15.2214  -37.7802 C   0  0  0  0  0  0  0  0  0  0  0  0
  -12.7179   15.6836  -39.8445 C   0  0  0  0  0  0  0  0  0  0  0  0
  -12.0123   13.8551  -38.2496 C   0  0  0  0  0  0  0  0  0  0  0  0
  -11.8079   16.2947  -37.5679 C   0  0  0  0  0  0  0  0  0  0  0  0
  -11.1990   14.8864  -37.4477 C   0  0  0  0  0  0  0  0  0  0  0  0
   -9.7782   14.8669  -37.8037 N   0  0  0  0  0  0  0  0  0  0  0  0
   -8.2059   14.2767  -36.1603 O   0  0  0  0  0  0  0  0  0  0  0  0
  -11.0579   13.4520  -35.6950 H   0  0  0  0  0  0  0  0  0  0  0  0
  -10.9140   15.1710  -35.2145 H   0  0  0  0  0  0  0  0  0  0  0  0
  -14.7557   14.9315  -39.8263 H   0  0  0  0  0  0  0  0  0  0  0  0
  -14.6139   16.6231  -39.3535 H   0  0  0  0  0  0  0  0  0  0  0  0
  -13.4184   13.5133  -36.6188 H   0  0  0  0  0  0  0  0  0  0  0  0
  -14.0472   13.0903  -38.2095 H   0  0  0  0  0  0  0  0  0  0  0  0
  -13.7000   17.2332  -37.0517 H   0  0  0  0  0  0  0  0  0  0  0  0
  -13.2133   15.9600  -35.9350 H   0  0  0  0  0  0  0  0  0  0  0  0
  -12.6574   13.5617  -40.3030 H   0  0  0  0  0  0  0  0  0  0  0  0
  -11.0694   14.3081  -40.1636 H   0  0  0  0  0  0  0  0  0  0  0  0
  -10.8645   16.7529  -39.4804 H   0  0  0  0  0  0  0  0  0  0  0  0
  -12.3106   17.6994  -39.1468 H   0  0  0  0  0  0  0  0  0  0  0  0
  -15.1012   15.1913  -37.3681 H   0  0  0  0  0  0  0  0  0  0  0  0
  -12.7618   15.9816  -40.8980 H   0  0  0  0  0  0  0  0  0  0  0  0
  -11.5661   12.8558  -38.1790 H   0  0  0  0  0  0  0  0  0  0  0  0
  -11.2161   17.0319  -37.0119 H   0  0  0  0  0  0  0  0  0  0  0  0
   -9.2713   15.0629  -38.6561 H   0  0  0  0  0  0  0  0  0  0  0  0
  1  2  1  0  0  0  0
  1 13  1  0  0  0  0
  1 14  2  0  0  0  0
  2 12  1  0  0  0  0
  3  8  1  0  0  0  0
  3  9  1  0  0  0  0
  4  8  1  0  0  0  0
  4 10  1  0  0  0  0
  5  8  1  0  0  0  0
  5 11  1  0  0  0  0
  6  9  1  0  0  0  0
  6 10  1  0  0  0  0
  7  9  1  0  0  0  0
  7 11  1  0  0  0  0
 10 12  1  0  0  0  0
 11 12  1  0  0  0  0
 12 13  1  0  0  0  0
  2 15  1  0  0  0  0
  2 16  1  0  0  0  0
  3 17  1  0  0  0  0
  3 18  1  0  0  0  0
  4 19  1  0  0  0  0
  4 20  1  0  0  0  0
  5 21  1  0  0  0  0
  5 22  1  0  0  0  0
  6 23  1  0  0  0  0
  6 24  1  0  0  0  0
  7 25  1  0  0  0  0
  7 26  1  0  0  0  0
  8 27  1  0  0  0  0
  9 28  1  0  0  0  0
 10 29  1  0  0  0  0
 11 30  1  0  0  0  0
 13 31  1  0  0  0  0
M  END
> <id>
EN300-7465223

> <smiles>
O=C1CC2(N1)C3CC4CC(C3)CC2C4

> <IUPAC Name>
spiro[adamantane-2,2'-azetidine]-4'-one

> <CAS>
59592-02-8

> <Purity>
95

> <URL>
https://www.enaminestore.com/catalog/EN300-7465223

> <MP>
153-156

> <ROCS_ShapeQuery>
_x1247relevant_x1083L0AP1_x1305L0BP1_

> <ROCS_TanimotoCombo>
1.075 

> <ROCS_ShapeTanimoto>
0.539 

> <ROCS_ColorTanimoto>
0.536 

> <ROCS_RefTversky>
0.456 

> <ROCS_RefColorTversky>
0.692 

> <ROCS_RefTverskyCombo>
1.148 

> <ROCS_FitTversky>
1.513 

> <ROCS_FitColorTversky>
0.704 

> <ROCS_FitTverskyCombo>
2.217 

> <ROCS_ColorScore>
-6.680

> <ROCS_Overlap>
1124.178

> <ROCS_Rank>
46                  

$$$$
untitled-dbase-32801_0
  -OEChem-06232314403D

 23 25  0     1  0  0  0  0  0999 V2000
   -9.8044   15.8302  -37.7230 C   0  0  0  0  0  0  0  0  0  0  0  0
   -8.9765   15.0511  -36.9264 C   0  0  0  0  0  0  0  0  0  0  0  0
  -11.1555   15.5020  -37.8249 C   0  0  0  0  0  0  0  0  0  0  0  0
  -11.6431   14.3692  -37.1322 C   0  0  0  0  0  0  0  0  0  0  0  0
   -9.5359   13.9659  -36.2705 C   0  0  0  0  0  0  0  0  0  0  0  0
  -13.4958   14.6089  -39.6224 C   0  0  0  0  0  0  0  0  0  0  0  0
  -12.2769   15.5101  -39.9223 C   0  0  0  0  0  0  0  0  0  0  0  0
  -13.3584   16.3359  -37.9973 C   0  0  0  0  0  0  0  0  0  0  0  0
  -13.8277   14.8863  -38.1435 C   0  0  2  0  0  0  0  0  0  0  0  0
  -10.8389   13.6072  -36.3549 N   0  0  0  0  0  0  0  0  0  0  0  0
  -12.9980   14.0477  -37.2792 N   0  0  0  0  0  0  0  0  0  0  0  0
  -12.0427   16.2492  -38.6592 N   0  0  1  0  0  0  0  0  0  0  0  0
   -8.5787   12.9527  -35.2675 Cl  0  0  0  0  0  0  0  0  0  0  0  0
   -9.3976   16.6843  -38.2564 H   0  0  0  0  0  0  0  0  0  0  0  0
   -7.9235   15.2941  -36.8306 H   0  0  0  0  0  0  0  0  0  0  0  0
  -14.3383   14.9078  -40.2573 H   0  0  0  0  0  0  0  0  0  0  0  0
  -13.2882   13.5510  -39.8145 H   0  0  0  0  0  0  0  0  0  0  0  0
  -11.4068   14.9326  -40.2573 H   0  0  0  0  0  0  0  0  0  0  0  0
  -12.5267   16.2235  -40.7161 H   0  0  0  0  0  0  0  0  0  0  0  0
  -14.0091   17.0242  -38.5507 H   0  0  0  0  0  0  0  0  0  0  0  0
  -13.3034   16.6868  -36.9591 H   0  0  0  0  0  0  0  0  0  0  0  0
  -14.8878   14.7443  -37.9174 H   0  0  0  0  0  0  0  0  0  0  0  0
  -13.3735   13.2273  -36.8221 H   0  0  0  0  0  0  0  0  0  0  0  0
  1  2  1  0  0  0  0
  1  3  2  0  0  0  0
  2  5  2  0  0  0  0
  3  4  1  0  0  0  0
  3 12  1  0  0  0  0
  4 10  2  0  0  0  0
  4 11  1  0  0  0  0
  5 10  1  0  0  0  0
  5 13  1  0  0  0  0
  6  7  1  0  0  0  0
  6  9  1  0  0  0  0
  7 12  1  0  0  0  0
  8  9  1  0  0  0  0
  8 12  1  0  0  0  0
  9 11  1  0  0  0  0
  1 14  1  0  0  0  0
  2 15  1  0  0  0  0
  6 16  1  0  0  0  0
  6 17  1  0  0  0  0
  7 18  1  0  0  0  0
  7 19  1  0  0  0  0
  8 20  1  0  0  0  0
  8 21  1  0  0  0  0
  9 22  1  0  0  0  0
 11 23  1  0  0  0  0
M  END
> <id>
EN300-297810

> <smiles>
ClC=1C=CC=2N3CCC(C3)NC2N1

> <MDLNUMBER>
MFCD28049702

> <IUPAC Name>
5-chloro-1,6,8-triazatricyclo[7.2.1.0,2,7]dodeca-2,4,6-triene

> <CAS>
1823422-95-2

> <Purity>
95

> <URL>
https://www.enaminestore.com/catalog/EN300-297810

> <ROCS_ShapeQuery>
_x1247relevant_x1083L0AP1_x1305L0BP1_

> <ROCS_TanimotoCombo>
1.075 

> <ROCS_ShapeTanimoto>
0.528 

> <ROCS_ColorTanimoto>
0.547 

> <ROCS_RefTversky>
0.444 

> <ROCS_RefColorTversky>
0.682 

> <ROCS_RefTverskyCombo>
1.125 

> <ROCS_FitTversky>
1.563 

> <ROCS_FitColorTversky>
0.734 

> <ROCS_FitTverskyCombo>
2.297 

> <ROCS_ColorScore>
-6.561

> <ROCS_Overlap>
1093.187

> <ROCS_Rank>
47                  

$$$$
untitled-dbase-48591_0
  -OEChem-06232314403D

 23 25  0     1  0  0  0  0  0999 V2000
   -8.9864   15.0938  -36.8957 C   0  0  0  0  0  0  0  0  0  0  0  0
   -9.8341   15.8919  -37.6517 C   0  0  0  0  0  0  0  0  0  0  0  0
   -9.5120   13.9488  -36.3184 C   0  0  0  0  0  0  0  0  0  0  0  0
  -11.1707   15.5218  -37.7926 C   0  0  0  0  0  0  0  0  0  0  0  0
  -11.6232   14.3294  -37.1805 C   0  0  0  0  0  0  0  0  0  0  0  0
  -13.4561   14.6615  -39.6748 C   0  0  0  0  0  0  0  0  0  0  0  0
  -12.2685   15.6242  -39.9000 C   0  0  0  0  0  0  0  0  0  0  0  0
  -13.4013   16.2838  -37.9405 C   0  0  0  0  0  0  0  0  0  0  0  0
  -13.8143   14.8304  -38.1858 C   0  0  2  0  0  0  0  0  0  0  0  0
  -10.7997   13.5488  -36.4430 N   0  0  0  0  0  0  0  0  0  0  0  0
  -12.9634   13.9686  -37.3660 N   0  0  0  0  0  0  0  0  0  0  0  0
  -12.0760   16.2882  -38.5891 N   0  0  1  0  0  0  0  0  0  0  0  0
   -7.9435   15.3578  -36.7620 H   0  0  0  0  0  0  0  0  0  0  0  0
   -9.4539   16.7930  -38.1239 H   0  0  0  0  0  0  0  0  0  0  0  0
   -8.8858   13.2951  -35.7194 H   0  0  0  0  0  0  0  0  0  0  0  0
  -14.3021   14.9699  -40.3003 H   0  0  0  0  0  0  0  0  0  0  0  0
  -13.2069   13.6265  -39.9313 H   0  0  0  0  0  0  0  0  0  0  0  0
  -11.3735   15.1022  -40.2595 H   0  0  0  0  0  0  0  0  0  0  0  0
  -12.5360   16.3777  -40.6498 H   0  0  0  0  0  0  0  0  0  0  0  0
  -14.0706   16.9823  -38.4577 H   0  0  0  0  0  0  0  0  0  0  0  0
  -13.3708   16.5686  -36.8814 H   0  0  0  0  0  0  0  0  0  0  0  0
  -14.8708   14.6354  -37.9836 H   0  0  0  0  0  0  0  0  0  0  0  0
  -13.3123   13.1059  -36.9696 H   0  0  0  0  0  0  0  0  0  0  0  0
  1  2  1  0  0  0  0
  1  3  2  0  0  0  0
  2  4  2  0  0  0  0
  3 10  1  0  0  0  0
  4  5  1  0  0  0  0
  4 12  1  0  0  0  0
  5 10  2  0  0  0  0
  5 11  1  0  0  0  0
  6  7  1  0  0  0  0
  6  9  1  0  0  0  0
  7 12  1  0  0  0  0
  8  9  1  0  0  0  0
  8 12  1  0  0  0  0
  9 11  1  0  0  0  0
  1 13  1  0  0  0  0
  2 14  1  0  0  0  0
  3 15  1  0  0  0  0
  6 16  1  0  0  0  0
  6 17  1  0  0  0  0
  7 18  1  0  0  0  0
  7 19  1  0  0  0  0
  8 20  1  0  0  0  0
  8 21  1  0  0  0  0
  9 22  1  0  0  0  0
 11 23  1  0  0  0  0
M  END
> <id>
EN300-396915

> <smiles>
C1CN2CC1NC=3N=CC=CC23

> <MDLNUMBER>
MFCD30751547

> <IUPAC Name>
1,6,8-triazatricyclo[7.2.1.0,2,7]dodeca-2,4,6-triene

> <CAS>
2126160-72-1

> <URL>
https://www.enaminestore.com/catalog/EN300-396915

> <ROCS_ShapeQuery>
_x1247relevant_x1083L0AP1_x1305L0BP1_

> <ROCS_TanimotoCombo>
1.074 

> <ROCS_ShapeTanimoto>
0.528 

> <ROCS_ColorTanimoto>
0.546 

> <ROCS_RefTversky>
0.439 

> <ROCS_RefColorTversky>
0.681 

> <ROCS_RefTverskyCombo>
1.120 

> <ROCS_FitTversky>
1.624 

> <ROCS_FitColorTversky>
0.734 

> <ROCS_FitTverskyCombo>
2.358 

> <ROCS_ColorScore>
-6.559

> <ROCS_Overlap>
1079.691

> <ROCS_Rank>
48                  

$$$$
untitled-dbase-11456_0
  -OEChem-06232314403D

 23 25  0     1  0  0  0  0  0999 V2000
   -8.9864   15.0938  -36.8957 C   0  0  0  0  0  0  0  0  0  0  0  0
   -9.8341   15.8919  -37.6517 C   0  0  0  0  0  0  0  0  0  0  0  0
   -9.5120   13.9488  -36.3184 C   0  0  0  0  0  0  0  0  0  0  0  0
  -11.1707   15.5218  -37.7926 C   0  0  0  0  0  0  0  0  0  0  0  0
  -11.6232   14.3294  -37.1805 C   0  0  0  0  0  0  0  0  0  0  0  0
  -13.4561   14.6615  -39.6748 C   0  0  0  0  0  0  0  0  0  0  0  0
  -12.2685   15.6242  -39.9000 C   0  0  0  0  0  0  0  0  0  0  0  0
  -13.4013   16.2838  -37.9405 C   0  0  0  0  0  0  0  0  0  0  0  0
  -13.8143   14.8304  -38.1858 C   0  0  2  0  0  0  0  0  0  0  0  0
  -10.7997   13.5488  -36.4430 N   0  0  0  0  0  0  0  0  0  0  0  0
  -12.9634   13.9686  -37.3660 N   0  0  0  0  0  0  0  0  0  0  0  0
  -12.0760   16.2882  -38.5891 N   0  0  1  0  0  0  0  0  0  0  0  0
   -7.9435   15.3578  -36.7620 H   0  0  0  0  0  0  0  0  0  0  0  0
   -9.4539   16.7930  -38.1239 H   0  0  0  0  0  0  0  0  0  0  0  0
   -8.8858   13.2951  -35.7194 H   0  0  0  0  0  0  0  0  0  0  0  0
  -14.3021   14.9699  -40.3003 H   0  0  0  0  0  0  0  0  0  0  0  0
  -13.2069   13.6265  -39.9313 H   0  0  0  0  0  0  0  0  0  0  0  0
  -11.3735   15.1022  -40.2595 H   0  0  0  0  0  0  0  0  0  0  0  0
  -12.5360   16.3777  -40.6498 H   0  0  0  0  0  0  0  0  0  0  0  0
  -14.0706   16.9823  -38.4577 H   0  0  0  0  0  0  0  0  0  0  0  0
  -13.3708   16.5686  -36.8814 H   0  0  0  0  0  0  0  0  0  0  0  0
  -14.8708   14.6354  -37.9836 H   0  0  0  0  0  0  0  0  0  0  0  0
  -13.3123   13.1059  -36.9696 H   0  0  0  0  0  0  0  0  0  0  0  0
  1  2  1  0  0  0  0
  1  3  2  0  0  0  0
  2  4  2  0  0  0  0
  3 10  1  0  0  0  0
  4  5  1  0  0  0  0
  4 12  1  0  0  0  0
  5 10  2  0  0  0  0
  5 11  1  0  0  0  0
  6  7  1  0  0  0  0
  6  9  1  0  0  0  0
  7 12  1  0  0  0  0
  8  9  1  0  0  0  0
  8 12  1  0  0  0  0
  9 11  1  0  0  0  0
  1 13  1  0  0  0  0
  2 14  1  0  0  0  0
  3 15  1  0  0  0  0
  6 16  1  0  0  0  0
  6 17  1  0  0  0  0
  7 18  1  0  0  0  0
  7 19  1  0  0  0  0
  8 20  1  0  0  0  0
  8 21  1  0  0  0  0
  9 22  1  0  0  0  0
 11 23  1  0  0  0  0
M  END
> <id>
EN300-396914

> <smiles>
Cl.Cl.C1CN2CC1NC=3N=CC=CC23

> <MDLNUMBER>
MFCD30751546

> <IUPAC Name>
1,6,8-triazatricyclo[7.2.1.0,2,7]dodeca-2,4,6-triene dihydrochloride

> <CAS>
2126160-73-2

> <Purity>
95

> <URL>
https://www.enaminestore.com/catalog/EN300-396914

> <Saltdate>
Cl

> <ROCS_ShapeQuery>
_x1247relevant_x1083L0AP1_x1305L0BP1_

> <ROCS_TanimotoCombo>
1.074 

> <ROCS_ShapeTanimoto>
0.528 

> <ROCS_ColorTanimoto>
0.546 

> <ROCS_RefTversky>
0.439 

> <ROCS_RefColorTversky>
0.681 

> <ROCS_RefTverskyCombo>
1.120 

> <ROCS_FitTversky>
1.624 

> <ROCS_FitColorTversky>
0.734 

> <ROCS_FitTverskyCombo>
2.358 

> <ROCS_ColorScore>
-6.559

> <ROCS_Overlap>
1079.691

> <ROCS_Rank>
49                  

$$$$
untitled-dbase-53746_0
  -OEChem-06232314403D

 25 26  0     0  0  0  0  0  0999 V2000
  -11.6579   14.1195  -37.7357 C   0  0  0  0  0  0  0  0  0  0  0  0
  -11.5884   16.3028  -38.9635 C   0  0  0  0  0  0  0  0  0  0  0  0
  -13.1269   16.0140  -37.0065 C   0  0  0  0  0  0  0  0  0  0  0  0
  -12.7658   13.6263  -38.6787 C   0  0  0  0  0  0  0  0  0  0  0  0
  -12.6960   15.8059  -39.9050 C   0  0  0  0  0  0  0  0  0  0  0  0
  -14.2322   15.5185  -37.9514 C   0  0  0  0  0  0  0  0  0  0  0  0
  -11.7302   15.6552  -37.5658 C   0  0  0  0  0  0  0  0  0  0  0  0
  -13.6052   14.8162  -39.1636 C   0  0  0  0  0  0  0  0  0  0  0  0
  -10.6286   16.1481  -36.6268 C   0  0  0  0  0  0  0  0  0  0  0  0
  -15.0082   14.1883  -40.3590 Br  0  0  0  0  0  0  0  0  0  0  0  0
  -11.7576   13.6213  -36.7632 H   0  0  0  0  0  0  0  0  0  0  0  0
  -10.6800   13.8239  -38.1359 H   0  0  0  0  0  0  0  0  0  0  0  0
  -10.6079   16.0687  -39.3971 H   0  0  0  0  0  0  0  0  0  0  0  0
  -11.6391   17.3961  -38.8858 H   0  0  0  0  0  0  0  0  0  0  0  0
  -13.2193   17.0992  -36.8736 H   0  0  0  0  0  0  0  0  0  0  0  0
  -13.2684   15.5677  -36.0140 H   0  0  0  0  0  0  0  0  0  0  0  0
  -12.3147   13.0924  -39.5253 H   0  0  0  0  0  0  0  0  0  0  0  0
  -13.3914   12.8923  -38.1543 H   0  0  0  0  0  0  0  0  0  0  0  0
  -13.2706   16.6636  -40.2782 H   0  0  0  0  0  0  0  0  0  0  0  0
  -12.2419   15.3367  -40.7873 H   0  0  0  0  0  0  0  0  0  0  0  0
  -14.9015   14.8400  -37.4069 H   0  0  0  0  0  0  0  0  0  0  0  0
  -14.8511   16.3685  -38.2666 H   0  0  0  0  0  0  0  0  0  0  0  0
  -10.6944   17.2289  -36.5189 H   0  0  0  0  0  0  0  0  0  0  0  0
   -9.6542   15.8877  -37.0352 H   0  0  0  0  0  0  0  0  0  0  0  0
  -10.7435   15.6830  -35.6498 H   0  0  0  0  0  0  0  0  0  0  0  0
  1  4  1  0  0  0  0
  1  7  1  0  0  0  0
  2  5  1  0  0  0  0
  2  7  1  0  0  0  0
  3  6  1  0  0  0  0
  3  7  1  0  0  0  0
  4  8  1  0  0  0  0
  5  8  1  0  0  0  0
  6  8  1  0  0  0  0
  7  9  1  0  0  0  0
  8 10  1  0  0  0  0
  1 11  1  0  0  0  0
  1 12  1  0  0  0  0
  2 13  1  0  0  0  0
  2 14  1  0  0  0  0
  3 15  1  0  0  0  0
  3 16  1  0  0  0  0
  4 17  1  0  0  0  0
  4 18  1  0  0  0  0
  5 19  1  0  0  0  0
  5 20  1  0  0  0  0
  6 21  1  0  0  0  0
  6 22  1  0  0  0  0
  9 23  1  0  0  0  0
  9 24  1  0  0  0  0
  9 25  1  0  0  0  0
M  END
> <id>
EN300-2010654

> <smiles>
CC1(CCC2(Br)CC1)CC2

> <IUPAC Name>
1-bromo-4-methylbicyclo[2.2.2]octane

> <CAS>
697-40-5

> <Purity>
95

> <URL>
https://www.enaminestore.com/catalog/EN300-2010654

> <MP>
88-93

> <ROCS_ShapeQuery>
_x1247relevant_x1083L0AP1_x1305L0BP1_

> <ROCS_TanimotoCombo>
1.073 

> <ROCS_ShapeTanimoto>
0.424 

> <ROCS_ColorTanimoto>
0.649 

> <ROCS_RefTversky>
0.361 

> <ROCS_RefColorTversky>
0.688 

> <ROCS_RefTverskyCombo>
1.049 

> <ROCS_FitTversky>
1.698 

> <ROCS_FitColorTversky>
0.920 

> <ROCS_FitTverskyCombo>
2.618 

> <ROCS_ColorScore>
-6.555

> <ROCS_Overlap>
886.528

> <ROCS_Rank>
50                  

$$$$
untitled-dbase-12107_0
  -OEChem-06232314403D

 26 28  0     1  0  0  0  0  0999 V2000
  -10.8452   15.3777  -36.1666 C   0  0  0  0  0  0  0  0  0  0  0  0
   -9.4844   14.8012  -35.8667 C   0  0  0  0  0  0  0  0  0  0  0  0
   -9.2892   13.8278  -37.0206 C   0  0  0  0  0  0  0  0  0  0  0  0
  -13.3840   14.7782  -39.6579 C   0  0  0  0  0  0  0  0  0  0  0  0
  -12.2846   15.8382  -39.7569 C   0  0  0  0  0  0  0  0  0  0  0  0
  -10.0448   14.4620  -38.1821 C   0  0  0  0  0  0  0  0  0  0  0  0
  -12.4747   13.9581  -37.4566 C   0  0  0  0  0  0  0  0  0  0  0  0
  -13.6217   14.6996  -38.1496 C   0  0  1  0  0  0  0  0  0  0  0  0
  -12.0143   16.1539  -38.2868 C   0  0  2  0  0  0  0  0  0  0  0  0
  -11.3381   14.9889  -37.5563 C   0  0  1  0  0  0  0  0  0  0  0  0
  -11.4665   16.0786  -35.3771 O   0  0  0  0  0  0  0  0  0  0  0  0
  -13.3631   16.0650  -37.7529 O   0  0  0  0  0  0  0  0  0  0  0  0
   -8.7445   15.6061  -35.8938 H   0  0  0  0  0  0  0  0  0  0  0  0
   -9.4726   14.2934  -34.9001 H   0  0  0  0  0  0  0  0  0  0  0  0
   -8.2312   13.6712  -37.2503 H   0  0  0  0  0  0  0  0  0  0  0  0
   -9.7282   12.8538  -36.7723 H   0  0  0  0  0  0  0  0  0  0  0  0
  -14.2825   15.1343  -40.1740 H   0  0  0  0  0  0  0  0  0  0  0  0
  -13.0945   13.8177  -40.0943 H   0  0  0  0  0  0  0  0  0  0  0  0
  -11.4050   15.4981  -40.3090 H   0  0  0  0  0  0  0  0  0  0  0  0
  -12.6831   16.7230  -40.2671 H   0  0  0  0  0  0  0  0  0  0  0  0
   -9.4521   15.2886  -38.5944 H   0  0  0  0  0  0  0  0  0  0  0  0
  -10.2195   13.7400  -38.9861 H   0  0  0  0  0  0  0  0  0  0  0  0
  -12.7396   13.7569  -36.4121 H   0  0  0  0  0  0  0  0  0  0  0  0
  -12.2562   13.0029  -37.9442 H   0  0  0  0  0  0  0  0  0  0  0  0
  -14.6194   14.3604  -37.8630 H   0  0  0  0  0  0  0  0  0  0  0  0
  -11.5804   17.1401  -38.1028 H   0  0  0  0  0  0  0  0  0  0  0  0
  1  2  1  0  0  0  0
  1 10  1  0  0  0  0
  1 11  2  0  0  0  0
  2  3  1  0  0  0  0
  3  6  1  0  0  0  0
  4  5  1  0  0  0  0
  4  8  1  0  0  0  0
  5  9  1  0  0  0  0
  6 10  1  0  0  0  0
  7  8  1  0  0  0  0
  7 10  1  0  0  0  0
  8 12  1  0  0  0  0
  9 10  1  0  0  0  0
  9 12  1  0  0  0  0
  2 13  1  0  0  0  0
  2 14  1  0  0  0  0
  3 15  1  0  0  0  0
  3 16  1  0  0  0  0
  4 17  1  0  0  0  0
  4 18  1  0  0  0  0
  5 19  1  0  0  0  0
  5 20  1  0  0  0  0
  6 21  1  0  0  0  0
  6 22  1  0  0  0  0
  7 23  1  0  0  0  0
  7 24  1  0  0  0  0
  8 25  1  0  0  0  0
  9 26  1  0  0  0  0
M  END
> <id>
EN300-1461611

> <smiles>
O=C1CCCC21CC3CCC2O3

> <IUPAC Name>
7-oxaspiro[bicyclo[2.2.1]heptane-2,1'-cyclopentane]-5'-one

> <CAS>
2167294-99-5

> <URL>
https://www.enaminestore.com/catalog/EN300-1461611

> <ROCS_ShapeQuery>
_x1247relevant_x1083L0AP1_x1305L0BP1_

> <ROCS_TanimotoCombo>
1.073 

> <ROCS_ShapeTanimoto>
0.512 

> <ROCS_ColorTanimoto>
0.561 

> <ROCS_RefTversky>
0.428 

> <ROCS_RefColorTversky>
0.708 

> <ROCS_RefTverskyCombo>
1.137 

> <ROCS_FitTversky>
1.619 

> <ROCS_FitColorTversky>
0.730 

> <ROCS_FitTverskyCombo>
2.348 

> <ROCS_ColorScore>
-6.833

> <ROCS_Overlap>
1054.355

> <ROCS_Rank>
51                  

$$$$
untitled-dbase-7888_0
  -OEChem-06232314403D

 23 25  0     1  0  0  0  0  0999 V2000
  -11.1541   14.1607  -36.0026 C   0  0  0  0  0  0  0  0  0  0  0  0
   -9.7762   14.0286  -35.8989 C   0  0  0  0  0  0  0  0  0  0  0  0
  -11.6937   14.8060  -37.1142 C   0  0  0  0  0  0  0  0  0  0  0  0
  -10.8237   15.2887  -38.1197 C   0  0  0  0  0  0  0  0  0  0  0  0
   -8.9936   14.5409  -36.9214 C   0  0  0  0  0  0  0  0  0  0  0  0
  -13.4621   14.6264  -39.6334 C   0  0  0  0  0  0  0  0  0  0  0  0
  -13.5828   13.9268  -38.2608 C   0  0  0  0  0  0  0  0  0  0  0  0
  -13.3906   16.2485  -37.8997 C   0  0  0  0  0  0  0  0  0  0  0  0
  -12.8547   16.0056  -39.3128 C   0  0  1  0  0  0  0  0  0  0  0  0
   -9.4800   15.1613  -38.0222 N   0  0  0  0  0  0  0  0  0  0  0  0
  -11.3976   15.9050  -39.2384 N   0  0  0  0  0  0  0  0  0  0  0  0
  -13.1059   14.9369  -37.2869 N   0  0  2  0  0  0  0  0  0  0  0  0
   -7.2816   14.4166  -36.8683 Cl  0  0  0  0  0  0  0  0  0  0  0  0
  -11.7978   13.7645  -35.2226 H   0  0  0  0  0  0  0  0  0  0  0  0
   -9.3371   13.5340  -35.0389 H   0  0  0  0  0  0  0  0  0  0  0  0
  -12.8526   14.0534  -40.3400 H   0  0  0  0  0  0  0  0  0  0  0  0
  -14.4596   14.7494  -40.0716 H   0  0  0  0  0  0  0  0  0  0  0  0
  -14.6331   13.6929  -38.0522 H   0  0  0  0  0  0  0  0  0  0  0  0
  -13.0203   12.9860  -38.2241 H   0  0  0  0  0  0  0  0  0  0  0  0
  -12.9140   17.0877  -37.3777 H   0  0  0  0  0  0  0  0  0  0  0  0
  -14.4727   16.4283  -37.9085 H   0  0  0  0  0  0  0  0  0  0  0  0
  -13.1529   16.7730  -40.0320 H   0  0  0  0  0  0  0  0  0  0  0  0
  -10.8070   16.2344  -39.9904 H   0  0  0  0  0  0  0  0  0  0  0  0
  1  2  1  0  0  0  0
  1  3  2  0  0  0  0
  2  5  2  0  0  0  0
  3  4  1  0  0  0  0
  3 12  1  0  0  0  0
  4 10  2  0  0  0  0
  4 11  1  0  0  0  0
  5 10  1  0  0  0  0
  5 13  1  0  0  0  0
  6  7  1  0  0  0  0
  6  9  1  1  0  0  0
  7 12  1  0  0  0  0
  8  9  1  0  0  0  0
  8 12  1  0  0  0  0
  9 11  1  0  0  0  0
  1 14  1  0  0  0  0
  2 15  1  0  0  0  0
  6 16  1  0  0  0  0
  6 17  1  0  0  0  0
  7 18  1  0  0  0  0
  7 19  1  0  0  0  0
  8 20  1  0  0  0  0
  8 21  1  0  0  0  0
  9 22  1  0  0  0  0
 11 23  1  0  0  0  0
M  END
> <id>
EN300-255992

> <smiles>
ClC=1C=CC=2N3CC[C@@H](C3)NC2N1

> <MDLNUMBER>
MFCD28501654

> <IUPAC Name>
(9S)-5-chloro-1,6,8-triazatricyclo[7.2.1.0,2,7]dodeca-2,4,6-triene

> <CAS>
1638603-72-1

> <Purity>
95

> <URL>
https://www.enaminestore.com/catalog/EN300-255992

> <ROCS_ShapeQuery>
_x1247relevant_x1083L0AP1_x1305L0BP1_

> <ROCS_TanimotoCombo>
1.072 

> <ROCS_ShapeTanimoto>
0.518 

> <ROCS_ColorTanimoto>
0.554 

> <ROCS_RefTversky>
0.438 

> <ROCS_RefColorTversky>
0.688 

> <ROCS_RefTverskyCombo>
1.126 

> <ROCS_FitTversky>
1.543 

> <ROCS_FitColorTversky>
0.741 

> <ROCS_FitTverskyCombo>
2.284 

> <ROCS_ColorScore>
-6.621

> <ROCS_Overlap>
1079.319

> <ROCS_Rank>
52                  

$$$$
untitled-dbase-25987_0
  -OEChem-06232314403D

 23 24  0     0  0  0  0  0  0999 V2000
  -14.4415   14.5647  -40.0658 C   0  0  0  0  0  0  0  0  0  0  0  0
  -14.0628   15.4947  -37.7621 C   0  0  0  0  0  0  0  0  0  0  0  0
  -12.5198   16.1247  -39.6322 C   0  0  0  0  0  0  0  0  0  0  0  0
  -12.8682   15.4249  -36.7976 C   0  0  0  0  0  0  0  0  0  0  0  0
  -11.3230   16.0556  -38.6703 C   0  0  0  0  0  0  0  0  0  0  0  0
  -12.4603   13.9583  -38.6350 C   0  0  0  0  0  0  0  0  0  0  0  0
  -13.4558   15.0254  -39.0971 C   0  0  0  0  0  0  0  0  0  0  0  0
  -11.7211   14.9218  -37.7006 C   0  0  0  0  0  0  0  0  0  0  0  0
  -10.5563   14.3284  -36.9392 C   0  0  0  0  0  0  0  0  0  0  0  0
  -15.2266   14.1978  -40.8374 N   0  0  0  0  0  0  0  0  0  0  0  0
  -10.9577   13.2732  -36.2051 F   0  0  0  0  0  0  0  0  0  0  0  0
   -9.5972   13.9127  -37.7882 F   0  0  0  0  0  0  0  0  0  0  0  0
  -10.0186   15.2415  -36.1081 F   0  0  0  0  0  0  0  0  0  0  0  0
  -14.8624   14.8268  -37.4189 H   0  0  0  0  0  0  0  0  0  0  0  0
  -14.4795   16.5064  -37.8215 H   0  0  0  0  0  0  0  0  0  0  0  0
  -12.9879   17.1152  -39.6306 H   0  0  0  0  0  0  0  0  0  0  0  0
  -12.1897   15.9163  -40.6573 H   0  0  0  0  0  0  0  0  0  0  0  0
  -12.6508   16.3990  -36.3467 H   0  0  0  0  0  0  0  0  0  0  0  0
  -13.0833   14.7176  -35.9881 H   0  0  0  0  0  0  0  0  0  0  0  0
  -10.4108   15.8090  -39.2260 H   0  0  0  0  0  0  0  0  0  0  0  0
  -11.1591   17.0082  -38.1558 H   0  0  0  0  0  0  0  0  0  0  0  0
  -12.9313   13.1179  -38.1110 H   0  0  0  0  0  0  0  0  0  0  0  0
  -11.8318   13.5665  -39.4435 H   0  0  0  0  0  0  0  0  0  0  0  0
  1  7  1  0  0  0  0
  1 10  3  0  0  0  0
  2  4  1  0  0  0  0
  2  7  1  0  0  0  0
  3  5  1  0  0  0  0
  3  7  1  0  0  0  0
  4  8  1  0  0  0  0
  5  8  1  0  0  0  0
  6  7  1  0  0  0  0
  6  8  1  0  0  0  0
  8  9  1  0  0  0  0
  9 11  1  0  0  0  0
  9 12  1  0  0  0  0
  9 13  1  0  0  0  0
  2 14  1  0  0  0  0
  2 15  1  0  0  0  0
  3 16  1  0  0  0  0
  3 17  1  0  0  0  0
  4 18  1  0  0  0  0
  4 19  1  0  0  0  0
  5 20  1  0  0  0  0
  5 21  1  0  0  0  0
  6 22  1  0  0  0  0
  6 23  1  0  0  0  0
M  END
> <id>
EN300-6499667

> <smiles>
FC(F)(F)C1(CCC2(CC1)C#N)C2

> <MDLNUMBER>
MFCD31794759

> <IUPAC Name>
4-(trifluoromethyl)bicyclo[2.2.1]heptane-1-carbonitrile

> <CAS>
2287310-57-8

> <Purity>
95

> <URL>
https://www.enaminestore.com/catalog/EN300-6499667

> <ROCS_ShapeQuery>
_x1247relevant_x1083L0AP1_x1305L0BP1_

> <ROCS_TanimotoCombo>
1.072 

> <ROCS_ShapeTanimoto>
0.552 

> <ROCS_ColorTanimoto>
0.520 

> <ROCS_RefTversky>
0.455 

> <ROCS_RefColorTversky>
0.609 

> <ROCS_RefTverskyCombo>
1.064 

> <ROCS_FitTversky>
1.629 

> <ROCS_FitColorTversky>
0.782 

> <ROCS_FitTverskyCombo>
2.410 

> <ROCS_ColorScore>
-5.810

> <ROCS_Overlap>
1121.218

> <ROCS_Rank>
53                  

$$$$
untitled-dbase-20780_0
  -OEChem-06232314403D

 19 20  0     1  0  0  0  0  0999 V2000
  -15.4346   14.0181  -40.7048 C   0  0  0  0  0  0  0  0  0  0  0  0
  -14.3646   14.2886  -40.2326 C   0  0  0  0  0  0  0  0  0  0  0  0
  -11.2913   15.6866  -37.6766 C   0  0  0  0  0  0  0  0  0  0  0  0
  -11.5089   14.3650  -37.7503 C   0  0  0  0  0  0  0  0  0  0  0  0
  -12.8388   16.1628  -39.5492 C   0  0  0  0  0  0  0  0  0  0  0  0
  -13.5666   15.3664  -37.4325 C   0  0  0  0  0  0  0  0  0  0  0  0
  -13.0543   14.6203  -39.6547 C   0  0  1  0  0  0  0  0  0  0  0  0
  -12.5872   16.3739  -38.0383 C   0  0  1  0  0  0  0  0  0  0  0  0
  -12.9485   14.1723  -38.1735 C   0  0  1  0  0  0  0  0  0  0  0  0
  -16.3838   13.7780  -41.1236 H   0  0  0  0  0  0  0  0  0  0  0  0
  -10.3546   16.1705  -37.4512 H   0  0  0  0  0  0  0  0  0  0  0  0
  -10.7797   13.5854  -37.5989 H   0  0  0  0  0  0  0  0  0  0  0  0
  -11.9845   16.4873  -40.1545 H   0  0  0  0  0  0  0  0  0  0  0  0
  -13.7227   16.7242  -39.8748 H   0  0  0  0  0  0  0  0  0  0  0  0
  -13.4919   15.2869  -36.3402 H   0  0  0  0  0  0  0  0  0  0  0  0
  -14.6106   15.5602  -37.7022 H   0  0  0  0  0  0  0  0  0  0  0  0
  -12.2667   14.1653  -40.2679 H   0  0  0  0  0  0  0  0  0  0  0  0
  -12.6836   17.3973  -37.6748 H   0  0  0  0  0  0  0  0  0  0  0  0
  -13.3762   13.2016  -37.9168 H   0  0  0  0  0  0  0  0  0  0  0  0
  1  2  3  0  0  0  0
  2  7  1  0  0  0  0
  3  4  2  0  0  0  0
  3  8  1  0  0  0  0
  4  9  1  0  0  0  0
  5  7  1  0  0  0  0
  5  8  1  0  0  0  0
  6  8  1  0  0  0  0
  6  9  1  0  0  0  0
  7  9  1  0  0  0  0
  1 10  1  0  0  0  0
  3 11  1  0  0  0  0
  4 12  1  0  0  0  0
  5 13  1  0  0  0  0
  5 14  1  0  0  0  0
  6 15  1  0  0  0  0
  6 16  1  0  0  0  0
  7 17  1  0  0  0  0
  8 18  1  0  0  0  0
  9 19  1  0  0  0  0
M  END
> <id>
EN300-1825497

> <smiles>
C#CC1CC2CC1C=C2

> <MDLNUMBER>
MFCD32775357

> <IUPAC Name>
5-ethynylbicyclo[2.2.1]hept-2-ene

> <CAS>
77891-01-1

> <Purity>
95

> <URL>
https://www.enaminestore.com/catalog/EN300-1825497

> <ROCS_ShapeQuery>
_x1247relevant_x1083L0AP1_x1305L0BP1_

> <ROCS_TanimotoCombo>
1.072 

> <ROCS_ShapeTanimoto>
0.411 

> <ROCS_ColorTanimoto>
0.661 

> <ROCS_RefTversky>
0.351 

> <ROCS_RefColorTversky>
0.710 

> <ROCS_RefTverskyCombo>
1.061 

> <ROCS_FitTversky>
1.704 

> <ROCS_FitColorTversky>
0.906 

> <ROCS_FitTverskyCombo>
2.610 

> <ROCS_ColorScore>
-6.779

> <ROCS_Overlap>
861.984

> <ROCS_Rank>
54                  

$$$$
untitled-dbase-35898_0
  -OEChem-06232314403D

 21 22  0     1  0  0  0  0  0999 V2000
  -13.3373   15.6520  -37.3048 C   0  0  0  0  0  0  0  0  0  0  0  0
  -13.3488   14.1590  -39.1674 C   0  0  0  0  0  0  0  0  0  0  0  0
  -11.1797   15.9414  -38.2961 C   0  0  0  0  0  0  0  0  0  0  0  0
  -12.8244   14.2729  -37.7250 C   0  0  1  0  0  0  0  0  0  0  0  0
  -12.6548   16.3606  -38.4822 C   0  0  1  0  0  0  0  0  0  0  0  0
  -13.2248   15.6019  -39.7036 C   0  0  2  0  0  0  0  0  0  0  0  0
  -11.3145   14.5237  -37.7447 C   0  0  0  0  0  0  0  0  0  0  0  0
  -14.5326   16.1206  -40.0922 N   0  0  0  0  0  0  0  0  0  0  0  0
  -10.8141   14.4653  -36.4886 F   0  0  0  0  0  0  0  0  0  0  0  0
  -10.6538   13.6184  -38.4882 F   0  0  0  0  0  0  0  0  0  0  0  0
  -14.4290   15.7304  -37.3172 H   0  0  0  0  0  0  0  0  0  0  0  0
  -12.9594   15.9783  -36.3300 H   0  0  0  0  0  0  0  0  0  0  0  0
  -12.7681   13.4526  -39.7696 H   0  0  0  0  0  0  0  0  0  0  0  0
  -14.3890   13.8107  -39.1632 H   0  0  0  0  0  0  0  0  0  0  0  0
  -10.6186   15.9758  -39.2348 H   0  0  0  0  0  0  0  0  0  0  0  0
  -10.6906   16.5931  -37.5641 H   0  0  0  0  0  0  0  0  0  0  0  0
  -13.1246   13.4501  -37.0735 H   0  0  0  0  0  0  0  0  0  0  0  0
  -12.7894   17.4443  -38.5207 H   0  0  0  0  0  0  0  0  0  0  0  0
  -12.5487   15.6508  -40.5642 H   0  0  0  0  0  0  0  0  0  0  0  0
  -14.4193   17.0618  -40.3871 H   0  0  0  0  0  0  0  0  0  0  0  0
  -14.8811   15.5607  -40.8342 H   0  0  0  0  0  0  0  0  0  0  0  0
  1  4  1  0  0  0  0
  1  5  1  0  0  0  0
  2  4  1  0  0  0  0
  2  6  1  0  0  0  0
  3  5  1  0  0  0  0
  3  7  1  0  0  0  0
  4  7  1  0  0  0  0
  5  6  1  0  0  0  0
  6  8  1  0  0  0  0
  7  9  1  0  0  0  0
  7 10  1  0  0  0  0
  1 11  1  0  0  0  0
  1 12  1  0  0  0  0
  2 13  1  0  0  0  0
  2 14  1  0  0  0  0
  3 15  1  0  0  0  0
  3 16  1  0  0  0  0
  4 17  1  0  0  0  0
  5 18  1  0  0  0  0
  6 19  1  0  0  0  0
  8 20  1  0  0  0  0
  8 21  1  0  0  0  0
M  END
> <id>
EN300-1723889

> <smiles>
Cl.NC1CC2CC1CC2(F)F

> <MDLNUMBER>
MFCD31665268

> <IUPAC Name>
5,5-difluorobicyclo[2.2.1]heptan-2-amine hydrochloride

> <CAS>
2228261-05-8

> <Purity>
95

> <URL>
https://www.enaminestore.com/catalog/EN300-1723889

> <Saltdate>
Cl

> <ROCS_ShapeQuery>
_x1247relevant_x1083L0AP1_x1305L0BP1_

> <ROCS_TanimotoCombo>
1.072 

> <ROCS_ShapeTanimoto>
0.462 

> <ROCS_ColorTanimoto>
0.610 

> <ROCS_RefTversky>
0.387 

> <ROCS_RefColorTversky>
0.710 

> <ROCS_RefTverskyCombo>
1.097 

> <ROCS_FitTversky>
1.715 

> <ROCS_FitColorTversky>
0.813 

> <ROCS_FitTverskyCombo>
2.527 

> <ROCS_ColorScore>
-6.813

> <ROCS_Overlap>
951.459

> <ROCS_Rank>
55                  

$$$$
untitled-dbase-35911_0
  -OEChem-06232314403D

 21 22  0     1  0  0  0  0  0999 V2000
  -13.3373   15.6520  -37.3048 C   0  0  0  0  0  0  0  0  0  0  0  0
  -13.3488   14.1590  -39.1674 C   0  0  0  0  0  0  0  0  0  0  0  0
  -11.1797   15.9414  -38.2961 C   0  0  0  0  0  0  0  0  0  0  0  0
  -12.8244   14.2729  -37.7250 C   0  0  1  0  0  0  0  0  0  0  0  0
  -12.6548   16.3606  -38.4822 C   0  0  1  0  0  0  0  0  0  0  0  0
  -13.2248   15.6019  -39.7036 C   0  0  2  0  0  0  0  0  0  0  0  0
  -11.3145   14.5237  -37.7447 C   0  0  0  0  0  0  0  0  0  0  0  0
  -14.5326   16.1206  -40.0922 N   0  0  0  0  0  0  0  0  0  0  0  0
  -10.8141   14.4653  -36.4886 F   0  0  0  0  0  0  0  0  0  0  0  0
  -10.6538   13.6184  -38.4882 F   0  0  0  0  0  0  0  0  0  0  0  0
  -14.4290   15.7304  -37.3172 H   0  0  0  0  0  0  0  0  0  0  0  0
  -12.9594   15.9783  -36.3300 H   0  0  0  0  0  0  0  0  0  0  0  0
  -12.7681   13.4526  -39.7696 H   0  0  0  0  0  0  0  0  0  0  0  0
  -14.3890   13.8107  -39.1632 H   0  0  0  0  0  0  0  0  0  0  0  0
  -10.6186   15.9758  -39.2348 H   0  0  0  0  0  0  0  0  0  0  0  0
  -10.6906   16.5931  -37.5641 H   0  0  0  0  0  0  0  0  0  0  0  0
  -13.1246   13.4501  -37.0735 H   0  0  0  0  0  0  0  0  0  0  0  0
  -12.7894   17.4443  -38.5207 H   0  0  0  0  0  0  0  0  0  0  0  0
  -12.5487   15.6508  -40.5642 H   0  0  0  0  0  0  0  0  0  0  0  0
  -14.4193   17.0618  -40.3871 H   0  0  0  0  0  0  0  0  0  0  0  0
  -14.8811   15.5607  -40.8342 H   0  0  0  0  0  0  0  0  0  0  0  0
  1  4  1  0  0  0  0
  1  5  1  0  0  0  0
  2  4  1  0  0  0  0
  2  6  1  0  0  0  0
  3  5  1  0  0  0  0
  3  7  1  0  0  0  0
  4  7  1  0  0  0  0
  5  6  1  0  0  0  0
  6  8  1  0  0  0  0
  7  9  1  0  0  0  0
  7 10  1  0  0  0  0
  1 11  1  0  0  0  0
  1 12  1  0  0  0  0
  2 13  1  0  0  0  0
  2 14  1  0  0  0  0
  3 15  1  0  0  0  0
  3 16  1  0  0  0  0
  4 17  1  0  0  0  0
  5 18  1  0  0  0  0
  6 19  1  0  0  0  0
  8 20  1  0  0  0  0
  8 21  1  0  0  0  0
M  END
> <id>
EN300-1723890

> <smiles>
NC1CC2CC1CC2(F)F

> <MDLNUMBER>
MFCD24505798

> <IUPAC Name>
5,5-difluorobicyclo[2.2.1]heptan-2-amine

> <CAS>
1824236-91-0

> <URL>
https://www.enaminestore.com/catalog/EN300-1723890

> <ROCS_ShapeQuery>
_x1247relevant_x1083L0AP1_x1305L0BP1_

> <ROCS_TanimotoCombo>
1.072 

> <ROCS_ShapeTanimoto>
0.462 

> <ROCS_ColorTanimoto>
0.610 

> <ROCS_RefTversky>
0.387 

> <ROCS_RefColorTversky>
0.710 

> <ROCS_RefTverskyCombo>
1.097 

> <ROCS_FitTversky>
1.715 

> <ROCS_FitColorTversky>
0.813 

> <ROCS_FitTverskyCombo>
2.527 

> <ROCS_ColorScore>
-6.813

> <ROCS_Overlap>
951.459

> <ROCS_Rank>
56                  

$$$$
untitled-dbase-35285_0
  -OEChem-06232314403D

 23 25  0     1  0  0  0  0  0999 V2000
  -10.0547   14.6006  -36.2353 C   0  0  0  0  0  0  0  0  0  0  0  0
  -10.7014   13.6429  -36.9042 C   0  0  0  0  0  0  0  0  0  0  0  0
  -13.3865   14.6708  -39.4007 C   0  0  0  0  0  0  0  0  0  0  0  0
  -10.2068   15.9453  -36.8637 C   0  0  0  0  0  0  0  0  0  0  0  0
  -13.1582   16.1674  -39.4477 C   0  0  0  0  0  0  0  0  0  0  0  0
  -13.2797   15.3639  -37.2030 C   0  0  0  0  0  0  0  0  0  0  0  0
  -11.3908   14.1646  -38.1207 C   0  0  1  0  0  0  0  0  0  0  0  0
  -12.9266   14.1409  -38.0561 C   0  0  2  0  0  0  0  0  0  0  0  0
  -11.0690   15.6892  -38.1091 C   0  0  1  0  0  0  0  0  0  0  0  0
  -12.4783   16.3429  -38.0687 C   0  0  1  0  0  0  0  0  0  0  0  0
  -13.8349   13.9955  -40.3135 O   0  0  0  0  0  0  0  0  0  0  0  0
   -9.4903   14.4284  -35.3300 H   0  0  0  0  0  0  0  0  0  0  0  0
  -10.7194   12.6041  -36.6064 H   0  0  0  0  0  0  0  0  0  0  0  0
  -10.6693   16.6557  -36.1717 H   0  0  0  0  0  0  0  0  0  0  0  0
   -9.2244   16.3356  -37.1503 H   0  0  0  0  0  0  0  0  0  0  0  0
  -12.5091   16.4479  -40.2795 H   0  0  0  0  0  0  0  0  0  0  0  0
  -14.1206   16.6838  -39.4934 H   0  0  0  0  0  0  0  0  0  0  0  0
  -14.3524   15.5900  -37.1965 H   0  0  0  0  0  0  0  0  0  0  0  0
  -12.9256   15.2970  -36.1704 H   0  0  0  0  0  0  0  0  0  0  0  0
  -11.0009   13.6816  -39.0240 H   0  0  0  0  0  0  0  0  0  0  0  0
  -13.4027   13.2054  -37.7626 H   0  0  0  0  0  0  0  0  0  0  0  0
  -10.5250   15.9962  -39.0107 H   0  0  0  0  0  0  0  0  0  0  0  0
  -12.4774   17.3788  -37.7226 H   0  0  0  0  0  0  0  0  0  0  0  0
  1  2  2  0  0  0  0
  1  4  1  0  0  0  0
  2  7  1  0  0  0  0
  3  5  1  0  0  0  0
  3  8  1  0  0  0  0
  3 11  2  0  0  0  0
  4  9  1  0  0  0  0
  5 10  1  0  0  0  0
  6  8  1  0  0  0  0
  6 10  1  0  0  0  0
  7  8  1  0  0  0  0
  7  9  1  0  0  0  0
  9 10  1  0  0  0  0
  1 12  1  0  0  0  0
  2 13  1  0  0  0  0
  4 14  1  0  0  0  0
  4 15  1  0  0  0  0
  5 16  1  0  0  0  0
  5 17  1  0  0  0  0
  6 18  1  0  0  0  0
  6 19  1  0  0  0  0
  7 20  1  0  0  0  0
  8 21  1  0  0  0  0
  9 22  1  0  0  0  0
 10 23  1  0  0  0  0
M  END
> <id>
EN300-7732559

> <smiles>
O=C1CC2CC1C3C=CCC23

> <IUPAC Name>
tricyclo[5.2.1.0,2,6]dec-4-en-8-one

> <CAS>
6316-16-1

> <URL>
https://www.enaminestore.com/catalog/EN300-7732559

> <ROCS_ShapeQuery>
_x1247relevant_x1083L0AP1_x1305L0BP1_

> <ROCS_TanimotoCombo>
1.072 

> <ROCS_ShapeTanimoto>
0.495 

> <ROCS_ColorTanimoto>
0.577 

> <ROCS_RefTversky>
0.413 

> <ROCS_RefColorTversky>
0.691 

> <ROCS_RefTverskyCombo>
1.104 

> <ROCS_FitTversky>
1.670 

> <ROCS_FitColorTversky>
0.778 

> <ROCS_FitTverskyCombo>
2.447 

> <ROCS_ColorScore>
-6.635

> <ROCS_Overlap>
1014.951

> <ROCS_Rank>
57                  

$$$$
untitled-dbase-34686_0
  -OEChem-06232314403D

 22 24  0     1  0  0  0  0  0999 V2000
   -9.3088   14.1744  -36.9516 C   0  0  0  0  0  0  0  0  0  0  0  0
  -10.5794   13.6043  -37.0292 C   0  0  0  0  0  0  0  0  0  0  0  0
   -9.1381   15.5123  -37.3319 C   0  0  0  0  0  0  0  0  0  0  0  0
  -11.5972   14.4111  -37.4722 C   0  0  0  0  0  0  0  0  0  0  0  0
  -11.3252   15.7301  -37.8252 C   0  0  0  0  0  0  0  0  0  0  0  0
  -13.3199   14.1904  -39.2416 C   0  0  0  0  0  0  0  0  0  0  0  0
  -13.0508   14.2029  -37.7314 C   0  0  2  0  0  0  0  0  0  0  0  0
  -12.6341   16.3004  -38.3072 C   0  0  1  0  0  0  0  0  0  0  0  0
  -12.9909   15.6536  -39.6566 C   0  0  2  0  0  0  0  0  0  0  0  0
  -10.1282   16.3232  -37.7815 N   0  0  0  0  0  0  0  0  0  0  0  0
  -14.1559   16.3009  -40.2490 N   0  0  0  0  0  0  0  0  0  0  0  0
  -13.5142   15.5526  -37.4107 O   0  0  0  0  0  0  0  0  0  0  0  0
   -8.4623   13.5900  -36.6063 H   0  0  0  0  0  0  0  0  0  0  0  0
  -10.7488   12.5703  -36.7545 H   0  0  0  0  0  0  0  0  0  0  0  0
   -8.1566   15.9737  -37.2817 H   0  0  0  0  0  0  0  0  0  0  0  0
  -12.7055   13.4618  -39.7813 H   0  0  0  0  0  0  0  0  0  0  0  0
  -14.3737   13.9541  -39.4325 H   0  0  0  0  0  0  0  0  0  0  0  0
  -13.5511   13.4472  -37.1243 H   0  0  0  0  0  0  0  0  0  0  0  0
  -12.7455   17.3809  -38.1983 H   0  0  0  0  0  0  0  0  0  0  0  0
  -12.1563   15.6926  -40.3660 H   0  0  0  0  0  0  0  0  0  0  0  0
  -13.9208   17.2447  -40.4495 H   0  0  0  0  0  0  0  0  0  0  0  0
  -14.3926   15.8152  -41.0823 H   0  0  0  0  0  0  0  0  0  0  0  0
  1  2  1  0  0  0  0
  1  3  2  0  0  0  0
  2  4  2  0  0  0  0
  3 10  1  0  0  0  0
  4  5  1  0  0  0  0
  4  7  1  0  0  0  0
  5  8  1  0  0  0  0
  5 10  2  0  0  0  0
  6  7  1  0  0  0  0
  6  9  1  0  0  0  0
  7 12  1  0  0  0  0
  8  9  1  0  0  0  0
  8 12  1  0  0  0  0
  9 11  1  0  0  0  0
  1 13  1  0  0  0  0
  2 14  1  0  0  0  0
  3 15  1  0  0  0  0
  6 16  1  0  0  0  0
  6 17  1  0  0  0  0
  7 18  1  0  0  0  0
  8 19  1  0  0  0  0
  9 20  1  0  0  0  0
 11 21  1  0  0  0  0
 11 22  1  0  0  0  0
M  END
> <id>
EN300-37468731

> <smiles>
NC1CC2OC1C=3N=CC=CC23

> <IUPAC Name>
11-oxa-3-azatricyclo[6.2.1.0,2,7]undeca-2,4,6-trien-10-amine

> <URL>
https://www.enaminestore.com/catalog/EN300-37468731

> <ROCS_ShapeQuery>
_x1247relevant_x1083L0AP1_x1305L0BP1_

> <ROCS_TanimotoCombo>
1.071 

> <ROCS_ShapeTanimoto>
0.532 

> <ROCS_ColorTanimoto>
0.539 

> <ROCS_RefTversky>
0.441 

> <ROCS_RefColorTversky>
0.758 

> <ROCS_RefTverskyCombo>
1.199 

> <ROCS_FitTversky>
1.631 

> <ROCS_FitColorTversky>
0.651 

> <ROCS_FitTverskyCombo>
2.282 

> <ROCS_ColorScore>
-7.389

> <ROCS_Overlap>
1086.422

> <ROCS_Rank>
58                  

$$$$
untitled-dbase-27893_0
  -OEChem-06232314403D

 27 30  0     1  0  0  0  0  0999 V2000
  -12.9606   16.5183  -38.1819 C   0  0  0  0  0  0  0  0  0  0  0  0
  -13.6740   14.2940  -37.6564 C   0  0  0  0  0  0  0  0  0  0  0  0
  -11.2684   15.1738  -39.2029 C   0  0  0  0  0  0  0  0  0  0  0  0
   -9.9104   13.7645  -36.2857 C   0  0  0  0  0  0  0  0  0  0  0  0
   -9.2057   15.0471  -36.6308 C   0  0  0  0  0  0  0  0  0  0  0  0
  -14.0268   13.4405  -40.1545 C   0  0  0  0  0  0  0  0  0  0  0  0
  -12.6454   15.3689  -37.2096 C   0  0  1  0  0  0  0  0  0  0  0  0
  -12.7177   15.6529  -39.4304 C   0  0  1  0  0  0  0  0  0  0  0  0
  -13.6243   14.4812  -39.1476 C   0  0  2  0  0  0  0  0  0  0  0  0
  -11.2158   14.9824  -37.6680 C   0  0  0  0  0  0  0  0  0  0  0  0
  -14.8991   14.5250  -39.7974 O   0  0  0  0  0  0  0  0  0  0  0  0
  -10.8784   13.6372  -37.3250 O   0  0  0  0  0  0  0  0  0  0  0  0
  -10.2640   15.8872  -37.0876 O   0  0  0  0  0  0  0  0  0  0  0  0
  -13.9943   16.8705  -38.0970 H   0  0  0  0  0  0  0  0  0  0  0  0
  -12.2737   17.3668  -38.1022 H   0  0  0  0  0  0  0  0  0  0  0  0
  -13.3913   13.2841  -37.3474 H   0  0  0  0  0  0  0  0  0  0  0  0
  -14.6686   14.5264  -37.2600 H   0  0  0  0  0  0  0  0  0  0  0  0
  -11.0601   14.2469  -39.7479 H   0  0  0  0  0  0  0  0  0  0  0  0
  -10.5633   15.9464  -39.5298 H   0  0  0  0  0  0  0  0  0  0  0  0
   -9.2474   12.8962  -36.2643 H   0  0  0  0  0  0  0  0  0  0  0  0
  -10.4425   13.8398  -35.3309 H   0  0  0  0  0  0  0  0  0  0  0  0
   -8.6887   15.5013  -35.7821 H   0  0  0  0  0  0  0  0  0  0  0  0
   -8.4996   14.9099  -37.4566 H   0  0  0  0  0  0  0  0  0  0  0  0
  -13.5705   13.4683  -41.1353 H   0  0  0  0  0  0  0  0  0  0  0  0
  -14.2867   12.4521  -39.7991 H   0  0  0  0  0  0  0  0  0  0  0  0
  -12.7172   15.6314  -36.1517 H   0  0  0  0  0  0  0  0  0  0  0  0
  -12.8851   16.1527  -40.3868 H   0  0  0  0  0  0  0  0  0  0  0  0
  1  7  1  0  0  0  0
  1  8  1  0  0  0  0
  2  7  1  6  0  0  0
  2  9  1  0  0  0  0
  3  8  1  6  0  0  0
  3 10  1  0  0  0  0
  4  5  1  0  0  0  0
  4 12  1  0  0  0  0
  5 13  1  0  0  0  0
  6  9  1  0  0  0  0
  6 11  1  0  0  0  0
  7 10  1  0  0  0  0
  8  9  1  0  0  0  0
  9 11  1  0  0  0  0
 10 12  1  0  0  0  0
 10 13  1  0  0  0  0
  1 14  1  0  0  0  0
  1 15  1  0  0  0  0
  2 16  1  0  0  0  0
  2 17  1  0  0  0  0
  3 18  1  0  0  0  0
  3 19  1  0  0  0  0
  4 20  1  0  0  0  0
  4 21  1  0  0  0  0
  5 22  1  0  0  0  0
  5 23  1  0  0  0  0
  6 24  1  0  0  0  0
  6 25  1  0  0  0  0
  7 26  1  0  0  0  0
  8 27  1  0  0  0  0
M  END
> <id>
EN300-7465897

> <smiles>
C1OC12C[C@@H]3C[C@H]2CC43OCCO4 |&1:4,6,r|

> <IUPAC Name>
rac-(1'R,4'R)-dispiro[1,3-dioxolane-2,2'-bicyclo[2.2.1]heptane-5',2''-oxirane]

> <Purity>
95

> <URL>
https://www.enaminestore.com/catalog/EN300-7465897

> <ROCS_ShapeQuery>
_x1247relevant_x1083L0AP1_x1305L0BP1_

> <ROCS_TanimotoCombo>
1.071 

> <ROCS_ShapeTanimoto>
0.548 

> <ROCS_ColorTanimoto>
0.522 

> <ROCS_RefTversky>
0.456 

> <ROCS_RefColorTversky>
0.708 

> <ROCS_RefTverskyCombo>
1.163 

> <ROCS_FitTversky>
1.587 

> <ROCS_FitColorTversky>
0.666 

> <ROCS_FitTverskyCombo>
2.253 

> <ROCS_ColorScore>
-6.863

> <ROCS_Overlap>
1123.055

> <ROCS_Rank>
59                  

$$$$
untitled-dbase-24068_1
  -OEChem-06232314403D

 27 29  0     1  0  0  0  0  0999 V2000
  -13.4816   14.2676  -37.6499 C   0  0  0  0  0  0  0  0  0  0  0  0
  -13.7519   14.5042  -39.1163 C   0  0  0  0  0  0  0  0  0  0  0  0
   -9.9937   13.7061  -36.1549 C   0  0  0  0  0  0  0  0  0  0  0  0
   -9.5527   15.1626  -36.0153 C   0  0  0  0  0  0  0  0  0  0  0  0
  -10.5825   13.5874  -37.5558 C   0  0  0  0  0  0  0  0  0  0  0  0
  -10.0079   15.8684  -37.2925 C   0  0  0  0  0  0  0  0  0  0  0  0
  -12.9975   16.4419  -38.0749 C   0  0  0  0  0  0  0  0  0  0  0  0
  -11.4502   15.2527  -39.3365 C   0  0  0  0  0  0  0  0  0  0  0  0
  -12.4913   15.3073  -37.1902 C   0  0  2  0  0  0  0  0  0  0  0  0
  -11.1366   14.9850  -37.8475 C   0  0  0  0  0  0  0  0  0  0  0  0
  -12.8833   15.6927  -39.3604 N   0  0  1  0  0  0  0  0  0  0  0  0
  -13.9563   13.3743  -36.9690 O   0  0  0  0  0  0  0  0  0  0  0  0
  -13.4730   13.6439  -39.7296 H   0  0  0  0  0  0  0  0  0  0  0  0
  -14.8043   14.7621  -39.2645 H   0  0  0  0  0  0  0  0  0  0  0  0
   -9.1289   13.0446  -36.0437 H   0  0  0  0  0  0  0  0  0  0  0  0
  -10.7236   13.4273  -35.3909 H   0  0  0  0  0  0  0  0  0  0  0  0
   -9.9830   15.6351  -35.1263 H   0  0  0  0  0  0  0  0  0  0  0  0
   -8.4621   15.2133  -35.9178 H   0  0  0  0  0  0  0  0  0  0  0  0
   -9.8319   13.2541  -38.2769 H   0  0  0  0  0  0  0  0  0  0  0  0
  -11.3945   12.8515  -37.5502 H   0  0  0  0  0  0  0  0  0  0  0  0
  -10.3966   16.8631  -37.0368 H   0  0  0  0  0  0  0  0  0  0  0  0
   -9.1753   16.0125  -37.9894 H   0  0  0  0  0  0  0  0  0  0  0  0
  -14.0329   16.7406  -37.8701 H   0  0  0  0  0  0  0  0  0  0  0  0
  -12.3673   17.3377  -38.0622 H   0  0  0  0  0  0  0  0  0  0  0  0
  -10.8354   16.0663  -39.7457 H   0  0  0  0  0  0  0  0  0  0  0  0
  -11.2948   14.3805  -39.9863 H   0  0  0  0  0  0  0  0  0  0  0  0
  -12.5062   15.4980  -36.1193 H   0  0  0  0  0  0  0  0  0  0  0  0
  1  2  1  0  0  0  0
  1  9  1  0  0  0  0
  1 12  2  0  0  0  0
  2 11  1  0  0  0  0
  3  4  1  0  0  0  0
  3  5  1  0  0  0  0
  4  6  1  0  0  0  0
  5 10  1  0  0  0  0
  6 10  1  0  0  0  0
  7  9  1  0  0  0  0
  7 11  1  0  0  0  0
  8 10  1  0  0  0  0
  8 11  1  0  0  0  0
  9 10  1  0  0  0  0
  2 13  1  0  0  0  0
  2 14  1  0  0  0  0
  3 15  1  0  0  0  0
  3 16  1  0  0  0  0
  4 17  1  0  0  0  0
  4 18  1  0  0  0  0
  5 19  1  0  0  0  0
  5 20  1  0  0  0  0
  6 21  1  0  0  0  0
  6 22  1  0  0  0  0
  7 23  1  0  0  0  0
  7 24  1  0  0  0  0
  8 25  1  0  0  0  0
  8 26  1  0  0  0  0
  9 27  1  0  0  0  0
M  END
> <id>
EN300-37267660

> <smiles>
O=C1CN2CC1C3(CCCC3)C2

> <IUPAC Name>
4-azaspiro[bicyclo[2.2.1]heptane-2,1'-cyclopentan]-6-one

> <CAS>
2743442-55-7

> <URL>
https://www.enaminestore.com/catalog/EN300-37267660

> <ROCS_ShapeQuery>
_x1247relevant_x1083L0AP1_x1305L0BP1_

> <ROCS_TanimotoCombo>
1.070 

> <ROCS_ShapeTanimoto>
0.503 

> <ROCS_ColorTanimoto>
0.567 

> <ROCS_RefTversky>
0.423 

> <ROCS_RefColorTversky>
0.716 

> <ROCS_RefTverskyCombo>
1.138 

> <ROCS_FitTversky>
1.605 

> <ROCS_FitColorTversky>
0.732 

> <ROCS_FitTverskyCombo>
2.337 

> <ROCS_ColorScore>
-6.907

> <ROCS_Overlap>
1040.810

> <ROCS_Rank>
60                  

$$$$
untitled-dbase-27090_0
  -OEChem-06232314403D

 25 27  0     1  0  0  0  0  0999 V2000
   -9.4262   13.8506  -36.6201 C   0  0  0  0  0  0  0  0  0  0  0  0
   -9.2838   15.2229  -36.3657 C   0  0  0  0  0  0  0  0  0  0  0  0
  -10.5260   13.3680  -37.3322 C   0  0  0  0  0  0  0  0  0  0  0  0
  -10.2396   16.1350  -36.8178 C   0  0  0  0  0  0  0  0  0  0  0  0
  -11.4743   14.2751  -37.7814 C   0  0  0  0  0  0  0  0  0  0  0  0
  -11.3333   15.6544  -37.5230 C   0  0  0  0  0  0  0  0  0  0  0  0
  -13.9293   14.4352  -37.7385 C   0  0  0  0  0  0  0  0  0  0  0  0
  -13.7826   15.9508  -37.4608 C   0  0  0  0  0  0  0  0  0  0  0  0
  -12.6693   14.8103  -39.8611 C   0  0  0  0  0  0  0  0  0  0  0  0
  -12.7257   13.9504  -38.5740 C   0  0  1  0  0  0  0  0  0  0  0  0
  -12.4716   16.4798  -38.0888 C   0  0  2  0  0  0  0  0  0  0  0  0
  -12.5676   16.2584  -39.5500 N   0  0  0  0  0  0  0  0  0  0  0  0
   -8.6715   13.1572  -36.2592 H   0  0  0  0  0  0  0  0  0  0  0  0
   -8.4194   15.5786  -35.8112 H   0  0  0  0  0  0  0  0  0  0  0  0
  -10.6287   12.3059  -37.5280 H   0  0  0  0  0  0  0  0  0  0  0  0
  -10.1238   17.1946  -36.6159 H   0  0  0  0  0  0  0  0  0  0  0  0
  -13.9855   13.8899  -36.7882 H   0  0  0  0  0  0  0  0  0  0  0  0
  -14.8671   14.2445  -38.2734 H   0  0  0  0  0  0  0  0  0  0  0  0
  -14.6490   16.4893  -37.8648 H   0  0  0  0  0  0  0  0  0  0  0  0
  -13.7817   16.1223  -36.3768 H   0  0  0  0  0  0  0  0  0  0  0  0
  -11.8062   14.5167  -40.4718 H   0  0  0  0  0  0  0  0  0  0  0  0
  -13.5671   14.6462  -40.4675 H   0  0  0  0  0  0  0  0  0  0  0  0
  -12.7986   12.8836  -38.8066 H   0  0  0  0  0  0  0  0  0  0  0  0
  -12.3443   17.5459  -37.8747 H   0  0  0  0  0  0  0  0  0  0  0  0
  -11.7408   16.6419  -40.0079 H   0  0  0  0  0  0  0  0  0  0  0  0
  1  2  2  0  0  0  0
  1  3  1  0  0  0  0
  2  4  1  0  0  0  0
  3  5  2  0  0  0  0
  4  6  2  0  0  0  0
  5  6  1  0  0  0  0
  5 10  1  0  0  0  0
  6 11  1  0  0  0  0
  7  8  1  0  0  0  0
  7 10  1  0  0  0  0
  8 11  1  0  0  0  0
  9 10  1  0  0  0  0
  9 12  1  0  0  0  0
 11 12  1  0  0  0  0
  1 13  1  0  0  0  0
  2 14  1  0  0  0  0
  3 15  1  0  0  0  0
  4 16  1  0  0  0  0
  7 17  1  0  0  0  0
  7 18  1  0  0  0  0
  8 19  1  0  0  0  0
  8 20  1  0  0  0  0
  9 21  1  0  0  0  0
  9 22  1  0  0  0  0
 10 23  1  0  0  0  0
 11 24  1  0  0  0  0
 12 25  1  0  0  0  0
M  END
> <id>
EN300-204375

> <smiles>
C1CC2NCC1C=3C=CC=CC23

> <MDLNUMBER>
MFCD20680630

> <IUPAC Name>
9-azatricyclo[6.2.2.0,2,7]dodeca-2,4,6-triene

> <CAS>
111634-87-8

> <URL>
https://www.enaminestore.com/catalog/EN300-204375

> <ROCS_ShapeQuery>
_x1247relevant_x1083L0AP1_x1305L0BP1_

> <ROCS_TanimotoCombo>
1.070 

> <ROCS_ShapeTanimoto>
0.497 

> <ROCS_ColorTanimoto>
0.573 

> <ROCS_RefTversky>
0.420 

> <ROCS_RefColorTversky>
0.708 

> <ROCS_RefTverskyCombo>
1.128 

> <ROCS_FitTversky>
1.589 

> <ROCS_FitColorTversky>
0.750 

> <ROCS_FitTverskyCombo>
2.339 

> <ROCS_ColorScore>
-6.825

> <ROCS_Overlap>
1033.200

> <ROCS_Rank>
61                  

$$$$
untitled-dbase-39252_0
  -OEChem-06232314403D

 25 27  0     1  0  0  0  0  0999 V2000
   -9.4262   13.8506  -36.6201 C   0  0  0  0  0  0  0  0  0  0  0  0
   -9.2838   15.2229  -36.3657 C   0  0  0  0  0  0  0  0  0  0  0  0
  -10.5260   13.3680  -37.3322 C   0  0  0  0  0  0  0  0  0  0  0  0
  -10.2396   16.1350  -36.8178 C   0  0  0  0  0  0  0  0  0  0  0  0
  -11.4743   14.2751  -37.7814 C   0  0  0  0  0  0  0  0  0  0  0  0
  -11.3333   15.6544  -37.5230 C   0  0  0  0  0  0  0  0  0  0  0  0
  -13.9293   14.4352  -37.7385 C   0  0  0  0  0  0  0  0  0  0  0  0
  -13.7826   15.9508  -37.4608 C   0  0  0  0  0  0  0  0  0  0  0  0
  -12.6693   14.8103  -39.8611 C   0  0  0  0  0  0  0  0  0  0  0  0
  -12.7257   13.9504  -38.5740 C   0  0  1  0  0  0  0  0  0  0  0  0
  -12.4716   16.4798  -38.0888 C   0  0  2  0  0  0  0  0  0  0  0  0
  -12.5676   16.2584  -39.5500 N   0  0  0  0  0  0  0  0  0  0  0  0
   -8.6715   13.1572  -36.2592 H   0  0  0  0  0  0  0  0  0  0  0  0
   -8.4194   15.5786  -35.8112 H   0  0  0  0  0  0  0  0  0  0  0  0
  -10.6287   12.3059  -37.5280 H   0  0  0  0  0  0  0  0  0  0  0  0
  -10.1238   17.1946  -36.6159 H   0  0  0  0  0  0  0  0  0  0  0  0
  -13.9855   13.8899  -36.7882 H   0  0  0  0  0  0  0  0  0  0  0  0
  -14.8671   14.2445  -38.2734 H   0  0  0  0  0  0  0  0  0  0  0  0
  -14.6490   16.4893  -37.8648 H   0  0  0  0  0  0  0  0  0  0  0  0
  -13.7817   16.1223  -36.3768 H   0  0  0  0  0  0  0  0  0  0  0  0
  -11.8062   14.5167  -40.4718 H   0  0  0  0  0  0  0  0  0  0  0  0
  -13.5671   14.6462  -40.4675 H   0  0  0  0  0  0  0  0  0  0  0  0
  -12.7986   12.8836  -38.8066 H   0  0  0  0  0  0  0  0  0  0  0  0
  -12.3443   17.5459  -37.8747 H   0  0  0  0  0  0  0  0  0  0  0  0
  -11.7408   16.6419  -40.0079 H   0  0  0  0  0  0  0  0  0  0  0  0
  1  2  2  0  0  0  0
  1  3  1  0  0  0  0
  2  4  1  0  0  0  0
  3  5  2  0  0  0  0
  4  6  2  0  0  0  0
  5  6  1  0  0  0  0
  5 10  1  0  0  0  0
  6 11  1  0  0  0  0
  7  8  1  0  0  0  0
  7 10  1  0  0  0  0
  8 11  1  0  0  0  0
  9 10  1  0  0  0  0
  9 12  1  0  0  0  0
 11 12  1  0  0  0  0
  1 13  1  0  0  0  0
  2 14  1  0  0  0  0
  3 15  1  0  0  0  0
  4 16  1  0  0  0  0
  7 17  1  0  0  0  0
  7 18  1  0  0  0  0
  8 19  1  0  0  0  0
  8 20  1  0  0  0  0
  9 21  1  0  0  0  0
  9 22  1  0  0  0  0
 10 23  1  0  0  0  0
 11 24  1  0  0  0  0
 12 25  1  0  0  0  0
M  END
> <id>
EN300-204374

> <smiles>
Cl.C1CC2NCC1C=3C=CC=CC23

> <IUPAC Name>
9-azatricyclo[6.2.2.0,2,7]dodeca-2,4,6-triene hydrochloride

> <CAS>
111634-86-7

> <URL>
https://www.enaminestore.com/catalog/EN300-204374

> <Saltdate>
Cl

> <ROCS_ShapeQuery>
_x1247relevant_x1083L0AP1_x1305L0BP1_

> <ROCS_TanimotoCombo>
1.070 

> <ROCS_ShapeTanimoto>
0.497 

> <ROCS_ColorTanimoto>
0.573 

> <ROCS_RefTversky>
0.420 

> <ROCS_RefColorTversky>
0.708 

> <ROCS_RefTverskyCombo>
1.128 

> <ROCS_FitTversky>
1.589 

> <ROCS_FitColorTversky>
0.750 

> <ROCS_FitTverskyCombo>
2.339 

> <ROCS_ColorScore>
-6.825

> <ROCS_Overlap>
1033.200

> <ROCS_Rank>
62                  

$$$$
untitled-dbase-6420_0
  -OEChem-06232314403D

 25 27  0     1  0  0  0  0  0999 V2000
   -9.4261   13.8507  -36.6203 C   0  0  0  0  0  0  0  0  0  0  0  0
   -9.2838   15.2230  -36.3656 C   0  0  0  0  0  0  0  0  0  0  0  0
  -10.5258   13.3680  -37.3325 C   0  0  0  0  0  0  0  0  0  0  0  0
  -10.2398   16.1349  -36.8174 C   0  0  0  0  0  0  0  0  0  0  0  0
  -11.4743   14.2751  -37.7814 C   0  0  0  0  0  0  0  0  0  0  0  0
  -11.3334   15.6544  -37.5228 C   0  0  0  0  0  0  0  0  0  0  0  0
  -13.9292   14.4348  -37.7390 C   0  0  0  0  0  0  0  0  0  0  0  0
  -13.7829   15.9504  -37.4607 C   0  0  0  0  0  0  0  0  0  0  0  0
  -12.6689   14.8107  -39.8612 C   0  0  0  0  0  0  0  0  0  0  0  0
  -12.7254   13.9505  -38.5743 C   0  0  1  0  0  0  0  0  0  0  0  0
  -12.4718   16.4797  -38.0884 C   0  0  2  0  0  0  0  0  0  0  0  0
  -12.5677   16.2588  -39.5497 N   0  0  0  0  0  0  0  0  0  0  0  0
   -8.6713   13.1571  -36.2595 H   0  0  0  0  0  0  0  0  0  0  0  0
   -8.4195   15.5788  -35.8113 H   0  0  0  0  0  0  0  0  0  0  0  0
  -10.6283   12.3059  -37.5283 H   0  0  0  0  0  0  0  0  0  0  0  0
  -10.1242   17.1945  -36.6150 H   0  0  0  0  0  0  0  0  0  0  0  0
  -13.9857   13.8890  -36.7891 H   0  0  0  0  0  0  0  0  0  0  0  0
  -14.8668   14.2442  -38.2743 H   0  0  0  0  0  0  0  0  0  0  0  0
  -14.6492   16.4888  -37.8647 H   0  0  0  0  0  0  0  0  0  0  0  0
  -13.7821   16.1216  -36.3766 H   0  0  0  0  0  0  0  0  0  0  0  0
  -11.8055   14.5176  -40.4717 H   0  0  0  0  0  0  0  0  0  0  0  0
  -13.5664   14.6467  -40.4681 H   0  0  0  0  0  0  0  0  0  0  0  0
  -12.7982   12.8837  -38.8072 H   0  0  0  0  0  0  0  0  0  0  0  0
  -12.3448   17.5458  -37.8739 H   0  0  0  0  0  0  0  0  0  0  0  0
  -11.7411   16.6428  -40.0074 H   0  0  0  0  0  0  0  0  0  0  0  0
  1  2  2  0  0  0  0
  1  3  1  0  0  0  0
  2  4  1  0  0  0  0
  3  5  2  0  0  0  0
  4  6  2  0  0  0  0
  5  6  1  0  0  0  0
  5 10  1  0  0  0  0
  6 11  1  0  0  0  0
  7  8  1  0  0  0  0
  7 10  1  0  0  0  0
  8 11  1  1  0  0  0
  9 10  1  6  0  0  0
  9 12  1  0  0  0  0
 11 12  1  0  0  0  0
  1 13  1  0  0  0  0
  2 14  1  0  0  0  0
  3 15  1  0  0  0  0
  4 16  1  0  0  0  0
  7 17  1  0  0  0  0
  7 18  1  0  0  0  0
  8 19  1  0  0  0  0
  8 20  1  0  0  0  0
  9 21  1  0  0  0  0
  9 22  1  0  0  0  0
 10 23  1  0  0  0  0
 11 24  1  0  0  0  0
 12 25  1  0  0  0  0
M  END
> <id>
EN300-379540

> <smiles>
Cl.C1C[C@@H]2NC[C@H]1C=3C=CC=CC23 |&1:3,6,r|

> <MDLNUMBER>
MFCD28383800

> <IUPAC Name>
rac-(1R,8S)-9-azatricyclo[6.2.2.0,2,7]dodeca-2,4,6-triene hydrochloride

> <CAS>
2307780-50-1

> <Purity>
95

> <URL>
https://www.enaminestore.com/catalog/EN300-379540

> <Saltdate>
Cl

> <ROCS_ShapeQuery>
_x1247relevant_x1083L0AP1_x1305L0BP1_

> <ROCS_TanimotoCombo>
1.070 

> <ROCS_ShapeTanimoto>
0.497 

> <ROCS_ColorTanimoto>
0.573 

> <ROCS_RefTversky>
0.420 

> <ROCS_RefColorTversky>
0.708 

> <ROCS_RefTverskyCombo>
1.128 

> <ROCS_FitTversky>
1.589 

> <ROCS_FitColorTversky>
0.750 

> <ROCS_FitTverskyCombo>
2.339 

> <ROCS_ColorScore>
-6.825

> <ROCS_Overlap>
1033.188

> <ROCS_Rank>
63                  

$$$$
untitled-dbase-39565_0
  -OEChem-06232314403D

 25 27  0     1  0  0  0  0  0999 V2000
   -9.4261   13.8507  -36.6203 C   0  0  0  0  0  0  0  0  0  0  0  0
   -9.2838   15.2230  -36.3656 C   0  0  0  0  0  0  0  0  0  0  0  0
  -10.5258   13.3680  -37.3325 C   0  0  0  0  0  0  0  0  0  0  0  0
  -10.2398   16.1349  -36.8174 C   0  0  0  0  0  0  0  0  0  0  0  0
  -11.4743   14.2751  -37.7814 C   0  0  0  0  0  0  0  0  0  0  0  0
  -11.3334   15.6544  -37.5228 C   0  0  0  0  0  0  0  0  0  0  0  0
  -13.9292   14.4348  -37.7390 C   0  0  0  0  0  0  0  0  0  0  0  0
  -13.7829   15.9504  -37.4607 C   0  0  0  0  0  0  0  0  0  0  0  0
  -12.6689   14.8107  -39.8612 C   0  0  0  0  0  0  0  0  0  0  0  0
  -12.7254   13.9505  -38.5743 C   0  0  1  0  0  0  0  0  0  0  0  0
  -12.4718   16.4797  -38.0884 C   0  0  2  0  0  0  0  0  0  0  0  0
  -12.5677   16.2588  -39.5497 N   0  0  0  0  0  0  0  0  0  0  0  0
   -8.6713   13.1571  -36.2595 H   0  0  0  0  0  0  0  0  0  0  0  0
   -8.4195   15.5788  -35.8113 H   0  0  0  0  0  0  0  0  0  0  0  0
  -10.6283   12.3059  -37.5283 H   0  0  0  0  0  0  0  0  0  0  0  0
  -10.1242   17.1945  -36.6150 H   0  0  0  0  0  0  0  0  0  0  0  0
  -13.9857   13.8890  -36.7891 H   0  0  0  0  0  0  0  0  0  0  0  0
  -14.8668   14.2442  -38.2743 H   0  0  0  0  0  0  0  0  0  0  0  0
  -14.6492   16.4888  -37.8647 H   0  0  0  0  0  0  0  0  0  0  0  0
  -13.7821   16.1216  -36.3766 H   0  0  0  0  0  0  0  0  0  0  0  0
  -11.8055   14.5176  -40.4717 H   0  0  0  0  0  0  0  0  0  0  0  0
  -13.5664   14.6467  -40.4681 H   0  0  0  0  0  0  0  0  0  0  0  0
  -12.7982   12.8837  -38.8072 H   0  0  0  0  0  0  0  0  0  0  0  0
  -12.3448   17.5458  -37.8739 H   0  0  0  0  0  0  0  0  0  0  0  0
  -11.7411   16.6428  -40.0074 H   0  0  0  0  0  0  0  0  0  0  0  0
  1  2  2  0  0  0  0
  1  3  1  0  0  0  0
  2  4  1  0  0  0  0
  3  5  2  0  0  0  0
  4  6  2  0  0  0  0
  5  6  1  0  0  0  0
  5 10  1  0  0  0  0
  6 11  1  0  0  0  0
  7  8  1  0  0  0  0
  7 10  1  0  0  0  0
  8 11  1  1  0  0  0
  9 10  1  6  0  0  0
  9 12  1  0  0  0  0
 11 12  1  0  0  0  0
  1 13  1  0  0  0  0
  2 14  1  0  0  0  0
  3 15  1  0  0  0  0
  4 16  1  0  0  0  0
  7 17  1  0  0  0  0
  7 18  1  0  0  0  0
  8 19  1  0  0  0  0
  8 20  1  0  0  0  0
  9 21  1  0  0  0  0
  9 22  1  0  0  0  0
 10 23  1  0  0  0  0
 11 24  1  0  0  0  0
 12 25  1  0  0  0  0
M  END
> <id>
EN300-379541

> <smiles>
C1C[C@@H]2NC[C@H]1C=3C=CC=CC23 |&1:2,5,r|

> <MDLNUMBER>
MFCD30734077

> <IUPAC Name>
rac-(1R,8S)-9-azatricyclo[6.2.2.0,2,7]dodeca-2,4,6-triene

> <CAS>
1821798-06-4

> <URL>
https://www.enaminestore.com/catalog/EN300-379541

> <ROCS_ShapeQuery>
_x1247relevant_x1083L0AP1_x1305L0BP1_

> <ROCS_TanimotoCombo>
1.070 

> <ROCS_ShapeTanimoto>
0.497 

> <ROCS_ColorTanimoto>
0.573 

> <ROCS_RefTversky>
0.420 

> <ROCS_RefColorTversky>
0.708 

> <ROCS_RefTverskyCombo>
1.128 

> <ROCS_FitTversky>
1.589 

> <ROCS_FitColorTversky>
0.750 

> <ROCS_FitTverskyCombo>
2.339 

> <ROCS_ColorScore>
-6.825

> <ROCS_Overlap>
1033.188

> <ROCS_Rank>
64                  

$$$$
untitled-dbase-15087_0
  -OEChem-06232314403D

 27 30  0     1  0  0  0  0  0999 V2000
  -12.9543   16.5212  -38.1931 C   0  0  0  0  0  0  0  0  0  0  0  0
  -13.6797   14.3063  -37.6450 C   0  0  0  0  0  0  0  0  0  0  0  0
  -11.2725   15.1571  -39.2051 C   0  0  0  0  0  0  0  0  0  0  0  0
   -9.9168   13.7679  -36.2768 C   0  0  0  0  0  0  0  0  0  0  0  0
   -9.2052   15.0429  -36.6354 C   0  0  0  0  0  0  0  0  0  0  0  0
  -14.0427   13.4311  -40.1341 C   0  0  0  0  0  0  0  0  0  0  0  0
  -12.6437   15.3793  -37.2107 C   0  0  1  0  0  0  0  0  0  0  0  0
  -12.7194   15.6426  -39.4339 C   0  0  1  0  0  0  0  0  0  0  0  0
  -13.6322   14.4790  -39.1380 C   0  0  2  0  0  0  0  0  0  0  0  0
  -11.2174   14.9801  -37.6686 C   0  0  0  0  0  0  0  0  0  0  0  0
  -14.9080   14.5240  -39.7857 O   0  0  0  0  0  0  0  0  0  0  0  0
  -10.8871   13.6363  -37.3133 O   0  0  0  0  0  0  0  0  0  0  0  0
  -10.2591   15.8848  -37.0989 O   0  0  0  0  0  0  0  0  0  0  0  0
  -13.9858   16.8803  -38.1093 H   0  0  0  0  0  0  0  0  0  0  0  0
  -12.2623   17.3664  -38.1230 H   0  0  0  0  0  0  0  0  0  0  0  0
  -13.4022   13.2976  -37.3272 H   0  0  0  0  0  0  0  0  0  0  0  0
  -14.6721   14.5482  -37.2488 H   0  0  0  0  0  0  0  0  0  0  0  0
  -11.0711   14.2238  -39.7417 H   0  0  0  0  0  0  0  0  0  0  0  0
  -10.5637   15.9224  -39.5410 H   0  0  0  0  0  0  0  0  0  0  0  0
   -9.2590   12.8959  -36.2478 H   0  0  0  0  0  0  0  0  0  0  0  0
  -10.4469   13.8557  -35.3223 H   0  0  0  0  0  0  0  0  0  0  0  0
   -8.6843   15.5023  -35.7918 H   0  0  0  0  0  0  0  0  0  0  0  0
   -8.5008   14.8935  -37.4610 H   0  0  0  0  0  0  0  0  0  0  0  0
  -13.5882   13.4469  -41.1160 H   0  0  0  0  0  0  0  0  0  0  0  0
  -14.3076   12.4476  -39.7687 H   0  0  0  0  0  0  0  0  0  0  0  0
  -12.7116   15.6521  -36.1552 H   0  0  0  0  0  0  0  0  0  0  0  0
  -12.8860   16.1344  -40.3946 H   0  0  0  0  0  0  0  0  0  0  0  0
  1  7  1  0  0  0  0
  1  8  1  0  0  0  0
  2  7  1  0  0  0  0
  2  9  1  0  0  0  0
  3  8  1  0  0  0  0
  3 10  1  0  0  0  0
  4  5  1  0  0  0  0
  4 12  1  0  0  0  0
  5 13  1  0  0  0  0
  6  9  1  0  0  0  0
  6 11  1  0  0  0  0
  7 10  1  0  0  0  0
  8  9  1  0  0  0  0
  9 11  1  0  0  0  0
 10 12  1  0  0  0  0
 10 13  1  0  0  0  0
  1 14  1  0  0  0  0
  1 15  1  0  0  0  0
  2 16  1  0  0  0  0
  2 17  1  0  0  0  0
  3 18  1  0  0  0  0
  3 19  1  0  0  0  0
  4 20  1  0  0  0  0
  4 21  1  0  0  0  0
  5 22  1  0  0  0  0
  5 23  1  0  0  0  0
  6 24  1  0  0  0  0
  6 25  1  0  0  0  0
  7 26  1  0  0  0  0
  8 27  1  0  0  0  0
M  END
> <id>
EN300-37408257

> <smiles>
C1OC12CC3CC2CC43OCCO4

> <IUPAC Name>
dispiro[1,3-dioxolane-2,2'-bicyclo[2.2.1]heptane-5',2''-oxirane]

> <URL>
https://www.enaminestore.com/catalog/EN300-37408257

> <ROCS_ShapeQuery>
_x1247relevant_x1083L0AP1_x1305L0BP1_

> <ROCS_TanimotoCombo>
1.070 

> <ROCS_ShapeTanimoto>
0.548 

> <ROCS_ColorTanimoto>
0.522 

> <ROCS_RefTversky>
0.455 

> <ROCS_RefColorTversky>
0.708 

> <ROCS_RefTverskyCombo>
1.163 

> <ROCS_FitTversky>
1.586 

> <ROCS_FitColorTversky>
0.666 

> <ROCS_FitTverskyCombo>
2.252 

> <ROCS_ColorScore>
-6.863

> <ROCS_Overlap>
1122.230

> <ROCS_Rank>
65                  

$$$$
untitled-dbase-25635_0
  -OEChem-06232314403D

 33 35  0     1  0  0  0  0  0999 V2000
  -10.0953   14.2254  -38.0030 C   0  0  0  0  0  0  0  0  0  0  0  0
   -8.8158   14.2810  -37.2020 C   0  0  0  0  0  0  0  0  0  0  0  0
   -9.2212   15.0938  -35.9854 C   0  0  0  0  0  0  0  0  0  0  0  0
  -13.1519   14.3597  -39.7713 C   0  0  0  0  0  0  0  0  0  0  0  0
  -12.5162   15.7283  -39.9965 C   0  0  0  0  0  0  0  0  0  0  0  0
  -10.6992   14.7779  -35.8171 C   0  0  0  0  0  0  0  0  0  0  0  0
  -12.5555   13.9278  -37.3196 C   0  0  0  0  0  0  0  0  0  0  0  0
  -11.5330   16.2822  -37.7039 C   0  0  0  0  0  0  0  0  0  0  0  0
  -13.6320   14.3951  -38.3209 C   0  0  1  0  0  0  0  0  0  0  0  0
  -12.7171   16.4685  -38.6727 C   0  0  2  0  0  0  0  0  0  0  0  0
  -11.2932   14.8179  -37.2493 C   0  0  0  0  0  0  0  0  0  0  0  0
  -15.1509   16.2915  -38.5856 C   0  0  0  0  0  0  0  0  0  0  0  0
  -13.8792   15.8199  -38.0427 N   0  0  0  0  0  0  0  0  0  0  0  0
  -10.1370   13.7440  -39.1285 O   0  0  0  0  0  0  0  0  0  0  0  0
   -8.5306   13.2627  -36.9223 H   0  0  0  0  0  0  0  0  0  0  0  0
   -8.0173   14.7660  -37.7676 H   0  0  0  0  0  0  0  0  0  0  0  0
   -8.6361   14.8265  -35.1004 H   0  0  0  0  0  0  0  0  0  0  0  0
   -9.0758   16.1640  -36.1730 H   0  0  0  0  0  0  0  0  0  0  0  0
  -14.0036   14.2410  -40.4524 H   0  0  0  0  0  0  0  0  0  0  0  0
  -12.4654   13.5348  -39.9771 H   0  0  0  0  0  0  0  0  0  0  0  0
  -11.4652   15.6577  -40.2903 H   0  0  0  0  0  0  0  0  0  0  0  0
  -13.0446   16.2431  -40.8081 H   0  0  0  0  0  0  0  0  0  0  0  0
  -10.8028   13.7740  -35.3829 H   0  0  0  0  0  0  0  0  0  0  0  0
  -11.1900   15.4798  -35.1349 H   0  0  0  0  0  0  0  0  0  0  0  0
  -13.0297   13.9080  -36.3280 H   0  0  0  0  0  0  0  0  0  0  0  0
  -12.2800   12.8895  -37.5447 H   0  0  0  0  0  0  0  0  0  0  0  0
  -10.6289   16.6989  -38.1669 H   0  0  0  0  0  0  0  0  0  0  0  0
  -11.7365   16.9051  -36.8219 H   0  0  0  0  0  0  0  0  0  0  0  0
  -14.5265   13.7765  -38.1823 H   0  0  0  0  0  0  0  0  0  0  0  0
  -12.8675   17.5424  -38.8343 H   0  0  0  0  0  0  0  0  0  0  0  0
  -15.2791   17.3577  -38.3471 H   0  0  0  0  0  0  0  0  0  0  0  0
  -15.1558   16.1570  -39.6773 H   0  0  0  0  0  0  0  0  0  0  0  0
  -15.9755   15.7148  -38.1413 H   0  0  0  0  0  0  0  0  0  0  0  0
  1  2  1  0  0  0  0
  1 11  1  0  0  0  0
  1 14  2  0  0  0  0
  2  3  1  0  0  0  0
  3  6  1  0  0  0  0
  4  5  1  0  0  0  0
  4  9  1  0  0  0  0
  5 10  1  0  0  0  0
  6 11  1  0  0  0  0
  7  9  1  0  0  0  0
  7 11  1  0  0  0  0
  8 10  1  0  0  0  0
  8 11  1  0  0  0  0
  9 13  1  0  0  0  0
 10 13  1  0  0  0  0
 12 13  1  0  0  0  0
  2 15  1  0  0  0  0
  2 16  1  0  0  0  0
  3 17  1  0  0  0  0
  3 18  1  0  0  0  0
  4 19  1  0  0  0  0
  4 20  1  0  0  0  0
  5 21  1  0  0  0  0
  5 22  1  0  0  0  0
  6 23  1  0  0  0  0
  6 24  1  0  0  0  0
  7 25  1  0  0  0  0
  7 26  1  0  0  0  0
  8 27  1  0  0  0  0
  8 28  1  0  0  0  0
  9 29  1  0  0  0  0
 10 30  1  0  0  0  0
 12 31  1  0  0  0  0
 12 32  1  0  0  0  0
 12 33  1  0  0  0  0
M  END
> <id>
EN300-1461617

> <smiles>
CN1C2CCC1CC3(CCCC3=O)C2

> <IUPAC Name>
8-methyl-8-azaspiro[bicyclo[3.2.1]octane-3,1'-cyclopentane]-2'-one

> <CAS>
2169359-07-1

> <URL>
https://www.enaminestore.com/catalog/EN300-1461617

> <ROCS_ShapeQuery>
_x1247relevant_x1083L0AP1_x1305L0BP1_

> <ROCS_TanimotoCombo>
1.070 

> <ROCS_ShapeTanimoto>
0.526 

> <ROCS_ColorTanimoto>
0.544 

> <ROCS_RefTversky>
0.446 

> <ROCS_RefColorTversky>
0.675 

> <ROCS_RefTverskyCombo>
1.121 

> <ROCS_FitTversky>
1.519 

> <ROCS_FitColorTversky>
0.736 

> <ROCS_FitTverskyCombo>
2.255 

> <ROCS_ColorScore>
-6.492

> <ROCS_Overlap>
1099.026

> <ROCS_Rank>
66                  

$$$$
untitled-dbase-39655_0
  -OEChem-06232314403D

 32 35  0     0  0  0  0  0  0999 V2000
   -9.6054   14.9952  -37.7604 C   0  0  0  0  0  0  0  0  0  0  0  0
  -14.1618   15.5562  -39.2558 C   0  0  0  0  0  0  0  0  0  0  0  0
  -12.0527   14.2773  -39.7141 C   0  0  0  0  0  0  0  0  0  0  0  0
  -11.9391   16.7087  -39.0915 C   0  0  0  0  0  0  0  0  0  0  0  0
  -13.3775   13.8069  -37.6374 C   0  0  0  0  0  0  0  0  0  0  0  0
  -13.2667   16.2314  -37.0114 C   0  0  0  0  0  0  0  0  0  0  0  0
   -9.4868   14.1219  -36.5067 C   0  0  0  0  0  0  0  0  0  0  0  0
  -12.7489   15.6440  -39.8548 C   0  0  0  0  0  0  0  0  0  0  0  0
  -14.0802   15.1691  -37.7705 C   0  0  0  0  0  0  0  0  0  0  0  0
  -11.9546   13.8786  -38.2270 C   0  0  0  0  0  0  0  0  0  0  0  0
  -11.8465   16.3378  -37.5986 C   0  0  0  0  0  0  0  0  0  0  0  0
  -11.1417   14.9699  -37.4904 C   0  0  0  0  0  0  0  0  0  0  0  0
  -10.8055   14.6196  -36.0792 N   0  0  0  0  0  0  0  0  0  0  0  0
   -9.1367   15.9810  -37.6517 H   0  0  0  0  0  0  0  0  0  0  0  0
   -9.2479   14.5368  -38.6856 H   0  0  0  0  0  0  0  0  0  0  0  0
  -14.6755   16.5190  -39.3645 H   0  0  0  0  0  0  0  0  0  0  0  0
  -14.7557   14.8148  -39.8041 H   0  0  0  0  0  0  0  0  0  0  0  0
  -12.6153   13.5146  -40.2667 H   0  0  0  0  0  0  0  0  0  0  0  0
  -11.0556   14.3234  -40.1667 H   0  0  0  0  0  0  0  0  0  0  0  0
  -10.9358   16.7918  -39.5266 H   0  0  0  0  0  0  0  0  0  0  0  0
  -12.4168   17.6901  -39.2020 H   0  0  0  0  0  0  0  0  0  0  0  0
  -13.3466   13.5080  -36.5835 H   0  0  0  0  0  0  0  0  0  0  0  0
  -13.9568   13.0380  -38.1637 H   0  0  0  0  0  0  0  0  0  0  0  0
  -13.7698   17.2039  -37.0811 H   0  0  0  0  0  0  0  0  0  0  0  0
  -13.2238   15.9742  -35.9463 H   0  0  0  0  0  0  0  0  0  0  0  0
   -9.4644   13.0449  -36.7088 H   0  0  0  0  0  0  0  0  0  0  0  0
   -8.6617   14.3716  -35.8344 H   0  0  0  0  0  0  0  0  0  0  0  0
  -12.8127   15.9180  -40.9137 H   0  0  0  0  0  0  0  0  0  0  0  0
  -15.0899   15.1064  -37.3496 H   0  0  0  0  0  0  0  0  0  0  0  0
  -11.4746   12.8963  -38.1458 H   0  0  0  0  0  0  0  0  0  0  0  0
  -11.2869   17.1146  -37.0633 H   0  0  0  0  0  0  0  0  0  0  0  0
  -11.3995   13.9198  -35.6393 H   0  0  0  0  0  0  0  0  0  0  0  0
  1  7  1  0  0  0  0
  1 12  1  0  0  0  0
  2  8  1  0  0  0  0
  2  9  1  0  0  0  0
  3  8  1  0  0  0  0
  3 10  1  0  0  0  0
  4  8  1  0  0  0  0
  4 11  1  0  0  0  0
  5  9  1  0  0  0  0
  5 10  1  0  0  0  0
  6  9  1  0  0  0  0
  6 11  1  0  0  0  0
  7 13  1  0  0  0  0
 10 12  1  0  0  0  0
 11 12  1  0  0  0  0
 12 13  1  0  0  0  0
  1 14  1  0  0  0  0
  1 15  1  0  0  0  0
  2 16  1  0  0  0  0
  2 17  1  0  0  0  0
  3 18  1  0  0  0  0
  3 19  1  0  0  0  0
  4 20  1  0  0  0  0
  4 21  1  0  0  0  0
  5 22  1  0  0  0  0
  5 23  1  0  0  0  0
  6 24  1  0  0  0  0
  6 25  1  0  0  0  0
  7 26  1  0  0  0  0
  7 27  1  0  0  0  0
  8 28  1  0  0  0  0
  9 29  1  0  0  0  0
 10 30  1  0  0  0  0
 11 31  1  0  0  0  0
 13 32  1  0  0  0  0
M  END
> <id>
EN300-7465485

> <smiles>
C1CC2(N1)C3CC4CC(C3)CC2C4

> <MDLNUMBER>
MFCD20547659

> <IUPAC Name>
spiro[adamantane-2,2'-azetidine]

> <CAS>
59591-93-4

> <Purity>
95

> <URL>
https://www.enaminestore.com/catalog/EN300-7465485

> <ROCS_ShapeQuery>
_x1247relevant_x1083L0AP1_x1305L0BP1_

> <ROCS_TanimotoCombo>
1.069 

> <ROCS_ShapeTanimoto>
0.533 

> <ROCS_ColorTanimoto>
0.535 

> <ROCS_RefTversky>
0.446 

> <ROCS_RefColorTversky>
0.691 

> <ROCS_RefTverskyCombo>
1.137 

> <ROCS_FitTversky>
1.583 

> <ROCS_FitColorTversky>
0.704 

> <ROCS_FitTverskyCombo>
2.287 

> <ROCS_ColorScore>
-6.675

> <ROCS_Overlap>
1097.547

> <ROCS_Rank>
67                  

$$$$
untitled-dbase-9695_0
  -OEChem-06232314403D

 26 28  0     0  0  0  0  0  0999 V2000
  -10.9021   15.0035  -38.6335 C   0  0  0  0  0  0  0  0  0  0  0  0
  -12.3358   16.9487  -37.9600 C   0  0  0  0  0  0  0  0  0  0  0  0
  -12.4499   14.7999  -36.6698 C   0  0  0  0  0  0  0  0  0  0  0  0
  -12.8279   15.7035  -40.0821 C   0  0  0  0  0  0  0  0  0  0  0  0
  -12.9422   13.5506  -38.7896 C   0  0  0  0  0  0  0  0  0  0  0  0
  -14.3787   15.4997  -38.1148 C   0  0  0  0  0  0  0  0  0  0  0  0
  -11.7075   16.2076  -39.1536 C   0  0  0  0  0  0  0  0  0  0  0  0
  -11.8223   14.0456  -37.8556 C   0  0  0  0  0  0  0  0  0  0  0  0
  -13.2648   16.0028  -37.1783 C   0  0  0  0  0  0  0  0  0  0  0  0
  -13.7521   14.7525  -39.3036 C   0  0  0  0  0  0  0  0  0  0  0  0
  -15.1694   14.1176  -40.4865 Br  0  0  0  0  0  0  0  0  0  0  0  0
  -10.4356   14.4744  -39.4735 H   0  0  0  0  0  0  0  0  0  0  0  0
  -10.0890   15.3502  -37.9839 H   0  0  0  0  0  0  0  0  0  0  0  0
  -11.5472   17.3288  -37.2989 H   0  0  0  0  0  0  0  0  0  0  0  0
  -12.9008   17.8192  -38.3152 H   0  0  0  0  0  0  0  0  0  0  0  0
  -13.0974   14.1246  -36.0973 H   0  0  0  0  0  0  0  0  0  0  0  0
  -11.6635   15.1431  -35.9865 H   0  0  0  0  0  0  0  0  0  0  0  0
  -13.3928   16.5583  -40.4763 H   0  0  0  0  0  0  0  0  0  0  0  0
  -12.3876   15.1946  -40.9495 H   0  0  0  0  0  0  0  0  0  0  0  0
  -12.5045   12.9901  -39.6261 H   0  0  0  0  0  0  0  0  0  0  0  0
  -13.5899   12.8480  -38.2491 H   0  0  0  0  0  0  0  0  0  0  0  0
  -15.0607   14.8434  -37.5585 H   0  0  0  0  0  0  0  0  0  0  0  0
  -14.9797   16.3499  -38.4633 H   0  0  0  0  0  0  0  0  0  0  0  0
  -11.0465   16.8857  -39.7047 H   0  0  0  0  0  0  0  0  0  0  0  0
  -11.2427   13.1921  -37.4871 H   0  0  0  0  0  0  0  0  0  0  0  0
  -13.7072   16.5359  -36.3295 H   0  0  0  0  0  0  0  0  0  0  0  0
  1  7  1  0  0  0  0
  1  8  1  0  0  0  0
  2  7  1  0  0  0  0
  2  9  1  0  0  0  0
  3  8  1  0  0  0  0
  3  9  1  0  0  0  0
  4  7  1  0  0  0  0
  4 10  1  0  0  0  0
  5  8  1  0  0  0  0
  5 10  1  0  0  0  0
  6  9  1  0  0  0  0
  6 10  1  0  0  0  0
 10 11  1  0  0  0  0
  1 12  1  0  0  0  0
  1 13  1  0  0  0  0
  2 14  1  0  0  0  0
  2 15  1  0  0  0  0
  3 16  1  0  0  0  0
  3 17  1  0  0  0  0
  4 18  1  0  0  0  0
  4 19  1  0  0  0  0
  5 20  1  0  0  0  0
  5 21  1  0  0  0  0
  6 22  1  0  0  0  0
  6 23  1  0  0  0  0
  7 24  1  0  0  0  0
  8 25  1  0  0  0  0
  9 26  1  0  0  0  0
M  END
> <id>
EN300-16747

> <smiles>
BrC1(CC2CC3CC(C2)C1)C3

> <MDLNUMBER>
MFCD00074721

> <IUPAC Name>
1-bromoadamantane

> <CAS>
768-90-1

> <Purity>
95

> <URL>
https://www.enaminestore.com/catalog/EN300-16747

> <MP>
116-118

> <ROCS_ShapeQuery>
_x1247relevant_x1083L0AP1_x1305L0BP1_

> <ROCS_TanimotoCombo>
1.068 

> <ROCS_ShapeTanimoto>
0.444 

> <ROCS_ColorTanimoto>
0.624 

> <ROCS_RefTversky>
0.381 

> <ROCS_RefColorTversky>
0.689 

> <ROCS_RefTverskyCombo>
1.070 

> <ROCS_FitTversky>
1.605 

> <ROCS_FitColorTversky>
0.868 

> <ROCS_FitTverskyCombo>
2.474 

> <ROCS_ColorScore>
-6.586

> <ROCS_Overlap>
935.389

> <ROCS_Rank>
68                  

$$$$
untitled-dbase-12470_0
  -OEChem-06232314403D

 24 26  0     1  0  0  0  0  0999 V2000
   -9.4436   14.8189  -36.0168 C   0  0  0  0  0  0  0  0  0  0  0  0
   -9.2553   14.2682  -37.2085 C   0  0  0  0  0  0  0  0  0  0  0  0
  -10.8311   15.2479  -36.1138 C   0  0  0  0  0  0  0  0  0  0  0  0
  -13.3014   14.7662  -39.6852 C   0  0  0  0  0  0  0  0  0  0  0  0
  -12.1068   15.7322  -39.7384 C   0  0  0  0  0  0  0  0  0  0  0  0
  -13.3664   16.2034  -37.7881 C   0  0  0  0  0  0  0  0  0  0  0  0
  -12.6240   13.9649  -37.4030 C   0  0  0  0  0  0  0  0  0  0  0  0
  -13.6830   14.7638  -38.1929 C   0  0  2  0  0  0  0  0  0  0  0  0
  -11.9111   16.1116  -38.2586 C   0  0  1  0  0  0  0  0  0  0  0  0
  -11.3970   14.8887  -37.4682 C   0  0  1  0  0  0  0  0  0  0  0  0
  -11.4194   15.8148  -35.2069 O   0  0  0  0  0  0  0  0  0  0  0  0
  -10.2897   14.2457  -38.1159 O   0  0  0  0  0  0  0  0  0  0  0  0
   -8.7692   14.9300  -35.1895 H   0  0  0  0  0  0  0  0  0  0  0  0
   -8.3500   13.8133  -37.5738 H   0  0  0  0  0  0  0  0  0  0  0  0
  -14.1237   15.1518  -40.2984 H   0  0  0  0  0  0  0  0  0  0  0  0
  -13.0405   13.7686  -40.0521 H   0  0  0  0  0  0  0  0  0  0  0  0
  -11.2237   15.2753  -40.1941 H   0  0  0  0  0  0  0  0  0  0  0  0
  -12.3684   16.6171  -40.3304 H   0  0  0  0  0  0  0  0  0  0  0  0
  -13.9525   16.9452  -38.3416 H   0  0  0  0  0  0  0  0  0  0  0  0
  -13.4773   16.3845  -36.7152 H   0  0  0  0  0  0  0  0  0  0  0  0
  -12.9664   13.8211  -36.3717 H   0  0  0  0  0  0  0  0  0  0  0  0
  -12.4433   12.9807  -37.8476 H   0  0  0  0  0  0  0  0  0  0  0  0
  -14.7066   14.4346  -38.0042 H   0  0  0  0  0  0  0  0  0  0  0  0
  -11.3222   17.0213  -38.1205 H   0  0  0  0  0  0  0  0  0  0  0  0
  1  2  2  0  0  0  0
  1  3  1  0  0  0  0
  2 12  1  0  0  0  0
  3 10  1  0  0  0  0
  3 11  2  0  0  0  0
  4  5  1  0  0  0  0
  4  8  1  0  0  0  0
  5  9  1  0  0  0  0
  6  8  1  0  0  0  0
  6  9  1  0  0  0  0
  7  8  1  0  0  0  0
  7 10  1  0  0  0  0
  9 10  1  0  0  0  0
 10 12  1  0  0  0  0
  1 13  1  0  0  0  0
  2 14  1  0  0  0  0
  4 15  1  0  0  0  0
  4 16  1  0  0  0  0
  5 17  1  0  0  0  0
  5 18  1  0  0  0  0
  6 19  1  0  0  0  0
  6 20  1  0  0  0  0
  7 21  1  0  0  0  0
  7 22  1  0  0  0  0
  8 23  1  0  0  0  0
  9 24  1  0  0  0  0
M  END
> <id>
EN300-744171

> <smiles>
O=C1C=COC21CC3CCC2C3

> <IUPAC Name>
3'H-spiro[bicyclo[2.2.1]heptane-2,2'-furan]-3'-one

> <CAS>
2138401-94-0

> <URL>
https://www.enaminestore.com/catalog/EN300-744171

> <ROCS_ShapeQuery>
_x1247relevant_x1083L0AP1_x1305L0BP1_

> <ROCS_TanimotoCombo>
1.068 

> <ROCS_ShapeTanimoto>
0.509 

> <ROCS_ColorTanimoto>
0.560 

> <ROCS_RefTversky>
0.428 

> <ROCS_RefColorTversky>
0.706 

> <ROCS_RefTverskyCombo>
1.133 

> <ROCS_FitTversky>
1.596 

> <ROCS_FitColorTversky>
0.730 

> <ROCS_FitTverskyCombo>
2.326 

> <ROCS_ColorScore>
-6.809

> <ROCS_Overlap>
1052.455

> <ROCS_Rank>
69                  

$$$$
untitled-dbase-24122_0
  -OEChem-06232314403D

 25 27  0     1  0  0  0  0  0999 V2000
  -10.1922   14.4266  -36.7403 C   0  0  0  0  0  0  0  0  0  0  0  0
   -9.7857   14.7087  -38.1590 C   0  0  0  0  0  0  0  0  0  0  0  0
  -13.4125   15.5307  -37.2842 C   0  0  0  0  0  0  0  0  0  0  0  0
  -12.2982   16.5096  -39.1518 C   0  0  0  0  0  0  0  0  0  0  0  0
  -12.2192   13.6850  -38.2276 C   0  0  0  0  0  0  0  0  0  0  0  0
  -12.0270   16.0443  -37.7071 C   0  0  2  0  0  0  0  0  0  0  0  0
  -13.5026   14.5318  -38.4476 C   0  0  2  0  0  0  0  0  0  0  0  0
  -13.2942   15.4470  -39.6801 C   0  0  1  0  0  0  0  0  0  0  0  0
  -11.2420   14.7479  -37.7737 C   0  0  0  0  0  0  0  0  0  0  0  0
  -14.5334   16.0727  -40.1323 N   0  0  0  0  0  0  0  0  0  0  0  0
  -10.1074   13.4054  -36.3893 H   0  0  0  0  0  0  0  0  0  0  0  0
   -9.9588   15.1749  -35.9927 H   0  0  0  0  0  0  0  0  0  0  0  0
   -9.2804   15.6461  -38.3573 H   0  0  0  0  0  0  0  0  0  0  0  0
   -9.4347   13.8762  -38.7563 H   0  0  0  0  0  0  0  0  0  0  0  0
  -13.4060   15.0373  -36.3062 H   0  0  0  0  0  0  0  0  0  0  0  0
  -14.1849   16.3053  -37.2975 H   0  0  0  0  0  0  0  0  0  0  0  0
  -12.7353   17.5155  -39.1484 H   0  0  0  0  0  0  0  0  0  0  0  0
  -11.3903   16.5420  -39.7633 H   0  0  0  0  0  0  0  0  0  0  0  0
  -12.3828   12.9418  -37.4395 H   0  0  0  0  0  0  0  0  0  0  0  0
  -11.9004   13.1781  -39.1434 H   0  0  0  0  0  0  0  0  0  0  0  0
  -11.5982   16.8129  -37.0602 H   0  0  0  0  0  0  0  0  0  0  0  0
  -14.4116   13.9267  -38.4817 H   0  0  0  0  0  0  0  0  0  0  0  0
  -12.8603   14.8920  -40.5190 H   0  0  0  0  0  0  0  0  0  0  0  0
  -14.3166   16.6861  -40.8820 H   0  0  0  0  0  0  0  0  0  0  0  0
  -15.1512   15.3563  -40.4331 H   0  0  0  0  0  0  0  0  0  0  0  0
  1  2  1  0  0  0  0
  1  9  1  0  0  0  0
  2  9  1  0  0  0  0
  3  6  1  0  0  0  0
  3  7  1  0  0  0  0
  4  6  1  0  0  0  0
  4  8  1  0  0  0  0
  5  7  1  0  0  0  0
  5  9  1  0  0  0  0
  6  9  1  0  0  0  0
  7  8  1  0  0  0  0
  8 10  1  0  0  0  0
  1 11  1  0  0  0  0
  1 12  1  0  0  0  0
  2 13  1  0  0  0  0
  2 14  1  0  0  0  0
  3 15  1  0  0  0  0
  3 16  1  0  0  0  0
  4 17  1  0  0  0  0
  4 18  1  0  0  0  0
  5 19  1  0  0  0  0
  5 20  1  0  0  0  0
  6 21  1  0  0  0  0
  7 22  1  0  0  0  0
  8 23  1  0  0  0  0
 10 24  1  0  0  0  0
 10 25  1  0  0  0  0
M  END
> <id>
EN300-37153678

> <smiles>
Cl.NC1CC2CC1CC32CC3

> <MDLNUMBER>
MFCD34575840

> <IUPAC Name>
spiro[bicyclo[2.2.1]heptane-2,1'-cyclopropan]-5-amine hydrochloride

> <CAS>
2742657-57-2

> <Purity>
95

> <URL>
https://www.enaminestore.com/catalog/EN300-37153678

> <Saltdate>
Cl

> <ROCS_ShapeQuery>
_x1247relevant_x1083L0AP1_x1305L0BP1_

> <ROCS_TanimotoCombo>
1.068 

> <ROCS_ShapeTanimoto>
0.477 

> <ROCS_ColorTanimoto>
0.592 

> <ROCS_RefTversky>
0.395 

> <ROCS_RefColorTversky>
0.697 

> <ROCS_RefTverskyCombo>
1.092 

> <ROCS_FitTversky>
1.766 

> <ROCS_FitColorTversky>
0.797 

> <ROCS_FitTverskyCombo>
2.563 

> <ROCS_ColorScore>
-6.686

> <ROCS_Overlap>
969.940

> <ROCS_Rank>
70                  

$$$$
untitled-dbase-23192_0
  -OEChem-06232314403D

 25 27  0     1  0  0  0  0  0999 V2000
  -10.1922   14.4266  -36.7403 C   0  0  0  0  0  0  0  0  0  0  0  0
   -9.7857   14.7087  -38.1590 C   0  0  0  0  0  0  0  0  0  0  0  0
  -13.4125   15.5307  -37.2842 C   0  0  0  0  0  0  0  0  0  0  0  0
  -12.2982   16.5096  -39.1518 C   0  0  0  0  0  0  0  0  0  0  0  0
  -12.2192   13.6850  -38.2276 C   0  0  0  0  0  0  0  0  0  0  0  0
  -12.0270   16.0443  -37.7071 C   0  0  2  0  0  0  0  0  0  0  0  0
  -13.5026   14.5318  -38.4476 C   0  0  2  0  0  0  0  0  0  0  0  0
  -13.2942   15.4470  -39.6801 C   0  0  1  0  0  0  0  0  0  0  0  0
  -11.2420   14.7479  -37.7737 C   0  0  0  0  0  0  0  0  0  0  0  0
  -14.5334   16.0727  -40.1323 N   0  0  0  0  0  0  0  0  0  0  0  0
  -10.1074   13.4054  -36.3893 H   0  0  0  0  0  0  0  0  0  0  0  0
   -9.9588   15.1749  -35.9927 H   0  0  0  0  0  0  0  0  0  0  0  0
   -9.2804   15.6461  -38.3573 H   0  0  0  0  0  0  0  0  0  0  0  0
   -9.4347   13.8762  -38.7563 H   0  0  0  0  0  0  0  0  0  0  0  0
  -13.4060   15.0373  -36.3062 H   0  0  0  0  0  0  0  0  0  0  0  0
  -14.1849   16.3053  -37.2975 H   0  0  0  0  0  0  0  0  0  0  0  0
  -12.7353   17.5155  -39.1484 H   0  0  0  0  0  0  0  0  0  0  0  0
  -11.3903   16.5420  -39.7633 H   0  0  0  0  0  0  0  0  0  0  0  0
  -12.3828   12.9418  -37.4395 H   0  0  0  0  0  0  0  0  0  0  0  0
  -11.9004   13.1781  -39.1434 H   0  0  0  0  0  0  0  0  0  0  0  0
  -11.5982   16.8129  -37.0602 H   0  0  0  0  0  0  0  0  0  0  0  0
  -14.4116   13.9267  -38.4817 H   0  0  0  0  0  0  0  0  0  0  0  0
  -12.8603   14.8920  -40.5190 H   0  0  0  0  0  0  0  0  0  0  0  0
  -14.3166   16.6861  -40.8820 H   0  0  0  0  0  0  0  0  0  0  0  0
  -15.1512   15.3563  -40.4331 H   0  0  0  0  0  0  0  0  0  0  0  0
  1  2  1  0  0  0  0
  1  9  1  0  0  0  0
  2  9  1  0  0  0  0
  3  6  1  0  0  0  0
  3  7  1  0  0  0  0
  4  6  1  0  0  0  0
  4  8  1  0  0  0  0
  5  7  1  0  0  0  0
  5  9  1  0  0  0  0
  6  9  1  0  0  0  0
  7  8  1  0  0  0  0
  8 10  1  0  0  0  0
  1 11  1  0  0  0  0
  1 12  1  0  0  0  0
  2 13  1  0  0  0  0
  2 14  1  0  0  0  0
  3 15  1  0  0  0  0
  3 16  1  0  0  0  0
  4 17  1  0  0  0  0
  4 18  1  0  0  0  0
  5 19  1  0  0  0  0
  5 20  1  0  0  0  0
  6 21  1  0  0  0  0
  7 22  1  0  0  0  0
  8 23  1  0  0  0  0
 10 24  1  0  0  0  0
 10 25  1  0  0  0  0
M  END
> <id>
EN300-22878943

> <smiles>
NC1CC2CC1CC32CC3

> <MDLNUMBER>
MFCD34575382

> <IUPAC Name>
spiro[bicyclo[2.2.1]heptane-2,1'-cyclopropane]-5-amine

> <CAS>
2742657-56-1

> <URL>
https://www.enaminestore.com/catalog/EN300-22878943

> <ROCS_ShapeQuery>
_x1247relevant_x1083L0AP1_x1305L0BP1_

> <ROCS_TanimotoCombo>
1.068 

> <ROCS_ShapeTanimoto>
0.477 

> <ROCS_ColorTanimoto>
0.592 

> <ROCS_RefTversky>
0.395 

> <ROCS_RefColorTversky>
0.697 

> <ROCS_RefTverskyCombo>
1.092 

> <ROCS_FitTversky>
1.766 

> <ROCS_FitColorTversky>
0.797 

> <ROCS_FitTverskyCombo>
2.563 

> <ROCS_ColorScore>
-6.686

> <ROCS_Overlap>
969.940

> <ROCS_Rank>
71                  

$$$$
untitled-dbase-38200_0
  -OEChem-06232314403D

 28 30  0     1  0  0  0  0  0999 V2000
   -9.5858   13.7037  -36.2207 C   0  0  0  0  0  0  0  0  0  0  0  0
   -9.0783   14.9983  -36.3114 C   0  0  0  0  0  0  0  0  0  0  0  0
  -10.7667   13.3670  -36.8814 C   0  0  0  0  0  0  0  0  0  0  0  0
   -9.7473   15.9619  -37.0665 C   0  0  0  0  0  0  0  0  0  0  0  0
  -11.4435   14.3244  -37.6472 C   0  0  0  0  0  0  0  0  0  0  0  0
  -10.9313   15.6367  -37.7443 C   0  0  0  0  0  0  0  0  0  0  0  0
  -13.9151   14.5568  -37.4905 C   0  0  0  0  0  0  0  0  0  0  0  0
  -14.0455   16.0133  -37.9595 C   0  0  0  0  0  0  0  0  0  0  0  0
  -12.8940   14.7438  -39.6356 C   0  0  0  0  0  0  0  0  0  0  0  0
  -12.7595   13.9787  -38.3178 C   0  0  1  0  0  0  0  0  0  0  0  0
  -11.6531   16.6838  -38.5822 C   0  0  2  0  0  0  0  0  0  0  0  0
  -13.0263   16.1759  -39.1070 C   0  0  2  0  0  0  0  0  0  0  0  0
  -10.8285   17.0653  -39.7382 N   0  0  0  0  0  0  0  0  0  0  0  0
   -9.0641   12.9573  -35.6287 H   0  0  0  0  0  0  0  0  0  0  0  0
   -8.1607   15.2586  -35.7917 H   0  0  0  0  0  0  0  0  0  0  0  0
  -11.1592   12.3577  -36.7901 H   0  0  0  0  0  0  0  0  0  0  0  0
   -9.3396   16.9679  -37.1229 H   0  0  0  0  0  0  0  0  0  0  0  0
  -13.7550   14.4905  -36.4090 H   0  0  0  0  0  0  0  0  0  0  0  0
  -14.8445   14.0212  -37.7196 H   0  0  0  0  0  0  0  0  0  0  0  0
  -15.0628   16.1844  -38.3313 H   0  0  0  0  0  0  0  0  0  0  0  0
  -13.8747   16.7213  -37.1420 H   0  0  0  0  0  0  0  0  0  0  0  0
  -12.0406   14.6038  -40.3071 H   0  0  0  0  0  0  0  0  0  0  0  0
  -13.8035   14.4426  -40.1698 H   0  0  0  0  0  0  0  0  0  0  0  0
  -12.8542   12.8983  -38.4669 H   0  0  0  0  0  0  0  0  0  0  0  0
  -11.8188   17.5761  -37.9655 H   0  0  0  0  0  0  0  0  0  0  0  0
  -13.4249   16.8592  -39.8659 H   0  0  0  0  0  0  0  0  0  0  0  0
  -11.3222   17.7573  -40.2445 H   0  0  0  0  0  0  0  0  0  0  0  0
   -9.9714   17.4182  -39.3920 H   0  0  0  0  0  0  0  0  0  0  0  0
  1  2  2  0  0  0  0
  1  3  1  0  0  0  0
  2  4  1  0  0  0  0
  3  5  2  0  0  0  0
  4  6  2  0  0  0  0
  5  6  1  0  0  0  0
  5 10  1  0  0  0  0
  6 11  1  0  0  0  0
  7  8  1  0  0  0  0
  7 10  1  0  0  0  0
  8 12  1  0  0  0  0
  9 10  1  0  0  0  0
  9 12  1  0  0  0  0
 11 12  1  0  0  0  0
 11 13  1  0  0  0  0
  1 14  1  0  0  0  0
  2 15  1  0  0  0  0
  3 16  1  0  0  0  0
  4 17  1  0  0  0  0
  7 18  1  0  0  0  0
  7 19  1  0  0  0  0
  8 20  1  0  0  0  0
  8 21  1  0  0  0  0
  9 22  1  0  0  0  0
  9 23  1  0  0  0  0
 10 24  1  0  0  0  0
 11 25  1  0  0  0  0
 12 26  1  0  0  0  0
 13 27  1  0  0  0  0
 13 28  1  0  0  0  0
M  END
> <id>
EN300-7466302

> <smiles>
Cl.NC1C2CCC(C2)C=3C=CC=CC13

> <MDLNUMBER>
MFCD32220136

> <IUPAC Name>
tricyclo[7.2.1.0,2,7]dodeca-2,4,6-trien-8-amine hydrochloride

> <CAS>
2402831-13-2

> <Purity>
95

> <URL>
https://www.enaminestore.com/catalog/EN300-7466302

> <Saltdate>
Cl

> <ROCS_ShapeQuery>
_x1247relevant_x1083L0AP1_x1305L0BP1_

> <ROCS_TanimotoCombo>
1.068 

> <ROCS_ShapeTanimoto>
0.508 

> <ROCS_ColorTanimoto>
0.560 

> <ROCS_RefTversky>
0.431 

> <ROCS_RefColorTversky>
0.688 

> <ROCS_RefTverskyCombo>
1.119 

> <ROCS_FitTversky>
1.545 

> <ROCS_FitColorTversky>
0.751 

> <ROCS_FitTverskyCombo>
2.296 

> <ROCS_ColorScore>
-6.617

> <ROCS_Overlap>
1061.083

> <ROCS_Rank>
72                  

$$$$
untitled-dbase-38574_0
  -OEChem-06232314403D

 28 30  0     1  0  0  0  0  0999 V2000
   -9.5858   13.7037  -36.2207 C   0  0  0  0  0  0  0  0  0  0  0  0
   -9.0783   14.9983  -36.3114 C   0  0  0  0  0  0  0  0  0  0  0  0
  -10.7667   13.3670  -36.8814 C   0  0  0  0  0  0  0  0  0  0  0  0
   -9.7473   15.9619  -37.0665 C   0  0  0  0  0  0  0  0  0  0  0  0
  -11.4435   14.3244  -37.6472 C   0  0  0  0  0  0  0  0  0  0  0  0
  -10.9313   15.6367  -37.7443 C   0  0  0  0  0  0  0  0  0  0  0  0
  -13.9151   14.5568  -37.4905 C   0  0  0  0  0  0  0  0  0  0  0  0
  -14.0455   16.0133  -37.9595 C   0  0  0  0  0  0  0  0  0  0  0  0
  -12.8940   14.7438  -39.6356 C   0  0  0  0  0  0  0  0  0  0  0  0
  -12.7595   13.9787  -38.3178 C   0  0  1  0  0  0  0  0  0  0  0  0
  -11.6531   16.6838  -38.5822 C   0  0  2  0  0  0  0  0  0  0  0  0
  -13.0263   16.1759  -39.1070 C   0  0  2  0  0  0  0  0  0  0  0  0
  -10.8285   17.0653  -39.7382 N   0  0  0  0  0  0  0  0  0  0  0  0
   -9.0641   12.9573  -35.6287 H   0  0  0  0  0  0  0  0  0  0  0  0
   -8.1607   15.2586  -35.7917 H   0  0  0  0  0  0  0  0  0  0  0  0
  -11.1592   12.3577  -36.7901 H   0  0  0  0  0  0  0  0  0  0  0  0
   -9.3396   16.9679  -37.1229 H   0  0  0  0  0  0  0  0  0  0  0  0
  -13.7550   14.4905  -36.4090 H   0  0  0  0  0  0  0  0  0  0  0  0
  -14.8445   14.0212  -37.7196 H   0  0  0  0  0  0  0  0  0  0  0  0
  -15.0628   16.1844  -38.3313 H   0  0  0  0  0  0  0  0  0  0  0  0
  -13.8747   16.7213  -37.1420 H   0  0  0  0  0  0  0  0  0  0  0  0
  -12.0406   14.6038  -40.3071 H   0  0  0  0  0  0  0  0  0  0  0  0
  -13.8035   14.4426  -40.1698 H   0  0  0  0  0  0  0  0  0  0  0  0
  -12.8542   12.8983  -38.4669 H   0  0  0  0  0  0  0  0  0  0  0  0
  -11.8188   17.5761  -37.9655 H   0  0  0  0  0  0  0  0  0  0  0  0
  -13.4249   16.8592  -39.8659 H   0  0  0  0  0  0  0  0  0  0  0  0
  -11.3222   17.7573  -40.2445 H   0  0  0  0  0  0  0  0  0  0  0  0
   -9.9714   17.4182  -39.3920 H   0  0  0  0  0  0  0  0  0  0  0  0
  1  2  2  0  0  0  0
  1  3  1  0  0  0  0
  2  4  1  0  0  0  0
  3  5  2  0  0  0  0
  4  6  2  0  0  0  0
  5  6  1  0  0  0  0
  5 10  1  0  0  0  0
  6 11  1  0  0  0  0
  7  8  1  0  0  0  0
  7 10  1  0  0  0  0
  8 12  1  0  0  0  0
  9 10  1  0  0  0  0
  9 12  1  0  0  0  0
 11 12  1  0  0  0  0
 11 13  1  0  0  0  0
  1 14  1  0  0  0  0
  2 15  1  0  0  0  0
  3 16  1  0  0  0  0
  4 17  1  0  0  0  0
  7 18  1  0  0  0  0
  7 19  1  0  0  0  0
  8 20  1  0  0  0  0
  8 21  1  0  0  0  0
  9 22  1  0  0  0  0
  9 23  1  0  0  0  0
 10 24  1  0  0  0  0
 11 25  1  0  0  0  0
 12 26  1  0  0  0  0
 13 27  1  0  0  0  0
 13 28  1  0  0  0  0
M  END
> <id>
EN300-7466303

> <smiles>
NC1C2CCC(C2)C=3C=CC=CC13

> <MDLNUMBER>
MFCD32219651

> <IUPAC Name>
tricyclo[7.2.1.0,2,7]dodeca-2,4,6-trien-8-amine

> <CAS>
2402831-02-9

> <URL>
https://www.enaminestore.com/catalog/EN300-7466303

> <ROCS_ShapeQuery>
_x1247relevant_x1083L0AP1_x1305L0BP1_

> <ROCS_TanimotoCombo>
1.068 

> <ROCS_ShapeTanimoto>
0.508 

> <ROCS_ColorTanimoto>
0.560 

> <ROCS_RefTversky>
0.431 

> <ROCS_RefColorTversky>
0.688 

> <ROCS_RefTverskyCombo>
1.119 

> <ROCS_FitTversky>
1.545 

> <ROCS_FitColorTversky>
0.751 

> <ROCS_FitTverskyCombo>
2.296 

> <ROCS_ColorScore>
-6.617

> <ROCS_Overlap>
1061.083

> <ROCS_Rank>
73                  

$$$$
untitled-dbase-23953_1
  -OEChem-06232314403D

 30 32  0     1  0  0  0  0  0999 V2000
  -12.1471   14.4241  -39.6608 C   0  0  0  0  0  0  0  0  0  0  0  0
  -13.5922   14.1125  -37.6871 C   0  0  0  0  0  0  0  0  0  0  0  0
  -12.6608   15.8631  -39.8182 C   0  0  0  0  0  0  0  0  0  0  0  0
  -14.1643   15.5096  -37.9705 C   0  0  0  0  0  0  0  0  0  0  0  0
  -12.0071   16.4978  -37.5841 C   0  0  0  0  0  0  0  0  0  0  0  0
  -11.0643   14.8316  -35.9149 C   0  0  0  0  0  0  0  0  0  0  0  0
  -12.1293   14.0561  -38.1625 C   0  0  0  0  0  0  0  0  0  0  0  0
   -9.0379   14.3459  -37.4309 C   0  0  1  0  0  0  0  0  0  0  0  0
  -11.2893   15.1305  -37.4050 C   0  0  1  0  0  0  0  0  0  0  0  0
   -8.6703   13.2576  -38.4257 C   0  0  0  0  0  0  0  0  0  0  0  0
  -13.1419   16.4162  -38.5350 N   0  0  0  0  0  0  0  0  0  0  0  0
   -9.9823   15.2516  -38.0178 O   0  0  0  0  0  0  0  0  0  0  0  0
   -9.7055   13.6578  -35.9045 S   0  0  0  0  0  0  0  0  0  0  0  0
  -12.8006   13.7347  -40.2074 H   0  0  0  0  0  0  0  0  0  0  0  0
  -11.1467   14.3303  -40.0959 H   0  0  0  0  0  0  0  0  0  0  0  0
  -13.6661   13.8809  -36.6181 H   0  0  0  0  0  0  0  0  0  0  0  0
  -14.1836   13.3536  -38.2152 H   0  0  0  0  0  0  0  0  0  0  0  0
  -11.8662   16.5018  -40.2236 H   0  0  0  0  0  0  0  0  0  0  0  0
  -13.4683   15.8932  -40.5603 H   0  0  0  0  0  0  0  0  0  0  0  0
  -15.0123   15.4321  -38.6613 H   0  0  0  0  0  0  0  0  0  0  0  0
  -14.5738   15.9414  -37.0493 H   0  0  0  0  0  0  0  0  0  0  0  0
  -12.3947   16.8708  -36.6259 H   0  0  0  0  0  0  0  0  0  0  0  0
  -11.3107   17.2704  -37.9384 H   0  0  0  0  0  0  0  0  0  0  0  0
  -10.8309   15.7188  -35.3215 H   0  0  0  0  0  0  0  0  0  0  0  0
  -11.9336   14.3313  -35.4774 H   0  0  0  0  0  0  0  0  0  0  0  0
  -11.7043   13.0568  -38.0384 H   0  0  0  0  0  0  0  0  0  0  0  0
   -8.1215   14.9298  -37.1817 H   0  0  0  0  0  0  0  0  0  0  0  0
   -9.5528   12.6700  -38.6866 H   0  0  0  0  0  0  0  0  0  0  0  0
   -7.9207   12.5901  -37.9959 H   0  0  0  0  0  0  0  0  0  0  0  0
   -8.2631   13.7002  -39.3370 H   0  0  0  0  0  0  0  0  0  0  0  0
  1  3  1  0  0  0  0
  1  7  1  0  0  0  0
  2  4  1  0  0  0  0
  2  7  1  0  0  0  0
  3 11  1  0  0  0  0
  4 11  1  0  0  0  0
  5  9  1  0  0  0  0
  5 11  1  0  0  0  0
  6  9  1  6  0  0  0
  6 13  1  0  0  0  0
  7  9  1  0  0  0  0
  8 10  1  0  0  0  0
  8 12  1  0  0  0  0
  8 13  1  0  0  0  0
  9 12  1  0  0  0  0
  1 14  1  0  0  0  0
  1 15  1  0  0  0  0
  2 16  1  0  0  0  0
  2 17  1  0  0  0  0
  3 18  1  0  0  0  0
  3 19  1  0  0  0  0
  4 20  1  0  0  0  0
  4 21  1  0  0  0  0
  5 22  1  0  0  0  0
  5 23  1  0  0  0  0
  6 24  1  0  0  0  0
  6 25  1  0  0  0  0
  7 26  1  0  0  0  0
  8 27  1  0  0  0  0
 10 28  1  0  0  0  0
 10 29  1  0  0  0  0
 10 30  1  0  0  0  0
M  END
> <id>
EN300-33419389

> <smiles>
CC1O[C@@]2(CS1)CN3CCC2CC3

> <IUPAC Name>
(2R)-5'-methyl-4-azaspiro[bicyclo[2.2.2]octane-2,2'-[1,4]oxathiolane]

> <CAS>
1933761-49-9

> <URL>
https://www.enaminestore.com/catalog/EN300-33419389

> <ROCS_ShapeQuery>
_x1247relevant_x1083L0AP1_x1305L0BP1_

> <ROCS_TanimotoCombo>
1.067 

> <ROCS_ShapeTanimoto>
0.496 

> <ROCS_ColorTanimoto>
0.571 

> <ROCS_RefTversky>
0.421 

> <ROCS_RefColorTversky>
0.707 

> <ROCS_RefTverskyCombo>
1.129 

> <ROCS_FitTversky>
1.556 

> <ROCS_FitColorTversky>
0.748 

> <ROCS_FitTverskyCombo>
2.305 

> <ROCS_ColorScore>
-6.814

> <ROCS_Overlap>
1037.362

> <ROCS_Rank>
74                  

$$$$
untitled-dbase-22924_0
  -OEChem-06232314403D

 26 28  0     1  0  0  0  0  0999 V2000
   -9.6676   14.7256  -37.8032 C   0  0  0  0  0  0  0  0  0  0  0  0
  -10.2475   15.9563  -37.1167 C   0  0  0  0  0  0  0  0  0  0  0  0
  -10.6035   13.5844  -37.4235 C   0  0  0  0  0  0  0  0  0  0  0  0
  -12.1514   16.1052  -39.5398 C   0  0  0  0  0  0  0  0  0  0  0  0
  -12.3777   14.5990  -39.7345 C   0  0  0  0  0  0  0  0  0  0  0  0
  -13.8592   15.3886  -38.0666 C   0  0  0  0  0  0  0  0  0  0  0  0
  -12.6652   16.3514  -38.1119 C   0  0  1  0  0  0  0  0  0  0  0  0
  -12.9935   14.1648  -38.3944 C   0  0  2  0  0  0  0  0  0  0  0  0
  -11.7518   15.7255  -37.0322 C   0  0  1  0  0  0  0  0  0  0  0  0
  -11.9791   14.2112  -37.2279 C   0  0  2  0  0  0  0  0  0  0  0  0
   -9.6379   14.8614  -38.8876 H   0  0  0  0  0  0  0  0  0  0  0  0
   -8.6398   14.5297  -37.4807 H   0  0  0  0  0  0  0  0  0  0  0  0
   -9.8388   16.0152  -36.1001 H   0  0  0  0  0  0  0  0  0  0  0  0
   -9.9807   16.8873  -37.6253 H   0  0  0  0  0  0  0  0  0  0  0  0
  -10.5981   12.7732  -38.1574 H   0  0  0  0  0  0  0  0  0  0  0  0
  -10.2674   13.1589  -36.4695 H   0  0  0  0  0  0  0  0  0  0  0  0
  -11.1118   16.4037  -39.6902 H   0  0  0  0  0  0  0  0  0  0  0  0
  -12.7566   16.6644  -40.2637 H   0  0  0  0  0  0  0  0  0  0  0  0
  -13.0914   14.4372  -40.5515 H   0  0  0  0  0  0  0  0  0  0  0  0
  -11.4638   14.0599  -39.9934 H   0  0  0  0  0  0  0  0  0  0  0  0
  -14.3371   15.3332  -37.0826 H   0  0  0  0  0  0  0  0  0  0  0  0
  -14.6177   15.6009  -38.8281 H   0  0  0  0  0  0  0  0  0  0  0  0
  -12.9085   17.3981  -37.9163 H   0  0  0  0  0  0  0  0  0  0  0  0
  -13.5359   13.2188  -38.4562 H   0  0  0  0  0  0  0  0  0  0  0  0
  -12.1147   16.0363  -36.0438 H   0  0  0  0  0  0  0  0  0  0  0  0
  -12.4528   13.7828  -36.3348 H   0  0  0  0  0  0  0  0  0  0  0  0
  1  2  1  0  0  0  0
  1  3  1  0  0  0  0
  2  9  1  6  0  0  0
  3 10  1  6  0  0  0
  4  5  1  0  0  0  0
  4  7  1  6  0  0  0
  5  8  1  6  0  0  0
  6  7  1  0  0  0  0
  6  8  1  0  0  0  0
  7  9  1  0  0  0  0
  8 10  1  0  0  0  0
  9 10  1  0  0  0  0
  1 11  1  0  0  0  0
  1 12  1  0  0  0  0
  2 13  1  0  0  0  0
  2 14  1  0  0  0  0
  3 15  1  0  0  0  0
  3 16  1  0  0  0  0
  4 17  1  0  0  0  0
  4 18  1  0  0  0  0
  5 19  1  0  0  0  0
  5 20  1  0  0  0  0
  6 21  1  0  0  0  0
  6 22  1  0  0  0  0
  7 23  1  0  0  0  0
  8 24  1  0  0  0  0
  9 25  1  0  0  0  0
 10 26  1  0  0  0  0
M  END
> <id>
EN300-7367981

> <smiles>
C1C[C@H]2[C@H]3CC[C@H](C3)[C@H]2C1

> <MDLNUMBER>
MFCD08273765

> <IUPAC Name>
(1R,2R,6S,7S)-tricyclo[5.2.1.0,2,6]decane

> <CAS>
2825-83-4

> <Purity>
95

> <URL>
https://www.enaminestore.com/catalog/EN300-7367981

> <ROCS_ShapeQuery>
_x1247relevant_x1083L0AP1_x1305L0BP1_

> <ROCS_TanimotoCombo>
1.067 

> <ROCS_ShapeTanimoto>
0.457 

> <ROCS_ColorTanimoto>
0.610 

> <ROCS_RefTversky>
0.384 

> <ROCS_RefColorTversky>
0.677 

> <ROCS_RefTverskyCombo>
1.062 

> <ROCS_FitTversky>
1.705 

> <ROCS_FitColorTversky>
0.860 

> <ROCS_FitTverskyCombo>
2.565 

> <ROCS_ColorScore>
-6.470

> <ROCS_Overlap>
944.258

> <ROCS_Rank>
75                  

$$$$
untitled-dbase-12953_0
  -OEChem-06232314403D

 28 30  0     1  0  0  0  0  0999 V2000
   -9.1201   15.8448  -38.5392 C   0  0  0  0  0  0  0  0  0  0  0  0
  -13.3407   14.8490  -39.7015 C   0  0  0  0  0  0  0  0  0  0  0  0
  -12.3252   16.0002  -39.6783 C   0  0  0  0  0  0  0  0  0  0  0  0
   -9.2763   13.8988  -37.0512 C   0  0  0  0  0  0  0  0  0  0  0  0
  -13.4768   15.9621  -37.6048 C   0  0  0  0  0  0  0  0  0  0  0  0
  -12.3209   13.8716  -37.6340 C   0  0  0  0  0  0  0  0  0  0  0  0
   -9.7733   14.6365  -35.8220 C   0  0  0  0  0  0  0  0  0  0  0  0
   -9.9267   14.6590  -38.1924 C   0  0  1  0  0  0  0  0  0  0  0  0
  -13.5735   14.5639  -38.2083 C   0  0  2  0  0  0  0  0  0  0  0  0
  -12.0741   16.2101  -38.1750 C   0  0  1  0  0  0  0  0  0  0  0  0
  -11.2793   15.0248  -37.5754 C   0  0  1  0  0  0  0  0  0  0  0  0
   -8.4857   16.7772  -38.8120 N   0  0  0  0  0  0  0  0  0  0  0  0
  -11.0001   15.2877  -36.1816 O   0  0  0  0  0  0  0  0  0  0  0  0
  -14.2679   15.1750  -40.1865 H   0  0  0  0  0  0  0  0  0  0  0  0
  -12.9617   13.9762  -40.2424 H   0  0  0  0  0  0  0  0  0  0  0  0
  -11.4232   15.7623  -40.2476 H   0  0  0  0  0  0  0  0  0  0  0  0
  -12.7708   16.8984  -40.1216 H   0  0  0  0  0  0  0  0  0  0  0  0
   -8.1835   13.8498  -37.0932 H   0  0  0  0  0  0  0  0  0  0  0  0
   -9.6518   12.8682  -37.0307 H   0  0  0  0  0  0  0  0  0  0  0  0
  -14.2294   16.6546  -37.9968 H   0  0  0  0  0  0  0  0  0  0  0  0
  -13.5154   15.9658  -36.5108 H   0  0  0  0  0  0  0  0  0  0  0  0
  -12.5348   13.4747  -36.6346 H   0  0  0  0  0  0  0  0  0  0  0  0
  -12.0081   13.0407  -38.2750 H   0  0  0  0  0  0  0  0  0  0  0  0
   -9.9497   13.9631  -34.9782 H   0  0  0  0  0  0  0  0  0  0  0  0
   -9.0657   15.4096  -35.5051 H   0  0  0  0  0  0  0  0  0  0  0  0
  -10.0284   14.0309  -39.0838 H   0  0  0  0  0  0  0  0  0  0  0  0
  -14.5008   14.0241  -38.0066 H   0  0  0  0  0  0  0  0  0  0  0  0
  -11.6714   17.1930  -37.9184 H   0  0  0  0  0  0  0  0  0  0  0  0
  1  8  1  0  0  0  0
  1 12  3  0  0  0  0
  2  3  1  0  0  0  0
  2  9  1  0  0  0  0
  3 10  1  0  0  0  0
  4  7  1  0  0  0  0
  4  8  1  0  0  0  0
  5  9  1  0  0  0  0
  5 10  1  0  0  0  0
  6  9  1  0  0  0  0
  6 11  1  0  0  0  0
  7 13  1  0  0  0  0
  8 11  1  0  0  0  0
 10 11  1  0  0  0  0
 11 13  1  0  0  0  0
  2 14  1  0  0  0  0
  2 15  1  0  0  0  0
  3 16  1  0  0  0  0
  3 17  1  0  0  0  0
  4 18  1  0  0  0  0
  4 19  1  0  0  0  0
  5 20  1  0  0  0  0
  5 21  1  0  0  0  0
  6 22  1  0  0  0  0
  6 23  1  0  0  0  0
  7 24  1  0  0  0  0
  7 25  1  0  0  0  0
  8 26  1  0  0  0  0
  9 27  1  0  0  0  0
 10 28  1  0  0  0  0
M  END
> <id>
EN300-744258

> <smiles>
N#CC1CCOC21CC3CCC2C3

> <IUPAC Name>
spiro[bicyclo[2.2.1]heptane-2,2'-oxolane]-3'-carbonitrile

> <CAS>
2137675-51-3

> <URL>
https://www.enaminestore.com/catalog/EN300-744258

> <ROCS_ShapeQuery>
_x1247relevant_x1083L0AP1_x1305L0BP1_

> <ROCS_TanimotoCombo>
1.067 

> <ROCS_ShapeTanimoto>
0.506 

> <ROCS_ColorTanimoto>
0.561 

> <ROCS_RefTversky>
0.430 

> <ROCS_RefColorTversky>
0.707 

> <ROCS_RefTverskyCombo>
1.137 

> <ROCS_FitTversky>
1.539 

> <ROCS_FitColorTversky>
0.731 

> <ROCS_FitTverskyCombo>
2.270 

> <ROCS_ColorScore>
-6.821

> <ROCS_Overlap>
1057.831

> <ROCS_Rank>
76                  

$$$$
untitled-dbase-44300_0
  -OEChem-06232314403D

 28 30  0     1  0  0  0  0  0999 V2000
   -9.0187   14.5067  -37.0664 C   0  0  0  0  0  0  0  0  0  0  0  0
  -14.1657   14.8535  -37.8572 C   0  0  0  0  0  0  0  0  0  0  0  0
  -12.8968   15.2625  -39.9758 C   0  0  0  0  0  0  0  0  0  0  0  0
  -13.4979   16.0897  -37.2403 C   0  0  0  0  0  0  0  0  0  0  0  0
  -12.2155   16.4770  -39.3320 C   0  0  0  0  0  0  0  0  0  0  0  0
  -11.9376   13.7675  -38.2147 C   0  0  0  0  0  0  0  0  0  0  0  0
  -11.0314   14.7349  -36.0360 C   0  0  0  0  0  0  0  0  0  0  0  0
  -13.2411   14.2134  -38.9056 C   0  0  0  0  0  0  0  0  0  0  0  0
  -12.0751   16.2645  -37.8112 C   0  0  0  0  0  0  0  0  0  0  0  0
  -11.2516   14.9822  -37.5302 C   0  0  2  0  0  0  0  0  0  0  0  0
   -9.8834   15.0790  -37.9719 N   0  0  0  0  0  0  0  0  0  0  0  0
   -7.8206   14.3142  -37.2165 O   0  0  0  0  0  0  0  0  0  0  0  0
   -9.7158   14.1590  -35.9391 O   0  0  0  0  0  0  0  0  0  0  0  0
  -14.4017   14.1276  -37.0698 H   0  0  0  0  0  0  0  0  0  0  0  0
  -15.1199   15.1388  -38.3160 H   0  0  0  0  0  0  0  0  0  0  0  0
  -13.8063   15.5817  -40.4989 H   0  0  0  0  0  0  0  0  0  0  0  0
  -12.2360   14.8262  -40.7347 H   0  0  0  0  0  0  0  0  0  0  0  0
  -14.1005   16.9805  -37.4566 H   0  0  0  0  0  0  0  0  0  0  0  0
  -13.4744   15.9958  -36.1488 H   0  0  0  0  0  0  0  0  0  0  0  0
  -11.2380   16.6485  -39.7965 H   0  0  0  0  0  0  0  0  0  0  0  0
  -12.8082   17.3783  -39.5313 H   0  0  0  0  0  0  0  0  0  0  0  0
  -12.1595   12.9713  -37.4938 H   0  0  0  0  0  0  0  0  0  0  0  0
  -11.2772   13.3172  -38.9679 H   0  0  0  0  0  0  0  0  0  0  0  0
  -11.0266   15.6591  -35.4469 H   0  0  0  0  0  0  0  0  0  0  0  0
  -11.7537   14.0425  -35.5932 H   0  0  0  0  0  0  0  0  0  0  0  0
  -13.7338   13.3512  -39.3682 H   0  0  0  0  0  0  0  0  0  0  0  0
  -11.6015   17.1423  -37.3555 H   0  0  0  0  0  0  0  0  0  0  0  0
   -9.5935   15.5146  -38.8419 H   0  0  0  0  0  0  0  0  0  0  0  0
  1 11  1  0  0  0  0
  1 12  2  0  0  0  0
  1 13  1  0  0  0  0
  2  4  1  0  0  0  0
  2  8  1  0  0  0  0
  3  5  1  0  0  0  0
  3  8  1  0  0  0  0
  4  9  1  0  0  0  0
  5  9  1  0  0  0  0
  6  8  1  0  0  0  0
  6 10  1  0  0  0  0
  7 10  1  0  0  0  0
  7 13  1  0  0  0  0
  9 10  1  0  0  0  0
 10 11  1  0  0  0  0
  2 14  1  0  0  0  0
  2 15  1  0  0  0  0
  3 16  1  0  0  0  0
  3 17  1  0  0  0  0
  4 18  1  0  0  0  0
  4 19  1  0  0  0  0
  5 20  1  0  0  0  0
  5 21  1  0  0  0  0
  6 22  1  0  0  0  0
  6 23  1  0  0  0  0
  7 24  1  0  0  0  0
  7 25  1  0  0  0  0
  8 26  1  0  0  0  0
  9 27  1  0  0  0  0
 11 28  1  0  0  0  0
M  END
> <id>
EN300-3121958

> <smiles>
O=C1NC2(CO1)CC3CCC2CC3

> <MDLNUMBER>
MFCD33550692

> <IUPAC Name>
spiro[bicyclo[2.2.2]octane-2,3'-[1,4]oxazolidine]-5'-one

> <CAS>
1861408-33-4

> <Purity>
95

> <URL>
https://www.enaminestore.com/catalog/EN300-3121958

> <ROCS_ShapeQuery>
_x1247relevant_x1083L0AP1_x1305L0BP1_

> <ROCS_TanimotoCombo>
1.066 

> <ROCS_ShapeTanimoto>
0.504 

> <ROCS_ColorTanimoto>
0.563 

> <ROCS_RefTversky>
0.429 

> <ROCS_RefColorTversky>
0.697 

> <ROCS_RefTverskyCombo>
1.126 

> <ROCS_FitTversky>
1.529 

> <ROCS_FitColorTversky>
0.745 

> <ROCS_FitTverskyCombo>
2.274 

> <ROCS_ColorScore>
-6.716

> <ROCS_Overlap>
1056.479

> <ROCS_Rank>
77                  

$$$$
untitled-dbase-15481_0
  -OEChem-06232314403D

 20 21  0     1  0  0  0  0  0999 V2000
  -13.5013   15.3792  -37.3353 C   0  0  0  0  0  0  0  0  0  0  0  0
  -12.3783   16.5949  -39.0503 C   0  0  0  0  0  0  0  0  0  0  0  0
  -12.0846   13.7458  -38.3596 C   0  0  0  0  0  0  0  0  0  0  0  0
  -12.1574   16.0468  -37.6292 C   0  0  2  0  0  0  0  0  0  0  0  0
  -13.4248   14.4762  -38.5739 C   0  0  2  0  0  0  0  0  0  0  0  0
  -13.2432   15.5059  -39.7064 C   0  0  1  0  0  0  0  0  0  0  0  0
  -11.2382   14.8224  -37.6812 C   0  0  0  0  0  0  0  0  0  0  0  0
  -14.4971   16.0552  -40.0864 O   0  0  0  0  0  0  0  0  0  0  0  0
  -10.0934   15.0682  -38.3432 F   0  0  0  0  0  0  0  0  0  0  0  0
  -10.9095   14.4313  -36.4277 F   0  0  0  0  0  0  0  0  0  0  0  0
  -13.5130   14.8185  -36.3946 H   0  0  0  0  0  0  0  0  0  0  0  0
  -14.3447   16.0771  -37.3562 H   0  0  0  0  0  0  0  0  0  0  0  0
  -12.8988   17.5588  -39.0200 H   0  0  0  0  0  0  0  0  0  0  0  0
  -11.4296   16.7320  -39.5792 H   0  0  0  0  0  0  0  0  0  0  0  0
  -12.2220   12.8882  -37.6923 H   0  0  0  0  0  0  0  0  0  0  0  0
  -11.6483   13.3991  -39.3010 H   0  0  0  0  0  0  0  0  0  0  0  0
  -11.8464   16.8005  -36.9036 H   0  0  0  0  0  0  0  0  0  0  0  0
  -14.2833   13.8135  -38.7030 H   0  0  0  0  0  0  0  0  0  0  0  0
  -12.7660   15.0846  -40.5971 H   0  0  0  0  0  0  0  0  0  0  0  0
  -15.0067   15.3361  -40.4938 H   0  0  0  0  0  0  0  0  0  0  0  0
  1  4  1  0  0  0  0
  1  5  1  0  0  0  0
  2  4  1  0  0  0  0
  2  6  1  0  0  0  0
  3  5  1  0  0  0  0
  3  7  1  0  0  0  0
  4  7  1  0  0  0  0
  5  6  1  0  0  0  0
  6  8  1  0  0  0  0
  7  9  1  0  0  0  0
  7 10  1  0  0  0  0
  1 11  1  0  0  0  0
  1 12  1  0  0  0  0
  2 13  1  0  0  0  0
  2 14  1  0  0  0  0
  3 15  1  0  0  0  0
  3 16  1  0  0  0  0
  4 17  1  0  0  0  0
  5 18  1  0  0  0  0
  6 19  1  0  0  0  0
  8 20  1  0  0  0  0
M  END
> <id>
EN300-6764026

> <smiles>
OC1CC2CC1CC2(F)F

> <IUPAC Name>
5,5-difluorobicyclo[2.2.1]heptan-2-ol

> <CAS>
2770545-59-8

> <URL>
https://www.enaminestore.com/catalog/EN300-6764026

> <ROCS_ShapeQuery>
_x1247relevant_x1083L0AP1_x1305L0BP1_

> <ROCS_TanimotoCombo>
1.066 

> <ROCS_ShapeTanimoto>
0.469 

> <ROCS_ColorTanimoto>
0.597 

> <ROCS_RefTversky>
0.392 

> <ROCS_RefColorTversky>
0.701 

> <ROCS_RefTverskyCombo>
1.092 

> <ROCS_FitTversky>
1.727 

> <ROCS_FitColorTversky>
0.802 

> <ROCS_FitTverskyCombo>
2.529 

> <ROCS_ColorScore>
-6.723

> <ROCS_Overlap>
961.991

> <ROCS_Rank>
78                  

$$$$
untitled-dbase-53544_1
  -OEChem-06232314403D

 30 32  0     1  0  0  0  0  0999 V2000
  -12.2836   16.4975  -39.3208 C   0  0  0  0  0  0  0  0  0  0  0  0
  -13.5257   16.0389  -37.2367 C   0  0  0  0  0  0  0  0  0  0  0  0
  -12.8439   15.2056  -39.9346 C   0  0  0  0  0  0  0  0  0  0  0  0
  -14.1359   14.8172  -37.9389 C   0  0  0  0  0  0  0  0  0  0  0  0
  -11.9584   13.8194  -38.1702 C   0  0  0  0  0  0  0  0  0  0  0  0
   -9.8103   15.2458  -38.0913 C   0  0  0  0  0  0  0  0  0  0  0  0
  -12.1163   16.2999  -37.8054 C   0  0  0  0  0  0  0  0  0  0  0  0
   -9.9324   14.1991  -35.7360 C   0  0  2  0  0  0  0  0  0  0  0  0
  -11.2328   15.0473  -37.5435 C   0  0  1  0  0  0  0  0  0  0  0  0
  -10.2561   12.8199  -35.1860 C   0  0  0  0  0  0  0  0  0  0  0  0
  -13.1904   14.2094  -38.8984 N   0  0  0  0  0  0  0  0  0  0  0  0
  -11.1386   14.8771  -36.1113 O   0  0  0  0  0  0  0  0  0  0  0  0
   -8.8080   14.1000  -37.1400 S   0  0  0  0  0  0  0  0  0  0  0  0
  -11.3328   16.7617  -39.7921 H   0  0  0  0  0  0  0  0  0  0  0  0
  -12.9739   17.3261  -39.5152 H   0  0  0  0  0  0  0  0  0  0  0  0
  -14.1612   16.9192  -37.3978 H   0  0  0  0  0  0  0  0  0  0  0  0
  -13.4865   15.8715  -36.1539 H   0  0  0  0  0  0  0  0  0  0  0  0
  -13.7306   15.4321  -40.5407 H   0  0  0  0  0  0  0  0  0  0  0  0
  -12.1141   14.7774  -40.6334 H   0  0  0  0  0  0  0  0  0  0  0  0
  -14.4413   14.0694  -37.1965 H   0  0  0  0  0  0  0  0  0  0  0  0
  -15.0565   15.1082  -38.4595 H   0  0  0  0  0  0  0  0  0  0  0  0
  -11.3013   13.2910  -38.8722 H   0  0  0  0  0  0  0  0  0  0  0  0
  -12.2192   13.0868  -37.3964 H   0  0  0  0  0  0  0  0  0  0  0  0
   -9.7478   14.9315  -39.1383 H   0  0  0  0  0  0  0  0  0  0  0  0
   -9.4406   16.2695  -38.0156 H   0  0  0  0  0  0  0  0  0  0  0  0
  -11.7035   17.2080  -37.3447 H   0  0  0  0  0  0  0  0  0  0  0  0
   -9.4441   14.7993  -34.9328 H   0  0  0  0  0  0  0  0  0  0  0  0
  -10.7363   12.2094  -35.9536 H   0  0  0  0  0  0  0  0  0  0  0  0
  -10.9317   12.9020  -34.3320 H   0  0  0  0  0  0  0  0  0  0  0  0
   -9.3422   12.3178  -34.8615 H   0  0  0  0  0  0  0  0  0  0  0  0
  1  3  1  0  0  0  0
  1  7  1  0  0  0  0
  2  4  1  0  0  0  0
  2  7  1  0  0  0  0
  3 11  1  0  0  0  0
  4 11  1  0  0  0  0
  5  9  1  0  0  0  0
  5 11  1  0  0  0  0
  6  9  1  6  0  0  0
  6 13  1  0  0  0  0
  7  9  1  0  0  0  0
  8 10  1  6  0  0  0
  8 12  1  0  0  0  0
  8 13  1  0  0  0  0
  9 12  1  0  0  0  0
  1 14  1  0  0  0  0
  1 15  1  0  0  0  0
  2 16  1  0  0  0  0
  2 17  1  0  0  0  0
  3 18  1  0  0  0  0
  3 19  1  0  0  0  0
  4 20  1  0  0  0  0
  4 21  1  0  0  0  0
  5 22  1  0  0  0  0
  5 23  1  0  0  0  0
  6 24  1  0  0  0  0
  6 25  1  0  0  0  0
  7 26  1  0  0  0  0
  8 27  1  0  0  0  0
 10 28  1  0  0  0  0
 10 29  1  0  0  0  0
 10 30  1  0  0  0  0
M  END
> <id>
EN300-1273269

> <smiles>
Cl.C[C@@H]1O[C@@]2(CS1)CN3CC[C@H]2CC3

> <MDLNUMBER>
MFCD01961045

> <IUPAC Name>
(2R,5'R)-5'-methyl-4-azaspiro[bicyclo[2.2.2]octane-2,2'-[1,4]oxathiolane] hydrochloride

> <CAS>
1428118-48-2

> <URL>
https://www.enaminestore.com/catalog/EN300-1273269

> <Saltdate>
Cl

> <ROCS_ShapeQuery>
_x1247relevant_x1083L0AP1_x1305L0BP1_

> <ROCS_TanimotoCombo>
1.065 

> <ROCS_ShapeTanimoto>
0.500 

> <ROCS_ColorTanimoto>
0.565 

> <ROCS_RefTversky>
0.424 

> <ROCS_RefColorTversky>
0.702 

> <ROCS_RefTverskyCombo>
1.126 

> <ROCS_FitTversky>
1.564 

> <ROCS_FitColorTversky>
0.743 

> <ROCS_FitTverskyCombo>
2.308 

> <ROCS_ColorScore>
-6.769

> <ROCS_Overlap>
1042.713

> <ROCS_Rank>
79                  

$$$$
untitled-dbase-22707_1
  -OEChem-06232314403D

 30 32  0     1  0  0  0  0  0999 V2000
  -12.2836   16.4975  -39.3208 C   0  0  0  0  0  0  0  0  0  0  0  0
  -13.5257   16.0389  -37.2367 C   0  0  0  0  0  0  0  0  0  0  0  0
  -12.8439   15.2056  -39.9346 C   0  0  0  0  0  0  0  0  0  0  0  0
  -14.1359   14.8172  -37.9389 C   0  0  0  0  0  0  0  0  0  0  0  0
  -11.9584   13.8194  -38.1702 C   0  0  0  0  0  0  0  0  0  0  0  0
   -9.8103   15.2458  -38.0913 C   0  0  0  0  0  0  0  0  0  0  0  0
  -12.1163   16.2999  -37.8054 C   0  0  0  0  0  0  0  0  0  0  0  0
   -9.9324   14.1991  -35.7360 C   0  0  2  0  0  0  0  0  0  0  0  0
  -11.2328   15.0473  -37.5435 C   0  0  1  0  0  0  0  0  0  0  0  0
  -10.2561   12.8199  -35.1860 C   0  0  0  0  0  0  0  0  0  0  0  0
  -13.1904   14.2094  -38.8984 N   0  0  0  0  0  0  0  0  0  0  0  0
  -11.1386   14.8771  -36.1113 O   0  0  0  0  0  0  0  0  0  0  0  0
   -8.8080   14.1000  -37.1400 S   0  0  0  0  0  0  0  0  0  0  0  0
  -11.3328   16.7617  -39.7921 H   0  0  0  0  0  0  0  0  0  0  0  0
  -12.9739   17.3261  -39.5152 H   0  0  0  0  0  0  0  0  0  0  0  0
  -14.1612   16.9192  -37.3978 H   0  0  0  0  0  0  0  0  0  0  0  0
  -13.4865   15.8715  -36.1539 H   0  0  0  0  0  0  0  0  0  0  0  0
  -13.7306   15.4321  -40.5407 H   0  0  0  0  0  0  0  0  0  0  0  0
  -12.1141   14.7774  -40.6334 H   0  0  0  0  0  0  0  0  0  0  0  0
  -14.4413   14.0694  -37.1965 H   0  0  0  0  0  0  0  0  0  0  0  0
  -15.0565   15.1082  -38.4595 H   0  0  0  0  0  0  0  0  0  0  0  0
  -11.3013   13.2910  -38.8722 H   0  0  0  0  0  0  0  0  0  0  0  0
  -12.2192   13.0868  -37.3964 H   0  0  0  0  0  0  0  0  0  0  0  0
   -9.7478   14.9315  -39.1383 H   0  0  0  0  0  0  0  0  0  0  0  0
   -9.4406   16.2695  -38.0156 H   0  0  0  0  0  0  0  0  0  0  0  0
  -11.7035   17.2080  -37.3447 H   0  0  0  0  0  0  0  0  0  0  0  0
   -9.4441   14.7993  -34.9328 H   0  0  0  0  0  0  0  0  0  0  0  0
  -10.7363   12.2094  -35.9536 H   0  0  0  0  0  0  0  0  0  0  0  0
  -10.9317   12.9020  -34.3320 H   0  0  0  0  0  0  0  0  0  0  0  0
   -9.3422   12.3178  -34.8615 H   0  0  0  0  0  0  0  0  0  0  0  0
  1  3  1  0  0  0  0
  1  7  1  0  0  0  0
  2  4  1  0  0  0  0
  2  7  1  0  0  0  0
  3 11  1  0  0  0  0
  4 11  1  0  0  0  0
  5  9  1  0  0  0  0
  5 11  1  0  0  0  0
  6  9  1  6  0  0  0
  6 13  1  0  0  0  0
  7  9  1  0  0  0  0
  8 10  1  6  0  0  0
  8 12  1  0  0  0  0
  8 13  1  0  0  0  0
  9 12  1  0  0  0  0
  1 14  1  0  0  0  0
  1 15  1  0  0  0  0
  2 16  1  0  0  0  0
  2 17  1  0  0  0  0
  3 18  1  0  0  0  0
  3 19  1  0  0  0  0
  4 20  1  0  0  0  0
  4 21  1  0  0  0  0
  5 22  1  0  0  0  0
  5 23  1  0  0  0  0
  6 24  1  0  0  0  0
  6 25  1  0  0  0  0
  7 26  1  0  0  0  0
  8 27  1  0  0  0  0
 10 28  1  0  0  0  0
 10 29  1  0  0  0  0
 10 30  1  0  0  0  0
M  END
> <id>
EN300-6497318

> <smiles>
Cl.C[C@@H]1O[C@@]2(CS1)CN3CCC2CC3

> <MDLNUMBER>
MFCD34169197

> <IUPAC Name>
(2R,5'R)-5'-methyl-4-azaspiro[bicyclo[2.2.2]octane-2,2'-[1,4]oxathiolane] hydrochloride

> <CAS>
1428118-48-2

> <URL>
https://www.enaminestore.com/catalog/EN300-6497318

> <Saltdate>
Cl

> <ROCS_ShapeQuery>
_x1247relevant_x1083L0AP1_x1305L0BP1_

> <ROCS_TanimotoCombo>
1.065 

> <ROCS_ShapeTanimoto>
0.500 

> <ROCS_ColorTanimoto>
0.565 

> <ROCS_RefTversky>
0.424 

> <ROCS_RefColorTversky>
0.702 

> <ROCS_RefTverskyCombo>
1.126 

> <ROCS_FitTversky>
1.564 

> <ROCS_FitColorTversky>
0.743 

> <ROCS_FitTverskyCombo>
2.308 

> <ROCS_ColorScore>
-6.769

> <ROCS_Overlap>
1042.713

> <ROCS_Rank>
80                  

$$$$
untitled-dbase-15814_1
  -OEChem-06232314403D

 30 32  0     1  0  0  0  0  0999 V2000
  -12.2836   16.4975  -39.3208 C   0  0  0  0  0  0  0  0  0  0  0  0
  -13.5257   16.0389  -37.2367 C   0  0  0  0  0  0  0  0  0  0  0  0
  -12.8439   15.2056  -39.9346 C   0  0  0  0  0  0  0  0  0  0  0  0
  -14.1359   14.8172  -37.9389 C   0  0  0  0  0  0  0  0  0  0  0  0
  -11.9584   13.8194  -38.1702 C   0  0  0  0  0  0  0  0  0  0  0  0
   -9.8103   15.2458  -38.0913 C   0  0  0  0  0  0  0  0  0  0  0  0
  -12.1163   16.2999  -37.8054 C   0  0  0  0  0  0  0  0  0  0  0  0
   -9.9324   14.1991  -35.7360 C   0  0  2  0  0  0  0  0  0  0  0  0
  -11.2328   15.0473  -37.5435 C   0  0  1  0  0  0  0  0  0  0  0  0
  -10.2561   12.8199  -35.1860 C   0  0  0  0  0  0  0  0  0  0  0  0
  -13.1904   14.2094  -38.8984 N   0  0  0  0  0  0  0  0  0  0  0  0
  -11.1386   14.8771  -36.1113 O   0  0  0  0  0  0  0  0  0  0  0  0
   -8.8080   14.1000  -37.1400 S   0  0  0  0  0  0  0  0  0  0  0  0
  -11.3328   16.7617  -39.7921 H   0  0  0  0  0  0  0  0  0  0  0  0
  -12.9739   17.3261  -39.5152 H   0  0  0  0  0  0  0  0  0  0  0  0
  -14.1612   16.9192  -37.3978 H   0  0  0  0  0  0  0  0  0  0  0  0
  -13.4865   15.8715  -36.1539 H   0  0  0  0  0  0  0  0  0  0  0  0
  -13.7306   15.4321  -40.5407 H   0  0  0  0  0  0  0  0  0  0  0  0
  -12.1141   14.7774  -40.6334 H   0  0  0  0  0  0  0  0  0  0  0  0
  -14.4413   14.0694  -37.1965 H   0  0  0  0  0  0  0  0  0  0  0  0
  -15.0565   15.1082  -38.4595 H   0  0  0  0  0  0  0  0  0  0  0  0
  -11.3013   13.2910  -38.8722 H   0  0  0  0  0  0  0  0  0  0  0  0
  -12.2192   13.0868  -37.3964 H   0  0  0  0  0  0  0  0  0  0  0  0
   -9.7478   14.9315  -39.1383 H   0  0  0  0  0  0  0  0  0  0  0  0
   -9.4406   16.2695  -38.0156 H   0  0  0  0  0  0  0  0  0  0  0  0
  -11.7035   17.2080  -37.3447 H   0  0  0  0  0  0  0  0  0  0  0  0
   -9.4441   14.7993  -34.9328 H   0  0  0  0  0  0  0  0  0  0  0  0
  -10.7363   12.2094  -35.9536 H   0  0  0  0  0  0  0  0  0  0  0  0
  -10.9317   12.9020  -34.3320 H   0  0  0  0  0  0  0  0  0  0  0  0
   -9.3422   12.3178  -34.8615 H   0  0  0  0  0  0  0  0  0  0  0  0
  1  3  1  0  0  0  0
  1  7  1  0  0  0  0
  2  4  1  0  0  0  0
  2  7  1  0  0  0  0
  3 11  1  0  0  0  0
  4 11  1  0  0  0  0
  5  9  1  0  0  0  0
  5 11  1  0  0  0  0
  6  9  1  6  0  0  0
  6 13  1  0  0  0  0
  7  9  1  0  0  0  0
  8 10  1  6  0  0  0
  8 12  1  0  0  0  0
  8 13  1  0  0  0  0
  9 12  1  0  0  0  0
  1 14  1  0  0  0  0
  1 15  1  0  0  0  0
  2 16  1  0  0  0  0
  2 17  1  0  0  0  0
  3 18  1  0  0  0  0
  3 19  1  0  0  0  0
  4 20  1  0  0  0  0
  4 21  1  0  0  0  0
  5 22  1  0  0  0  0
  5 23  1  0  0  0  0
  6 24  1  0  0  0  0
  6 25  1  0  0  0  0
  7 26  1  0  0  0  0
  8 27  1  0  0  0  0
 10 28  1  0  0  0  0
 10 29  1  0  0  0  0
 10 30  1  0  0  0  0
M  END
> <id>
EN300-814007

> <smiles>
C[C@@H]1O[C@@]2(CS1)CN3CCC2CC3

> <MDLNUMBER>
MFCD30179486

> <IUPAC Name>
(2R,5'R)-5'-methyl-4-azaspiro[bicyclo[2.2.2]octane-2,2'-[1,4]oxathiolane]

> <CAS>
1035535-90-0

> <URL>
https://www.enaminestore.com/catalog/EN300-814007

> <ROCS_ShapeQuery>
_x1247relevant_x1083L0AP1_x1305L0BP1_

> <ROCS_TanimotoCombo>
1.065 

> <ROCS_ShapeTanimoto>
0.500 

> <ROCS_ColorTanimoto>
0.565 

> <ROCS_RefTversky>
0.424 

> <ROCS_RefColorTversky>
0.702 

> <ROCS_RefTverskyCombo>
1.126 

> <ROCS_FitTversky>
1.564 

> <ROCS_FitColorTversky>
0.743 

> <ROCS_FitTverskyCombo>
2.308 

> <ROCS_ColorScore>
-6.769

> <ROCS_Overlap>
1042.713

> <ROCS_Rank>
81                  

$$$$
untitled-dbase-51131_0
  -OEChem-06232314403D

 24 27  0     1  0  0  0  0  0999 V2000
  -13.8521   14.5945  -38.7055 C   0  0  0  0  0  0  0  0  0  0  0  0
  -13.9201   15.8086  -38.1200 C   0  0  0  0  0  0  0  0  0  0  0  0
  -10.2374   13.8179  -37.7256 C   0  0  0  0  0  0  0  0  0  0  0  0
  -10.3507   15.8527  -36.7467 C   0  0  0  0  0  0  0  0  0  0  0  0
  -12.0059   16.3925  -40.6650 C   0  0  0  0  0  0  0  0  0  0  0  0
  -10.6632   16.1536  -40.0134 C   0  0  0  0  0  0  0  0  0  0  0  0
  -12.3814   14.3315  -39.0279 C   0  0  2  0  0  0  0  0  0  0  0  0
  -12.4948   16.3564  -38.0519 C   0  0  1  0  0  0  0  0  0  0  0  0
  -11.7067   14.0923  -37.6463 C   0  0  2  0  0  0  0  0  0  0  0  0
  -11.7845   15.4879  -36.9740 C   0  0  1  0  0  0  0  0  0  0  0  0
  -11.9260   15.7440  -39.3104 C   0  0  0  0  0  0  0  0  0  0  0  0
   -9.7304   12.8254  -38.2258 O   0  0  0  0  0  0  0  0  0  0  0  0
   -9.9573   16.9041  -36.2648 O   0  0  0  0  0  0  0  0  0  0  0  0
   -9.5372   14.8426  -37.1637 O   0  0  0  0  0  0  0  0  0  0  0  0
  -14.6731   13.9197  -38.8869 H   0  0  0  0  0  0  0  0  0  0  0  0
  -14.8059   16.2935  -37.7428 H   0  0  0  0  0  0  0  0  0  0  0  0
  -12.3568   17.4154  -40.7256 H   0  0  0  0  0  0  0  0  0  0  0  0
  -12.2656   15.7749  -41.5158 H   0  0  0  0  0  0  0  0  0  0  0  0
  -10.0353   15.3779  -40.4337 H   0  0  0  0  0  0  0  0  0  0  0  0
  -10.1272   17.0190  -39.6443 H   0  0  0  0  0  0  0  0  0  0  0  0
  -12.1891   13.5978  -39.8117 H   0  0  0  0  0  0  0  0  0  0  0  0
  -12.4038   17.4395  -37.9604 H   0  0  0  0  0  0  0  0  0  0  0  0
  -12.1936   13.3189  -37.0425 H   0  0  0  0  0  0  0  0  0  0  0  0
  -12.3120   15.4527  -36.0148 H   0  0  0  0  0  0  0  0  0  0  0  0
  1  2  2  0  0  0  0
  1  7  1  0  0  0  0
  2  8  1  0  0  0  0
  3  9  1  0  0  0  0
  3 12  2  0  0  0  0
  3 14  1  0  0  0  0
  4 10  1  0  0  0  0
  4 13  2  0  0  0  0
  4 14  1  0  0  0  0
  5  6  1  0  0  0  0
  5 11  1  0  0  0  0
  6 11  1  0  0  0  0
  7  9  1  0  0  0  0
  7 11  1  0  0  0  0
  8 10  1  0  0  0  0
  8 11  1  0  0  0  0
  9 10  1  0  0  0  0
  1 15  1  0  0  0  0
  2 16  1  0  0  0  0
  5 17  1  0  0  0  0
  5 18  1  0  0  0  0
  6 19  1  0  0  0  0
  6 20  1  0  0  0  0
  7 21  1  0  0  0  0
  8 22  1  0  0  0  0
  9 23  1  0  0  0  0
 10 24  1  0  0  0  0
M  END
> <id>
EN300-7378107

> <smiles>
O=C1OC(=O)C2C3C=CC(C21)C43CC4

> <MDLNUMBER>
MFCD02689902

> <IUPAC Name>
4'-oxaspiro[cyclopropane-1,10'-tricyclo[5.2.1.0,2,6]decan]-8'-ene-3',5'-dione

> <CAS>
4730-93-2

> <Purity>
95

> <URL>
https://www.enaminestore.com/catalog/EN300-7378107

> <ROCS_ShapeQuery>
_x1247relevant_x1083L0AP1_x1305L0BP1_

> <ROCS_TanimotoCombo>
1.065 

> <ROCS_ShapeTanimoto>
0.533 

> <ROCS_ColorTanimoto>
0.532 

> <ROCS_RefTversky>
0.455 

> <ROCS_RefColorTversky>
0.690 

> <ROCS_RefTverskyCombo>
1.145 

> <ROCS_FitTversky>
1.471 

> <ROCS_FitColorTversky>
0.699 

> <ROCS_FitTverskyCombo>
2.169 

> <ROCS_ColorScore>
-6.664

> <ROCS_Overlap>
1123.303

> <ROCS_Rank>
82                  

$$$$
untitled-dbase-32061_0
  -OEChem-06232314403D

 27 29  0     0  0  0  0  0  0999 V2000
  -10.2714   16.0916  -36.7155 C   0  0  0  0  0  0  0  0  0  0  0  0
   -9.3113   15.1688  -36.2961 C   0  0  0  0  0  0  0  0  0  0  0  0
  -10.5105   13.3571  -37.3877 C   0  0  0  0  0  0  0  0  0  0  0  0
  -11.3462   15.6398  -37.4692 C   0  0  0  0  0  0  0  0  0  0  0  0
  -11.4655   14.2743  -37.8050 C   0  0  0  0  0  0  0  0  0  0  0  0
   -9.4299   13.8121  -36.6297 C   0  0  0  0  0  0  0  0  0  0  0  0
  -12.4886   16.3194  -39.5397 C   0  0  0  0  0  0  0  0  0  0  0  0
  -13.7908   15.9175  -37.4423 C   0  0  0  0  0  0  0  0  0  0  0  0
  -12.6195   14.8215  -39.9080 C   0  0  0  0  0  0  0  0  0  0  0  0
  -13.9216   14.4196  -37.8105 C   0  0  0  0  0  0  0  0  0  0  0  0
  -12.4750   16.4983  -38.0056 C   0  0  0  0  0  0  0  0  0  0  0  0
  -12.6971   13.9569  -38.6304 C   0  0  0  0  0  0  0  0  0  0  0  0
   -8.4808   12.9299  -36.2082 O   0  0  0  0  0  0  0  0  0  0  0  0
  -10.1730   17.1398  -36.4528 H   0  0  0  0  0  0  0  0  0  0  0  0
   -8.4651   15.5110  -35.7055 H   0  0  0  0  0  0  0  0  0  0  0  0
  -10.6012   12.3061  -37.6441 H   0  0  0  0  0  0  0  0  0  0  0  0
  -11.5665   16.7211  -39.9783 H   0  0  0  0  0  0  0  0  0  0  0  0
  -13.3201   16.8826  -39.9802 H   0  0  0  0  0  0  0  0  0  0  0  0
  -14.6503   16.4720  -37.8373 H   0  0  0  0  0  0  0  0  0  0  0  0
  -13.8188   16.0262  -36.3507 H   0  0  0  0  0  0  0  0  0  0  0  0
  -13.5131   14.6680  -40.5246 H   0  0  0  0  0  0  0  0  0  0  0  0
  -11.7584   14.5222  -40.5191 H   0  0  0  0  0  0  0  0  0  0  0  0
  -14.0106   13.8271  -36.8910 H   0  0  0  0  0  0  0  0  0  0  0  0
  -14.8437   14.2574  -38.3817 H   0  0  0  0  0  0  0  0  0  0  0  0
  -12.3550   17.5506  -37.7294 H   0  0  0  0  0  0  0  0  0  0  0  0
  -12.7624   12.8920  -38.8750 H   0  0  0  0  0  0  0  0  0  0  0  0
   -7.7988   13.3913  -35.6956 H   0  0  0  0  0  0  0  0  0  0  0  0
  1  2  1  0  0  0  0
  1  4  2  0  0  0  0
  2  6  2  0  0  0  0
  3  5  2  0  0  0  0
  3  6  1  0  0  0  0
  4  5  1  0  0  0  0
  4 11  1  0  0  0  0
  5 12  1  0  0  0  0
  6 13  1  0  0  0  0
  7  9  1  0  0  0  0
  7 11  1  0  0  0  0
  8 10  1  0  0  0  0
  8 11  1  0  0  0  0
  9 12  1  0  0  0  0
 10 12  1  0  0  0  0
  1 14  1  0  0  0  0
  2 15  1  0  0  0  0
  3 16  1  0  0  0  0
  7 17  1  0  0  0  0
  7 18  1  0  0  0  0
  8 19  1  0  0  0  0
  8 20  1  0  0  0  0
  9 21  1  0  0  0  0
  9 22  1  0  0  0  0
 10 23  1  0  0  0  0
 10 24  1  0  0  0  0
 11 25  1  0  0  0  0
 12 26  1  0  0  0  0
 13 27  1  0  0  0  0
M  END
> <id>
EN300-8236539

> <smiles>
OC=1C=CC=2C3CCC(CC3)C2C1

> <MDLNUMBER>
MFCD24717362

> <IUPAC Name>
tricyclo[6.2.2.0,2,7]dodeca-2,4,6-trien-4-ol

> <CAS>
52960-98-2

> <Purity>
95

> <URL>
https://www.enaminestore.com/catalog/EN300-8236539

> <MP>
146-147

> <ROCS_ShapeQuery>
_x1247relevant_x1083L0AP1_x1305L0BP1_

> <ROCS_TanimotoCombo>
1.064 

> <ROCS_ShapeTanimoto>
0.496 

> <ROCS_ColorTanimoto>
0.569 

> <ROCS_RefTversky>
0.424 

> <ROCS_RefColorTversky>
0.704 

> <ROCS_RefTverskyCombo>
1.129 

> <ROCS_FitTversky>
1.515 

> <ROCS_FitColorTversky>
0.747 

> <ROCS_FitTverskyCombo>
2.262 

> <ROCS_ColorScore>
-6.785

> <ROCS_Overlap>
1045.085

> <ROCS_Rank>
83                  

$$$$
untitled-dbase-38284_0
  -OEChem-06232314403D

 24 27  0     1  0  0  0  0  0999 V2000
  -12.2980   14.6423  -39.6389 C   0  0  0  0  0  0  0  0  0  0  0  0
  -12.0746   15.9538  -39.4947 C   0  0  0  0  0  0  0  0  0  0  0  0
  -10.7514   13.3258  -37.4330 C   0  0  0  0  0  0  0  0  0  0  0  0
  -10.2631   16.1955  -37.1172 C   0  0  0  0  0  0  0  0  0  0  0  0
  -11.9793   14.1983  -37.2117 C   0  0  1  0  0  0  0  0  0  0  0  0
  -11.7159   15.7462  -37.0414 C   0  0  2  0  0  0  0  0  0  0  0  0
   -9.5201   13.7738  -36.7654 C   0  0  2  0  0  0  0  0  0  0  0  0
   -9.2707   15.2394  -36.6043 C   0  0  1  0  0  0  0  0  0  0  0  0
  -13.0147   14.1637  -38.3901 C   0  0  1  0  0  0  0  0  0  0  0  0
  -12.6398   16.3655  -38.1481 C   0  0  2  0  0  0  0  0  0  0  0  0
  -13.8854   15.4266  -38.1043 C   0  0  0  0  0  0  0  0  0  0  0  0
  -10.7620   12.2631  -38.0414 O   0  0  0  0  0  0  0  0  0  0  0  0
   -9.9040   17.3067  -37.4860 O   0  0  0  0  0  0  0  0  0  0  0  0
   -8.6219   14.4793  -37.6337 O   0  0  0  0  0  0  0  0  0  0  0  0
  -11.8651   13.6484  -40.9394 Cl  0  0  0  0  0  0  0  0  0  0  0  0
  -11.2932   17.0020  -40.5704 Cl  0  0  0  0  0  0  0  0  0  0  0  0
  -13.9257   12.6709  -38.5245 Cl  0  0  0  0  0  0  0  0  0  0  0  0
  -13.0071   18.0668  -37.9318 Cl  0  0  0  0  0  0  0  0  0  0  0  0
  -14.7514   15.4015  -36.5337 Cl  0  0  0  0  0  0  0  0  0  0  0  0
  -15.1289   15.7768  -39.3648 Cl  0  0  0  0  0  0  0  0  0  0  0  0
  -12.4409   13.8227  -36.2882 H   0  0  0  0  0  0  0  0  0  0  0  0
  -12.0615   16.0468  -36.0429 H   0  0  0  0  0  0  0  0  0  0  0  0
   -9.0840   13.0992  -36.0395 H   0  0  0  0  0  0  0  0  0  0  0  0
   -8.6633   15.5645  -35.7690 H   0  0  0  0  0  0  0  0  0  0  0  0
  1  2  2  0  0  0  0
  1  9  1  0  0  0  0
  1 15  1  0  0  0  0
  2 10  1  0  0  0  0
  2 16  1  0  0  0  0
  3  5  1  0  0  0  0
  3  7  1  0  0  0  0
  3 12  2  0  0  0  0
  4  6  1  0  0  0  0
  4  8  1  0  0  0  0
  4 13  2  0  0  0  0
  5  6  1  0  0  0  0
  5  9  1  0  0  0  0
  6 10  1  0  0  0  0
  7  8  1  0  0  0  0
  7 14  1  0  0  0  0
  8 14  1  0  0  0  0
  9 11  1  0  0  0  0
  9 17  1  0  0  0  0
 10 11  1  0  0  0  0
 10 18  1  0  0  0  0
 11 19  1  0  0  0  0
 11 20  1  0  0  0  0
  5 21  1  0  0  0  0
  6 22  1  0  0  0  0
  7 23  1  0  0  0  0
  8 24  1  0  0  0  0
M  END
> <id>
EN300-54545

> <smiles>
ClC1=C(Cl)C2(Cl)C3C(C(=O)C4OC4C3=O)C1(Cl)C2(Cl)Cl

> <MDLNUMBER>
MFCD19442662

> <IUPAC Name>
1,9,10,11,12,12-hexachloro-5-oxatetracyclo[7.2.1.0^{2,8}.0^{4,6}]dodec-10-ene-3,7-dione

> <CAS>
38667-80-0

> <Purity>
95

> <URL>
https://www.enaminestore.com/catalog/EN300-54545

> <ROCS_ShapeQuery>
_x1247relevant_x1083L0AP1_x1305L0BP1_

> <ROCS_TanimotoCombo>
1.064 

> <ROCS_ShapeTanimoto>
0.556 

> <ROCS_ColorTanimoto>
0.508 

> <ROCS_RefTversky>
0.496 

> <ROCS_RefColorTversky>
0.783 

> <ROCS_RefTverskyCombo>
1.279 

> <ROCS_FitTversky>
1.279 

> <ROCS_FitColorTversky>
0.591 

> <ROCS_FitTverskyCombo>
1.870 

> <ROCS_ColorScore>
-7.704

> <ROCS_Overlap>
1229.175

> <ROCS_Rank>
84                  

$$$$
untitled-dbase-28285_0
  -OEChem-06232314403D

 24 25  0     1  0  0  0  0  0999 V2000
  -15.4394   14.0453  -40.7149 C   0  0  0  0  0  0  0  0  0  0  0  0
  -14.3582   14.3518  -40.2926 C   0  0  0  0  0  0  0  0  0  0  0  0
  -13.2910   15.0925  -36.8403 C   0  0  0  0  0  0  0  0  0  0  0  0
  -11.0121   15.4609  -37.8018 C   0  0  0  0  0  0  0  0  0  0  0  0
  -13.8722   16.1168  -37.8237 C   0  0  0  0  0  0  0  0  0  0  0  0
  -11.5984   16.5052  -38.7628 C   0  0  0  0  0  0  0  0  0  0  0  0
  -12.5108   13.6933  -38.7564 C   0  0  0  0  0  0  0  0  0  0  0  0
  -13.0316   14.7284  -39.7745 C   0  0  2  0  0  0  0  0  0  0  0  0
  -12.0682   14.3960  -37.4589 C   0  0  0  0  0  0  0  0  0  0  0  0
  -13.0490   16.1345  -39.1278 C   0  0  0  0  0  0  0  0  0  0  0  0
  -16.3985   13.7733  -41.0895 H   0  0  0  0  0  0  0  0  0  0  0  0
  -13.0085   15.5937  -35.9066 H   0  0  0  0  0  0  0  0  0  0  0  0
  -14.0572   14.3526  -36.5793 H   0  0  0  0  0  0  0  0  0  0  0  0
  -10.1347   14.9879  -38.2587 H   0  0  0  0  0  0  0  0  0  0  0  0
  -10.6616   15.9552  -36.8878 H   0  0  0  0  0  0  0  0  0  0  0  0
  -14.9231   15.8822  -38.0293 H   0  0  0  0  0  0  0  0  0  0  0  0
  -13.8659   17.1127  -37.3632 H   0  0  0  0  0  0  0  0  0  0  0  0
  -11.5671   17.4977  -38.2969 H   0  0  0  0  0  0  0  0  0  0  0  0
  -10.9809   16.5663  -39.6669 H   0  0  0  0  0  0  0  0  0  0  0  0
  -13.2675   12.9327  -38.5243 H   0  0  0  0  0  0  0  0  0  0  0  0
  -11.6582   13.1553  -39.1905 H   0  0  0  0  0  0  0  0  0  0  0  0
  -12.3435   14.7467  -40.6305 H   0  0  0  0  0  0  0  0  0  0  0  0
  -11.6539   13.6645  -36.7567 H   0  0  0  0  0  0  0  0  0  0  0  0
  -13.4619   16.8784  -39.8193 H   0  0  0  0  0  0  0  0  0  0  0  0
  1  2  3  0  0  0  0
  2  8  1  0  0  0  0
  3  5  1  0  0  0  0
  3  9  1  0  0  0  0
  4  6  1  0  0  0  0
  4  9  1  0  0  0  0
  5 10  1  0  0  0  0
  6 10  1  0  0  0  0
  7  8  1  0  0  0  0
  7  9  1  0  0  0  0
  8 10  1  0  0  0  0
  1 11  1  0  0  0  0
  3 12  1  0  0  0  0
  3 13  1  0  0  0  0
  4 14  1  0  0  0  0
  4 15  1  0  0  0  0
  5 16  1  0  0  0  0
  5 17  1  0  0  0  0
  6 18  1  0  0  0  0
  6 19  1  0  0  0  0
  7 20  1  0  0  0  0
  7 21  1  0  0  0  0
  8 22  1  0  0  0  0
  9 23  1  0  0  0  0
 10 24  1  0  0  0  0
M  END
> <id>
EN300-1067391

> <smiles>
C#CC1CC2CCC1CC2

> <MDLNUMBER>
MFCD31664980

> <IUPAC Name>
2-ethynylbicyclo[2.2.2]octane

> <CAS>
2110251-51-7

> <Purity>
95

> <URL>
https://www.enaminestore.com/catalog/EN300-1067391

> <ROCS_ShapeQuery>
_x1247relevant_x1083L0AP1_x1305L0BP1_

> <ROCS_TanimotoCombo>
1.064 

> <ROCS_ShapeTanimoto>
0.417 

> <ROCS_ColorTanimoto>
0.647 

> <ROCS_RefTversky>
0.358 

> <ROCS_RefColorTversky>
0.686 

> <ROCS_RefTverskyCombo>
1.044 

> <ROCS_FitTversky>
1.649 

> <ROCS_FitColorTversky>
0.919 

> <ROCS_FitTverskyCombo>
2.568 

> <ROCS_ColorScore>
-6.542

> <ROCS_Overlap>
878.852

> <ROCS_Rank>
85                  

$$$$
untitled-dbase-35010_0
  -OEChem-06232314403D

 28 30  0     1  0  0  0  0  0999 V2000
  -13.2928   14.7854  -39.7111 C   0  0  0  0  0  0  0  0  0  0  0  0
  -12.2922   15.9492  -39.7039 C   0  0  0  0  0  0  0  0  0  0  0  0
  -10.8637   15.3804  -36.0990 C   0  0  0  0  0  0  0  0  0  0  0  0
  -13.5062   15.9954  -37.6716 C   0  0  0  0  0  0  0  0  0  0  0  0
  -12.3553   13.9046  -37.5611 C   0  0  0  0  0  0  0  0  0  0  0  0
   -9.6374   14.5032  -35.8627 C   0  0  0  0  0  0  0  0  0  0  0  0
   -9.9795   14.6799  -38.1751 C   0  0  0  0  0  0  0  0  0  0  0  0
  -13.5827   14.5701  -38.2158 C   0  0  2  0  0  0  0  0  0  0  0  0
  -12.0864   16.2197  -38.2020 C   0  0  1  0  0  0  0  0  0  0  0  0
  -11.3103   15.0580  -37.5331 C   0  0  2  0  0  0  0  0  0  0  0  0
   -9.3368   13.8659  -37.1445 N   0  0  0  0  0  0  0  0  0  0  0  0
  -14.2028   15.0753  -40.2481 H   0  0  0  0  0  0  0  0  0  0  0  0
  -12.8822   13.8923  -40.1925 H   0  0  0  0  0  0  0  0  0  0  0  0
  -11.3690   15.7090  -40.2373 H   0  0  0  0  0  0  0  0  0  0  0  0
  -12.7372   16.8244  -40.1922 H   0  0  0  0  0  0  0  0  0  0  0  0
  -11.6403   15.1990  -35.3488 H   0  0  0  0  0  0  0  0  0  0  0  0
  -10.5693   16.4345  -36.0192 H   0  0  0  0  0  0  0  0  0  0  0  0
  -14.2456   16.6675  -38.1202 H   0  0  0  0  0  0  0  0  0  0  0  0
  -13.5841   16.0482  -36.5812 H   0  0  0  0  0  0  0  0  0  0  0  0
  -12.6126   13.5626  -36.5521 H   0  0  0  0  0  0  0  0  0  0  0  0
  -12.0221   13.0336  -38.1354 H   0  0  0  0  0  0  0  0  0  0  0  0
   -8.7934   15.1127  -35.5207 H   0  0  0  0  0  0  0  0  0  0  0  0
   -9.8342   13.7390  -35.1043 H   0  0  0  0  0  0  0  0  0  0  0  0
  -10.0918   14.1051  -39.0990 H   0  0  0  0  0  0  0  0  0  0  0  0
   -9.3746   15.5695  -38.3895 H   0  0  0  0  0  0  0  0  0  0  0  0
  -14.5184   14.0408  -38.0248 H   0  0  0  0  0  0  0  0  0  0  0  0
  -11.6734   17.2106  -37.9990 H   0  0  0  0  0  0  0  0  0  0  0  0
   -8.3318   13.8086  -37.2977 H   0  0  0  0  0  0  0  0  0  0  0  0
  1  2  1  0  0  0  0
  1  8  1  0  0  0  0
  2  9  1  0  0  0  0
  3  6  1  0  0  0  0
  3 10  1  0  0  0  0
  4  8  1  0  0  0  0
  4  9  1  0  0  0  0
  5  8  1  0  0  0  0
  5 10  1  0  0  0  0
  6 11  1  0  0  0  0
  7 10  1  0  0  0  0
  7 11  1  0  0  0  0
  9 10  1  0  0  0  0
  1 12  1  0  0  0  0
  1 13  1  0  0  0  0
  2 14  1  0  0  0  0
  2 15  1  0  0  0  0
  3 16  1  0  0  0  0
  3 17  1  0  0  0  0
  4 18  1  0  0  0  0
  4 19  1  0  0  0  0
  5 20  1  0  0  0  0
  5 21  1  0  0  0  0
  6 22  1  0  0  0  0
  6 23  1  0  0  0  0
  7 24  1  0  0  0  0
  7 25  1  0  0  0  0
  8 26  1  0  0  0  0
  9 27  1  0  0  0  0
 11 28  1  0  0  0  0
M  END
> <id>
EN300-1197956

> <smiles>
C1CC2(CN1)CC3CCC2C3

> <MDLNUMBER>
MFCD20662840

> <IUPAC Name>
spiro[bicyclo[2.2.1]heptane-2,3'-pyrrolidine]

> <CAS>
172-62-3

> <URL>
https://www.enaminestore.com/catalog/EN300-1197956

> <ROCS_ShapeQuery>
_x1247relevant_x1083L0AP1_x1305L0BP1_

> <ROCS_TanimotoCombo>
1.064 

> <ROCS_ShapeTanimoto>
0.502 

> <ROCS_ColorTanimoto>
0.562 

> <ROCS_RefTversky>
0.415 

> <ROCS_RefColorTversky>
0.707 

> <ROCS_RefTverskyCombo>
1.123 

> <ROCS_FitTversky>
1.710 

> <ROCS_FitColorTversky>
0.732 

> <ROCS_FitTverskyCombo>
2.442 

> <ROCS_ColorScore>
-6.824

> <ROCS_Overlap>
1021.177

> <ROCS_Rank>
86                  

$$$$
untitled-dbase-43228_0
  -OEChem-06232314403D

 28 30  0     1  0  0  0  0  0999 V2000
  -13.2928   14.7854  -39.7111 C   0  0  0  0  0  0  0  0  0  0  0  0
  -12.2922   15.9492  -39.7039 C   0  0  0  0  0  0  0  0  0  0  0  0
  -10.8637   15.3804  -36.0990 C   0  0  0  0  0  0  0  0  0  0  0  0
  -13.5062   15.9954  -37.6716 C   0  0  0  0  0  0  0  0  0  0  0  0
  -12.3553   13.9046  -37.5611 C   0  0  0  0  0  0  0  0  0  0  0  0
   -9.6374   14.5032  -35.8627 C   0  0  0  0  0  0  0  0  0  0  0  0
   -9.9795   14.6799  -38.1751 C   0  0  0  0  0  0  0  0  0  0  0  0
  -13.5827   14.5701  -38.2158 C   0  0  2  0  0  0  0  0  0  0  0  0
  -12.0864   16.2197  -38.2020 C   0  0  1  0  0  0  0  0  0  0  0  0
  -11.3103   15.0580  -37.5331 C   0  0  2  0  0  0  0  0  0  0  0  0
   -9.3368   13.8659  -37.1445 N   0  0  0  0  0  0  0  0  0  0  0  0
  -14.2028   15.0753  -40.2481 H   0  0  0  0  0  0  0  0  0  0  0  0
  -12.8822   13.8923  -40.1925 H   0  0  0  0  0  0  0  0  0  0  0  0
  -11.3690   15.7090  -40.2373 H   0  0  0  0  0  0  0  0  0  0  0  0
  -12.7372   16.8244  -40.1922 H   0  0  0  0  0  0  0  0  0  0  0  0
  -11.6403   15.1990  -35.3488 H   0  0  0  0  0  0  0  0  0  0  0  0
  -10.5693   16.4345  -36.0192 H   0  0  0  0  0  0  0  0  0  0  0  0
  -14.2456   16.6675  -38.1202 H   0  0  0  0  0  0  0  0  0  0  0  0
  -13.5841   16.0482  -36.5812 H   0  0  0  0  0  0  0  0  0  0  0  0
  -12.6126   13.5626  -36.5521 H   0  0  0  0  0  0  0  0  0  0  0  0
  -12.0221   13.0336  -38.1354 H   0  0  0  0  0  0  0  0  0  0  0  0
   -8.7934   15.1127  -35.5207 H   0  0  0  0  0  0  0  0  0  0  0  0
   -9.8342   13.7390  -35.1043 H   0  0  0  0  0  0  0  0  0  0  0  0
  -10.0918   14.1051  -39.0990 H   0  0  0  0  0  0  0  0  0  0  0  0
   -9.3746   15.5695  -38.3895 H   0  0  0  0  0  0  0  0  0  0  0  0
  -14.5184   14.0408  -38.0248 H   0  0  0  0  0  0  0  0  0  0  0  0
  -11.6734   17.2106  -37.9990 H   0  0  0  0  0  0  0  0  0  0  0  0
   -8.3318   13.8086  -37.2977 H   0  0  0  0  0  0  0  0  0  0  0  0
  1  2  1  0  0  0  0
  1  8  1  0  0  0  0
  2  9  1  0  0  0  0
  3  6  1  0  0  0  0
  3 10  1  0  0  0  0
  4  8  1  0  0  0  0
  4  9  1  0  0  0  0
  5  8  1  0  0  0  0
  5 10  1  0  0  0  0
  6 11  1  0  0  0  0
  7 10  1  0  0  0  0
  7 11  1  0  0  0  0
  9 10  1  0  0  0  0
  1 12  1  0  0  0  0
  1 13  1  0  0  0  0
  2 14  1  0  0  0  0
  2 15  1  0  0  0  0
  3 16  1  0  0  0  0
  3 17  1  0  0  0  0
  4 18  1  0  0  0  0
  4 19  1  0  0  0  0
  5 20  1  0  0  0  0
  5 21  1  0  0  0  0
  6 22  1  0  0  0  0
  6 23  1  0  0  0  0
  7 24  1  0  0  0  0
  7 25  1  0  0  0  0
  8 26  1  0  0  0  0
  9 27  1  0  0  0  0
 11 28  1  0  0  0  0
M  END
> <id>
EN300-27735024

> <smiles>
Cl.C1CC2(CN1)CC3CCC2C3

> <MDLNUMBER>
MFCD33032078

> <IUPAC Name>
spiro[bicyclo[2.2.1]heptane-2,3'-pyrrolidine] hydrochloride

> <CAS>
2613388-29-5

> <Purity>
95

> <URL>
https://www.enaminestore.com/catalog/EN300-27735024

> <ROCS_ShapeQuery>
_x1247relevant_x1083L0AP1_x1305L0BP1_

> <ROCS_TanimotoCombo>
1.064 

> <ROCS_ShapeTanimoto>
0.502 

> <ROCS_ColorTanimoto>
0.562 

> <ROCS_RefTversky>
0.415 

> <ROCS_RefColorTversky>
0.707 

> <ROCS_RefTverskyCombo>
1.123 

> <ROCS_FitTversky>
1.710 

> <ROCS_FitColorTversky>
0.732 

> <ROCS_FitTverskyCombo>
2.442 

> <ROCS_ColorScore>
-6.824

> <ROCS_Overlap>
1021.177

> <ROCS_Rank>
87                  

$$$$
untitled-dbase-40338_0
  -OEChem-06232314403D

 28 30  0     1  0  0  0  0  0999 V2000
   -9.1827   13.9899  -37.1267 C   0  0  0  0  0  0  0  0  0  0  0  0
  -13.2991   14.8114  -39.7146 C   0  0  0  0  0  0  0  0  0  0  0  0
  -12.3065   15.9818  -39.6885 C   0  0  0  0  0  0  0  0  0  0  0  0
   -9.9618   14.7261  -38.2064 C   0  0  0  0  0  0  0  0  0  0  0  0
  -13.5070   15.9738  -37.6466 C   0  0  0  0  0  0  0  0  0  0  0  0
  -12.3312   13.8912  -37.5968 C   0  0  0  0  0  0  0  0  0  0  0  0
   -9.8470   14.3862  -35.8168 C   0  0  0  0  0  0  0  0  0  0  0  0
  -13.5728   14.5594  -38.2225 C   0  0  2  0  0  0  0  0  0  0  0  0
  -12.0914   16.2210  -38.1816 C   0  0  1  0  0  0  0  0  0  0  0  0
  -11.2972   15.0502  -37.5499 C   0  0  2  0  0  0  0  0  0  0  0  0
  -10.8806   15.3569  -36.1733 N   0  0  0  0  0  0  0  0  0  0  0  0
   -9.2536   12.9063  -37.2744 H   0  0  0  0  0  0  0  0  0  0  0  0
   -8.1235   14.2656  -37.1513 H   0  0  0  0  0  0  0  0  0  0  0  0
  -14.2161   15.1069  -40.2367 H   0  0  0  0  0  0  0  0  0  0  0  0
  -12.8869   13.9326  -40.2207 H   0  0  0  0  0  0  0  0  0  0  0  0
  -11.3857   15.7584  -40.2336 H   0  0  0  0  0  0  0  0  0  0  0  0
  -12.7606   16.8645  -40.1543 H   0  0  0  0  0  0  0  0  0  0  0  0
   -9.4282   15.6475  -38.4735 H   0  0  0  0  0  0  0  0  0  0  0  0
  -10.0532   14.1179  -39.1120 H   0  0  0  0  0  0  0  0  0  0  0  0
  -14.2543   16.6490  -38.0775 H   0  0  0  0  0  0  0  0  0  0  0  0
  -13.5826   16.0016  -36.5554 H   0  0  0  0  0  0  0  0  0  0  0  0
  -12.5824   13.5256  -36.5936 H   0  0  0  0  0  0  0  0  0  0  0  0
  -11.9876   13.0331  -38.1841 H   0  0  0  0  0  0  0  0  0  0  0  0
  -10.2919   13.5079  -35.3356 H   0  0  0  0  0  0  0  0  0  0  0  0
   -9.1307   14.8267  -35.1169 H   0  0  0  0  0  0  0  0  0  0  0  0
  -14.5010   14.0160  -38.0351 H   0  0  0  0  0  0  0  0  0  0  0  0
  -11.6838   17.2111  -37.9608 H   0  0  0  0  0  0  0  0  0  0  0  0
  -11.6594   15.3117  -35.5194 H   0  0  0  0  0  0  0  0  0  0  0  0
  1  4  1  0  0  0  0
  1  7  1  0  0  0  0
  2  3  1  0  0  0  0
  2  8  1  0  0  0  0
  3  9  1  0  0  0  0
  4 10  1  0  0  0  0
  5  8  1  0  0  0  0
  5  9  1  0  0  0  0
  6  8  1  0  0  0  0
  6 10  1  0  0  0  0
  7 11  1  0  0  0  0
  9 10  1  0  0  0  0
 10 11  1  0  0  0  0
  1 12  1  0  0  0  0
  1 13  1  0  0  0  0
  2 14  1  0  0  0  0
  2 15  1  0  0  0  0
  3 16  1  0  0  0  0
  3 17  1  0  0  0  0
  4 18  1  0  0  0  0
  4 19  1  0  0  0  0
  5 20  1  0  0  0  0
  5 21  1  0  0  0  0
  6 22  1  0  0  0  0
  6 23  1  0  0  0  0
  7 24  1  0  0  0  0
  7 25  1  0  0  0  0
  8 26  1  0  0  0  0
  9 27  1  0  0  0  0
 11 28  1  0  0  0  0
M  END
> <id>
EN300-6880612

> <smiles>
C1CNC2(C1)CC3CCC2C3

> <MDLNUMBER>
MFCD32859448

> <IUPAC Name>
spiro[bicyclo[2.2.1]heptane-2,2'-pyrrolidine]

> <CAS>
172-64-5

> <URL>
https://www.enaminestore.com/catalog/EN300-6880612

> <ROCS_ShapeQuery>
_x1247relevant_x1083L0AP1_x1305L0BP1_

> <ROCS_TanimotoCombo>
1.064 

> <ROCS_ShapeTanimoto>
0.502 

> <ROCS_ColorTanimoto>
0.562 

> <ROCS_RefTversky>
0.416 

> <ROCS_RefColorTversky>
0.707 

> <ROCS_RefTverskyCombo>
1.123 

> <ROCS_FitTversky>
1.708 

> <ROCS_FitColorTversky>
0.732 

> <ROCS_FitTverskyCombo>
2.440 

> <ROCS_ColorScore>
-6.823

> <ROCS_Overlap>
1021.641

> <ROCS_Rank>
88                  

$$$$
untitled-dbase-41812_0
  -OEChem-06232314403D

 28 30  0     1  0  0  0  0  0999 V2000
   -9.1827   13.9899  -37.1267 C   0  0  0  0  0  0  0  0  0  0  0  0
  -13.2991   14.8114  -39.7146 C   0  0  0  0  0  0  0  0  0  0  0  0
  -12.3065   15.9818  -39.6885 C   0  0  0  0  0  0  0  0  0  0  0  0
   -9.9618   14.7261  -38.2064 C   0  0  0  0  0  0  0  0  0  0  0  0
  -13.5070   15.9738  -37.6466 C   0  0  0  0  0  0  0  0  0  0  0  0
  -12.3312   13.8912  -37.5968 C   0  0  0  0  0  0  0  0  0  0  0  0
   -9.8470   14.3862  -35.8168 C   0  0  0  0  0  0  0  0  0  0  0  0
  -13.5728   14.5594  -38.2225 C   0  0  2  0  0  0  0  0  0  0  0  0
  -12.0914   16.2210  -38.1816 C   0  0  1  0  0  0  0  0  0  0  0  0
  -11.2972   15.0502  -37.5499 C   0  0  2  0  0  0  0  0  0  0  0  0
  -10.8806   15.3569  -36.1733 N   0  0  0  0  0  0  0  0  0  0  0  0
   -9.2536   12.9063  -37.2744 H   0  0  0  0  0  0  0  0  0  0  0  0
   -8.1235   14.2656  -37.1513 H   0  0  0  0  0  0  0  0  0  0  0  0
  -14.2161   15.1069  -40.2367 H   0  0  0  0  0  0  0  0  0  0  0  0
  -12.8869   13.9326  -40.2207 H   0  0  0  0  0  0  0  0  0  0  0  0
  -11.3857   15.7584  -40.2336 H   0  0  0  0  0  0  0  0  0  0  0  0
  -12.7606   16.8645  -40.1543 H   0  0  0  0  0  0  0  0  0  0  0  0
   -9.4282   15.6475  -38.4735 H   0  0  0  0  0  0  0  0  0  0  0  0
  -10.0532   14.1179  -39.1120 H   0  0  0  0  0  0  0  0  0  0  0  0
  -14.2543   16.6490  -38.0775 H   0  0  0  0  0  0  0  0  0  0  0  0
  -13.5826   16.0016  -36.5554 H   0  0  0  0  0  0  0  0  0  0  0  0
  -12.5824   13.5256  -36.5936 H   0  0  0  0  0  0  0  0  0  0  0  0
  -11.9876   13.0331  -38.1841 H   0  0  0  0  0  0  0  0  0  0  0  0
  -10.2919   13.5079  -35.3356 H   0  0  0  0  0  0  0  0  0  0  0  0
   -9.1307   14.8267  -35.1169 H   0  0  0  0  0  0  0  0  0  0  0  0
  -14.5010   14.0160  -38.0351 H   0  0  0  0  0  0  0  0  0  0  0  0
  -11.6838   17.2111  -37.9608 H   0  0  0  0  0  0  0  0  0  0  0  0
  -11.6594   15.3117  -35.5194 H   0  0  0  0  0  0  0  0  0  0  0  0
  1  4  1  0  0  0  0
  1  7  1  0  0  0  0
  2  3  1  0  0  0  0
  2  8  1  0  0  0  0
  3  9  1  0  0  0  0
  4 10  1  0  0  0  0
  5  8  1  0  0  0  0
  5  9  1  0  0  0  0
  6  8  1  0  0  0  0
  6 10  1  0  0  0  0
  7 11  1  0  0  0  0
  9 10  1  0  0  0  0
 10 11  1  0  0  0  0
  1 12  1  0  0  0  0
  1 13  1  0  0  0  0
  2 14  1  0  0  0  0
  2 15  1  0  0  0  0
  3 16  1  0  0  0  0
  3 17  1  0  0  0  0
  4 18  1  0  0  0  0
  4 19  1  0  0  0  0
  5 20  1  0  0  0  0
  5 21  1  0  0  0  0
  6 22  1  0  0  0  0
  6 23  1  0  0  0  0
  7 24  1  0  0  0  0
  7 25  1  0  0  0  0
  8 26  1  0  0  0  0
  9 27  1  0  0  0  0
 11 28  1  0  0  0  0
M  END
> <id>
EN300-27150167

> <smiles>
Cl.C1CNC2(C1)CC3CCC2C3

> <MDLNUMBER>
MFCD32859429

> <IUPAC Name>
spiro[bicyclo[2.2.1]heptane-2,2'-pyrrolidine] hydrochloride

> <CAS>
2503208-78-2

> <Purity>
95

> <URL>
https://www.enaminestore.com/catalog/EN300-27150167

> <Saltdate>
Cl

> <ROCS_ShapeQuery>
_x1247relevant_x1083L0AP1_x1305L0BP1_

> <ROCS_TanimotoCombo>
1.064 

> <ROCS_ShapeTanimoto>
0.502 

> <ROCS_ColorTanimoto>
0.562 

> <ROCS_RefTversky>
0.416 

> <ROCS_RefColorTversky>
0.707 

> <ROCS_RefTverskyCombo>
1.123 

> <ROCS_FitTversky>
1.708 

> <ROCS_FitColorTversky>
0.732 

> <ROCS_FitTverskyCombo>
2.440 

> <ROCS_ColorScore>
-6.823

> <ROCS_Overlap>
1021.641

> <ROCS_Rank>
89                  

$$$$
untitled-dbase-39871_0
  -OEChem-06232314403D

 22 24  0     1  0  0  0  0  0999 V2000
   -9.5082   13.8662  -36.7268 C   0  0  0  0  0  0  0  0  0  0  0  0
   -9.2359   15.2502  -36.7156 C   0  0  0  0  0  0  0  0  0  0  0  0
  -10.7365   13.3757  -37.1788 C   0  0  0  0  0  0  0  0  0  0  0  0
  -10.1858   16.1769  -37.1546 C   0  0  0  0  0  0  0  0  0  0  0  0
  -11.6663   14.2999  -37.5993 C   0  0  0  0  0  0  0  0  0  0  0  0
  -11.3961   15.6814  -37.5851 C   0  0  0  0  0  0  0  0  0  0  0  0
  -13.6911   15.4093  -37.5781 C   0  0  0  0  0  0  0  0  0  0  0  0
  -12.9785   14.5729  -39.6574 C   0  0  0  0  0  0  0  0  0  0  0  0
  -13.0533   14.1494  -38.1798 C   0  0  1  0  0  0  0  0  0  0  0  0
  -12.6245   16.3568  -38.1463 C   0  0  2  0  0  0  0  0  0  0  0  0
  -12.7526   16.0491  -39.5922 N   0  0  0  0  0  0  0  0  0  0  0  0
   -8.7456   13.1716  -36.3837 H   0  0  0  0  0  0  0  0  0  0  0  0
   -8.2678   15.5985  -36.3642 H   0  0  0  0  0  0  0  0  0  0  0  0
  -10.9409   12.3120  -37.1991 H   0  0  0  0  0  0  0  0  0  0  0  0
   -9.9728   17.2392  -37.1548 H   0  0  0  0  0  0  0  0  0  0  0  0
  -14.7001   15.6078  -37.9586 H   0  0  0  0  0  0  0  0  0  0  0  0
  -13.7214   15.3978  -36.4804 H   0  0  0  0  0  0  0  0  0  0  0  0
  -12.1723   14.0729  -40.2054 H   0  0  0  0  0  0  0  0  0  0  0  0
  -13.9284   14.3868  -40.1694 H   0  0  0  0  0  0  0  0  0  0  0  0
  -13.5570   13.2070  -37.9622 H   0  0  0  0  0  0  0  0  0  0  0  0
  -12.7466   17.4083  -37.8811 H   0  0  0  0  0  0  0  0  0  0  0  0
  -11.8920   16.2930  -40.0811 H   0  0  0  0  0  0  0  0  0  0  0  0
  1  2  2  0  0  0  0
  1  3  1  0  0  0  0
  2  4  1  0  0  0  0
  3  5  2  0  0  0  0
  4  6  2  0  0  0  0
  5  6  1  0  0  0  0
  5  9  1  0  0  0  0
  6 10  1  0  0  0  0
  7  9  1  0  0  0  0
  7 10  1  0  0  0  0
  8  9  1  0  0  0  0
  8 11  1  0  0  0  0
 10 11  1  0  0  0  0
  1 12  1  0  0  0  0
  2 13  1  0  0  0  0
  3 14  1  0  0  0  0
  4 15  1  0  0  0  0
  7 16  1  0  0  0  0
  7 17  1  0  0  0  0
  8 18  1  0  0  0  0
  8 19  1  0  0  0  0
  9 20  1  0  0  0  0
 10 21  1  0  0  0  0
 11 22  1  0  0  0  0
M  END
> <id>
EN300-248803

> <smiles>
C1NC2CC1C=3C=CC=CC23

> <MDLNUMBER>
MFCD11046746

> <IUPAC Name>
9-azatricyclo[6.2.1.0,2,7]undeca-2,4,6-triene

> <CAS>
111634-88-9

> <URL>
https://www.enaminestore.com/catalog/EN300-248803

> <ROCS_ShapeQuery>
_x1247relevant_x1083L0AP1_x1305L0BP1_

> <ROCS_TanimotoCombo>
1.063 

> <ROCS_ShapeTanimoto>
0.497 

> <ROCS_ColorTanimoto>
0.567 

> <ROCS_RefTversky>
0.415 

> <ROCS_RefColorTversky>
0.715 

> <ROCS_RefTverskyCombo>
1.130 

> <ROCS_FitTversky>
1.655 

> <ROCS_FitColorTversky>
0.732 

> <ROCS_FitTverskyCombo>
2.387 

> <ROCS_ColorScore>
-6.905

> <ROCS_Overlap>
1020.498

> <ROCS_Rank>
90                  

$$$$
untitled-dbase-39835_0
  -OEChem-06232314403D

 22 24  0     1  0  0  0  0  0999 V2000
   -9.5082   13.8662  -36.7268 C   0  0  0  0  0  0  0  0  0  0  0  0
   -9.2359   15.2502  -36.7156 C   0  0  0  0  0  0  0  0  0  0  0  0
  -10.7365   13.3757  -37.1788 C   0  0  0  0  0  0  0  0  0  0  0  0
  -10.1858   16.1769  -37.1546 C   0  0  0  0  0  0  0  0  0  0  0  0
  -11.6663   14.2999  -37.5993 C   0  0  0  0  0  0  0  0  0  0  0  0
  -11.3961   15.6814  -37.5851 C   0  0  0  0  0  0  0  0  0  0  0  0
  -13.6911   15.4093  -37.5781 C   0  0  0  0  0  0  0  0  0  0  0  0
  -12.9785   14.5729  -39.6574 C   0  0  0  0  0  0  0  0  0  0  0  0
  -13.0533   14.1494  -38.1798 C   0  0  1  0  0  0  0  0  0  0  0  0
  -12.6245   16.3568  -38.1463 C   0  0  2  0  0  0  0  0  0  0  0  0
  -12.7526   16.0491  -39.5922 N   0  0  0  0  0  0  0  0  0  0  0  0
   -8.7456   13.1716  -36.3837 H   0  0  0  0  0  0  0  0  0  0  0  0
   -8.2678   15.5985  -36.3642 H   0  0  0  0  0  0  0  0  0  0  0  0
  -10.9409   12.3120  -37.1991 H   0  0  0  0  0  0  0  0  0  0  0  0
   -9.9728   17.2392  -37.1548 H   0  0  0  0  0  0  0  0  0  0  0  0
  -14.7001   15.6078  -37.9586 H   0  0  0  0  0  0  0  0  0  0  0  0
  -13.7214   15.3978  -36.4804 H   0  0  0  0  0  0  0  0  0  0  0  0
  -12.1723   14.0729  -40.2054 H   0  0  0  0  0  0  0  0  0  0  0  0
  -13.9284   14.3868  -40.1694 H   0  0  0  0  0  0  0  0  0  0  0  0
  -13.5570   13.2070  -37.9622 H   0  0  0  0  0  0  0  0  0  0  0  0
  -12.7466   17.4083  -37.8811 H   0  0  0  0  0  0  0  0  0  0  0  0
  -11.8920   16.2930  -40.0811 H   0  0  0  0  0  0  0  0  0  0  0  0
  1  2  2  0  0  0  0
  1  3  1  0  0  0  0
  2  4  1  0  0  0  0
  3  5  2  0  0  0  0
  4  6  2  0  0  0  0
  5  6  1  0  0  0  0
  5  9  1  0  0  0  0
  6 10  1  0  0  0  0
  7  9  1  0  0  0  0
  7 10  1  0  0  0  0
  8  9  1  0  0  0  0
  8 11  1  0  0  0  0
 10 11  1  0  0  0  0
  1 12  1  0  0  0  0
  2 13  1  0  0  0  0
  3 14  1  0  0  0  0
  4 15  1  0  0  0  0
  7 16  1  0  0  0  0
  7 17  1  0  0  0  0
  8 18  1  0  0  0  0
  8 19  1  0  0  0  0
  9 20  1  0  0  0  0
 10 21  1  0  0  0  0
 11 22  1  0  0  0  0
M  END
> <id>
EN300-250080

> <smiles>
Cl.C1NC2CC1C=3C=CC=CC23

> <MDLNUMBER>
MFCD20680629

> <IUPAC Name>
9-azatricyclo[6.2.1.0,2,7]undeca-2,4,6-triene hydrochloride

> <CAS>
111635-04-2

> <Purity>
95

> <URL>
https://www.enaminestore.com/catalog/EN300-250080

> <Saltdate>
Cl

> <MP>
187-188

> <ROCS_ShapeQuery>
_x1247relevant_x1083L0AP1_x1305L0BP1_

> <ROCS_TanimotoCombo>
1.063 

> <ROCS_ShapeTanimoto>
0.497 

> <ROCS_ColorTanimoto>
0.567 

> <ROCS_RefTversky>
0.415 

> <ROCS_RefColorTversky>
0.715 

> <ROCS_RefTverskyCombo>
1.130 

> <ROCS_FitTversky>
1.655 

> <ROCS_FitColorTversky>
0.732 

> <ROCS_FitTverskyCombo>
2.387 

> <ROCS_ColorScore>
-6.905

> <ROCS_Overlap>
1020.498

> <ROCS_Rank>
91                  

$$$$
untitled-dbase-16795_0
  -OEChem-06232314403D

 29 31  0     0  0  0  0  0  0999 V2000
  -15.4255   13.6104  -40.6900 C   0  0  0  0  0  0  0  0  0  0  0  0
  -14.7535   14.4497  -40.1563 C   0  0  0  0  0  0  0  0  0  0  0  0
  -11.2690   15.0009  -37.1309 C   0  0  0  0  0  0  0  0  0  0  0  0
  -13.2408   16.5363  -37.2865 C   0  0  0  0  0  0  0  0  0  0  0  0
  -11.5779   16.4086  -39.1784 C   0  0  0  0  0  0  0  0  0  0  0  0
  -13.5765   14.0669  -37.4164 C   0  0  0  0  0  0  0  0  0  0  0  0
  -11.9152   13.9393  -39.3065 C   0  0  0  0  0  0  0  0  0  0  0  0
  -11.7544   16.3654  -37.6496 C   0  0  0  0  0  0  0  0  0  0  0  0
  -12.0919   13.8741  -37.7780 C   0  0  0  0  0  0  0  0  0  0  0  0
  -14.0846   15.4253  -37.9542 C   0  0  0  0  0  0  0  0  0  0  0  0
  -12.4228   15.2977  -39.8450 C   0  0  0  0  0  0  0  0  0  0  0  0
  -13.9265   15.4834  -39.4992 C   0  0  0  0  0  0  0  0  0  0  0  0
  -14.4064   16.7293  -40.0051 O   0  0  0  0  0  0  0  0  0  0  0  0
  -16.0215   12.8656  -41.1636 H   0  0  0  0  0  0  0  0  0  0  0  0
  -10.2045   14.8682  -37.3606 H   0  0  0  0  0  0  0  0  0  0  0  0
  -11.3660   14.9574  -36.0390 H   0  0  0  0  0  0  0  0  0  0  0  0
  -13.3630   16.4876  -36.1968 H   0  0  0  0  0  0  0  0  0  0  0  0
  -13.5927   17.5295  -37.5861 H   0  0  0  0  0  0  0  0  0  0  0  0
  -11.8535   17.3959  -39.5646 H   0  0  0  0  0  0  0  0  0  0  0  0
  -10.5193   16.2692  -39.4323 H   0  0  0  0  0  0  0  0  0  0  0  0
  -14.1719   13.2407  -37.8223 H   0  0  0  0  0  0  0  0  0  0  0  0
  -13.7010   14.0295  -36.3267 H   0  0  0  0  0  0  0  0  0  0  0  0
  -10.8559   13.8111  -39.5634 H   0  0  0  0  0  0  0  0  0  0  0  0
  -12.4495   13.1084  -39.7818 H   0  0  0  0  0  0  0  0  0  0  0  0
  -11.1658   17.1647  -37.1862 H   0  0  0  0  0  0  0  0  0  0  0  0
  -11.7434   12.9042  -37.4062 H   0  0  0  0  0  0  0  0  0  0  0  0
  -15.1355   15.5676  -37.6728 H   0  0  0  0  0  0  0  0  0  0  0  0
  -12.2721   15.3476  -40.9304 H   0  0  0  0  0  0  0  0  0  0  0  0
  -15.3418   16.7831  -39.7577 H   0  0  0  0  0  0  0  0  0  0  0  0
  1  2  3  0  0  0  0
  2 12  1  0  0  0  0
  3  8  1  0  0  0  0
  3  9  1  0  0  0  0
  4  8  1  0  0  0  0
  4 10  1  0  0  0  0
  5  8  1  0  0  0  0
  5 11  1  0  0  0  0
  6  9  1  0  0  0  0
  6 10  1  0  0  0  0
  7  9  1  0  0  0  0
  7 11  1  0  0  0  0
 10 12  1  0  0  0  0
 11 12  1  0  0  0  0
 12 13  1  0  0  0  0
  1 14  1  0  0  0  0
  3 15  1  0  0  0  0
  3 16  1  0  0  0  0
  4 17  1  0  0  0  0
  4 18  1  0  0  0  0
  5 19  1  0  0  0  0
  5 20  1  0  0  0  0
  6 21  1  0  0  0  0
  6 22  1  0  0  0  0
  7 23  1  0  0  0  0
  7 24  1  0  0  0  0
  8 25  1  0  0  0  0
  9 26  1  0  0  0  0
 10 27  1  0  0  0  0
 11 28  1  0  0  0  0
 13 29  1  0  0  0  0
M  END
> <id>
EN300-1273439

> <smiles>
OC1(C#C)C2CC3CC(C2)CC1C3

> <IUPAC Name>
2-ethynyladamantan-2-ol

> <CAS>
70887-49-9

> <URL>
https://www.enaminestore.com/catalog/EN300-1273439

> <ROCS_ShapeQuery>
_x1247relevant_x1083L0AP1_x1305L0BP1_

> <ROCS_TanimotoCombo>
1.063 

> <ROCS_ShapeTanimoto>
0.490 

> <ROCS_ColorTanimoto>
0.573 

> <ROCS_RefTversky>
0.420 

> <ROCS_RefColorTversky>
0.721 

> <ROCS_RefTverskyCombo>
1.141 

> <ROCS_FitTversky>
1.515 

> <ROCS_FitColorTversky>
0.736 

> <ROCS_FitTverskyCombo>
2.251 

> <ROCS_ColorScore>
-6.960

> <ROCS_Overlap>
1034.425

> <ROCS_Rank>
92                  

$$$$
untitled-dbase-23238_0
  -OEChem-06232314403D

 31 34  0     1  0  0  0  0  0999 V2000
  -13.8799   14.5543  -39.4553 C   0  0  0  0  0  0  0  0  0  0  0  0
  -12.6601   15.9596  -41.1432 C   0  0  0  0  0  0  0  0  0  0  0  0
  -13.9853   14.3649  -38.1256 C   0  0  0  0  0  0  0  0  0  0  0  0
  -12.8645   15.4613  -39.9305 C   0  0  0  0  0  0  0  0  0  0  0  0
  -11.6071   16.9723  -40.9789 C   0  0  0  0  0  0  0  0  0  0  0  0
   -8.8136   14.5716  -37.0532 C   0  0  0  0  0  0  0  0  0  0  0  0
   -9.6641   13.9280  -35.9571 C   0  0  0  0  0  0  0  0  0  0  0  0
   -9.6042   15.5686  -37.8944 C   0  0  0  0  0  0  0  0  0  0  0  0
  -12.7239   16.5003  -37.7320 C   0  0  0  0  0  0  0  0  0  0  0  0
  -11.0673   14.5256  -35.8692 C   0  0  0  0  0  0  0  0  0  0  0  0
  -13.0642   15.1138  -37.1612 C   0  0  2  0  0  0  0  0  0  0  0  0
  -10.9669   14.9896  -38.3060 C   0  0  2  0  0  0  0  0  0  0  0  0
  -11.9127   16.0440  -38.9354 C   0  0  1  0  0  0  0  0  0  0  0  0
  -11.7486   14.4259  -37.1606 N   0  0  1  0  0  0  0  0  0  0  0  0
  -11.1475   17.6489  -41.8835 O   0  0  0  0  0  0  0  0  0  0  0  0
  -11.2534   17.0667  -39.6574 O   0  0  0  0  0  0  0  0  0  0  0  0
  -14.5364   14.0535  -40.1561 H   0  0  0  0  0  0  0  0  0  0  0  0
  -13.1931   15.7591  -42.0562 H   0  0  0  0  0  0  0  0  0  0  0  0
  -14.7197   13.6759  -37.7217 H   0  0  0  0  0  0  0  0  0  0  0  0
   -7.9485   15.0769  -36.6077 H   0  0  0  0  0  0  0  0  0  0  0  0
   -8.4087   13.7838  -37.7003 H   0  0  0  0  0  0  0  0  0  0  0  0
   -9.7368   12.8492  -36.1469 H   0  0  0  0  0  0  0  0  0  0  0  0
   -9.1588   14.0329  -34.9898 H   0  0  0  0  0  0  0  0  0  0  0  0
   -9.7349   16.4973  -37.3242 H   0  0  0  0  0  0  0  0  0  0  0  0
   -9.0219   15.8320  -38.7853 H   0  0  0  0  0  0  0  0  0  0  0  0
  -13.6079   17.0924  -37.9992 H   0  0  0  0  0  0  0  0  0  0  0  0
  -12.1245   17.1085  -37.0441 H   0  0  0  0  0  0  0  0  0  0  0  0
  -11.6369   13.9698  -35.1148 H   0  0  0  0  0  0  0  0  0  0  0  0
  -11.0060   15.5641  -35.5200 H   0  0  0  0  0  0  0  0  0  0  0  0
  -13.5352   15.1774  -36.1745 H   0  0  0  0  0  0  0  0  0  0  0  0
  -10.7777   14.1737  -39.0169 H   0  0  0  0  0  0  0  0  0  0  0  0
  1  3  2  0  0  0  0
  1  4  1  0  0  0  0
  2  4  2  0  0  0  0
  2  5  1  0  0  0  0
  3 11  1  0  0  0  0
  4 13  1  0  0  0  0
  5 15  2  0  0  0  0
  5 16  1  0  0  0  0
  6  7  1  0  0  0  0
  6  8  1  0  0  0  0
  7 10  1  0  0  0  0
  8 12  1  1  0  0  0
  9 11  1  0  0  0  0
  9 13  1  0  0  0  0
 10 14  1  0  0  0  0
 11 14  1  6  0  0  0
 12 13  1  0  0  0  0
 12 14  1  0  0  0  0
 13 16  1  1  0  0  0
  1 17  1  0  0  0  0
  2 18  1  0  0  0  0
  3 19  1  0  0  0  0
  6 20  1  0  0  0  0
  6 21  1  0  0  0  0
  7 22  1  0  0  0  0
  7 23  1  0  0  0  0
  8 24  1  0  0  0  0
  8 25  1  0  0  0  0
  9 26  1  0  0  0  0
  9 27  1  0  0  0  0
 10 28  1  0  0  0  0
 10 29  1  0  0  0  0
 11 30  1  0  0  0  0
 12 31  1  0  0  0  0
M  END
> <id>
EN300-19767685

> <smiles>
O=C1O[C@]2(C[C@H]3C=CC2=C1)[C@H]4CCCCN34

> <MDLNUMBER>
MFCD00867422

> <IUPAC Name>
(1S,2R,8S)-14-oxa-7-azatetracyclo[6.6.1.0^{1,11}.0^{2,7}]pentadeca-9,11-dien-13-one

> <CAS>
5610-40-2

> <URL>
https://www.enaminestore.com/catalog/EN300-19767685

> <ROCS_ShapeQuery>
_x1247relevant_x1083L0AP1_x1305L0BP1_

> <ROCS_TanimotoCombo>
1.062 

> <ROCS_ShapeTanimoto>
0.555 

> <ROCS_ColorTanimoto>
0.507 

> <ROCS_RefTversky>
0.479 

> <ROCS_RefColorTversky>
0.679 

> <ROCS_RefTverskyCombo>
1.158 

> <ROCS_FitTversky>
1.399 

> <ROCS_FitColorTversky>
0.667 

> <ROCS_FitTverskyCombo>
2.066 

> <ROCS_ColorScore>
-6.569

> <ROCS_Overlap>
1184.652

> <ROCS_Rank>
93                  

$$$$
untitled-dbase-13211_1
  -OEChem-06232314403D

 30 32  0     1  0  0  0  0  0999 V2000
  -10.1000   15.8552  -37.1699 C   0  0  0  0  0  0  0  0  0  0  0  0
   -8.9745   15.0205  -36.6279 C   0  0  0  0  0  0  0  0  0  0  0  0
  -13.8206   14.4411  -39.0300 C   0  0  0  0  0  0  0  0  0  0  0  0
  -13.8641   14.7373  -37.5246 C   0  0  0  0  0  0  0  0  0  0  0  0
  -12.7866   16.5333  -38.6153 C   0  0  0  0  0  0  0  0  0  0  0  0
  -11.3291   14.6760  -39.0183 C   0  0  0  0  0  0  0  0  0  0  0  0
   -9.5691   13.6242  -36.7414 C   0  0  0  0  0  0  0  0  0  0  0  0
  -12.6482   15.3071  -39.5117 C   0  0  1  0  0  0  0  0  0  0  0  0
  -12.6843   15.7159  -37.3176 C   0  0  2  0  0  0  0  0  0  0  0  0
  -11.3252   14.9890  -37.4931 C   0  0  2  0  0  0  0  0  0  0  0  0
  -11.4551   13.9178  -35.2732 C   0  0  0  0  0  0  0  0  0  0  0  0
  -11.0383   13.7866  -36.6767 N   0  0  2  0  0  0  0  0  0  0  0  0
  -10.0182   17.0664  -37.3227 O   0  0  0  0  0  0  0  0  0  0  0  0
   -8.0958   15.1452  -37.2668 H   0  0  0  0  0  0  0  0  0  0  0  0
   -8.7532   15.2873  -35.5923 H   0  0  0  0  0  0  0  0  0  0  0  0
  -13.6714   13.3766  -39.2356 H   0  0  0  0  0  0  0  0  0  0  0  0
  -14.7591   14.7524  -39.5013 H   0  0  0  0  0  0  0  0  0  0  0  0
  -14.8131   15.2262  -37.2669 H   0  0  0  0  0  0  0  0  0  0  0  0
  -13.7914   13.8272  -36.9196 H   0  0  0  0  0  0  0  0  0  0  0  0
  -11.9830   17.2621  -38.7497 H   0  0  0  0  0  0  0  0  0  0  0  0
  -13.7507   17.0419  -38.7265 H   0  0  0  0  0  0  0  0  0  0  0  0
  -11.3168   13.6113  -39.2609 H   0  0  0  0  0  0  0  0  0  0  0  0
  -10.4714   15.1342  -39.5227 H   0  0  0  0  0  0  0  0  0  0  0  0
   -9.2295   13.1035  -37.6429 H   0  0  0  0  0  0  0  0  0  0  0  0
   -9.2449   13.0104  -35.8920 H   0  0  0  0  0  0  0  0  0  0  0  0
  -12.6620   15.5033  -40.5852 H   0  0  0  0  0  0  0  0  0  0  0  0
  -12.7767   16.3210  -36.4118 H   0  0  0  0  0  0  0  0  0  0  0  0
  -12.5474   14.0385  -35.2243 H   0  0  0  0  0  0  0  0  0  0  0  0
  -11.1609   13.0152  -34.7175 H   0  0  0  0  0  0  0  0  0  0  0  0
  -10.9688   14.7978  -34.8272 H   0  0  0  0  0  0  0  0  0  0  0  0
  1  2  1  0  0  0  0
  1 10  1  0  0  0  0
  1 13  2  0  0  0  0
  2  7  1  0  0  0  0
  3  4  1  0  0  0  0
  3  8  1  0  0  0  0
  4  9  1  0  0  0  0
  5  8  1  0  0  0  0
  5  9  1  0  0  0  0
  6  8  1  0  0  0  0
  6 10  1  0  0  0  0
  7 12  1  0  0  0  0
  9 10  1  0  0  0  0
 10 12  1  0  0  0  0
 11 12  1  0  0  0  0
  2 14  1  0  0  0  0
  2 15  1  0  0  0  0
  3 16  1  0  0  0  0
  3 17  1  0  0  0  0
  4 18  1  0  0  0  0
  4 19  1  0  0  0  0
  5 20  1  0  0  0  0
  5 21  1  0  0  0  0
  6 22  1  0  0  0  0
  6 23  1  0  0  0  0
  7 24  1  0  0  0  0
  7 25  1  0  0  0  0
  8 26  1  0  0  0  0
  9 27  1  0  0  0  0
 11 28  1  0  0  0  0
 11 29  1  0  0  0  0
 11 30  1  0  0  0  0
M  END
> <id>
EN300-785419

> <smiles>
CN1CCC(=O)C21CC3CCC2C3

> <IUPAC Name>
1'-methylspiro[bicyclo[2.2.1]heptane-2,2'-pyrrolidine]-3'-one

> <CAS>
2137583-24-3

> <URL>
https://www.enaminestore.com/catalog/EN300-785419

> <ROCS_ShapeQuery>
_x1247relevant_x1083L0AP1_x1305L0BP1_

> <ROCS_TanimotoCombo>
1.062 

> <ROCS_ShapeTanimoto>
0.493 

> <ROCS_ColorTanimoto>
0.569 

> <ROCS_RefTversky>
0.423 

> <ROCS_RefColorTversky>
0.713 

> <ROCS_RefTverskyCombo>
1.136 

> <ROCS_FitTversky>
1.511 

> <ROCS_FitColorTversky>
0.738 

> <ROCS_FitTverskyCombo>
2.249 

> <ROCS_ColorScore>
-6.877

> <ROCS_Overlap>
1041.507

> <ROCS_Rank>
94                  

$$$$
untitled-dbase-17392_0
  -OEChem-06232314403D

 26 28  0     1  0  0  0  0  0999 V2000
   -9.2802   15.0926  -36.6985 C   0  0  0  0  0  0  0  0  0  0  0  0
  -13.7700   14.4433  -39.0667 C   0  0  0  0  0  0  0  0  0  0  0  0
  -13.7886   14.5754  -37.5365 C   0  0  0  0  0  0  0  0  0  0  0  0
  -12.8381   16.5443  -38.4531 C   0  0  0  0  0  0  0  0  0  0  0  0
  -11.2959   14.8402  -39.1070 C   0  0  0  0  0  0  0  0  0  0  0  0
  -10.9635   13.6779  -36.8274 C   0  0  0  0  0  0  0  0  0  0  0  0
  -12.6689   15.4327  -39.4866 C   0  0  1  0  0  0  0  0  0  0  0  0
  -12.6643   15.5914  -37.2644 C   0  0  2  0  0  0  0  0  0  0  0  0
  -11.2866   14.9622  -37.5631 C   0  0  2  0  0  0  0  0  0  0  0  0
  -10.2021   15.8802  -37.1614 N   0  0  0  0  0  0  0  0  0  0  0  0
   -8.0328   15.4213  -36.2616 N   0  0  0  0  0  0  0  0  0  0  0  0
   -9.5611   13.7599  -36.6117 O   0  0  0  0  0  0  0  0  0  0  0  0
  -13.5583   13.4187  -39.3888 H   0  0  0  0  0  0  0  0  0  0  0  0
  -14.7401   14.7387  -39.4818 H   0  0  0  0  0  0  0  0  0  0  0  0
  -14.7554   14.9756  -37.2091 H   0  0  0  0  0  0  0  0  0  0  0  0
  -13.6414   13.6136  -37.0376 H   0  0  0  0  0  0  0  0  0  0  0  0
  -12.0643   17.3160  -38.5169 H   0  0  0  0  0  0  0  0  0  0  0  0
  -13.8256   17.0174  -38.4848 H   0  0  0  0  0  0  0  0  0  0  0  0
  -11.1963   13.8085  -39.4599 H   0  0  0  0  0  0  0  0  0  0  0  0
  -10.4937   15.4328  -39.5631 H   0  0  0  0  0  0  0  0  0  0  0  0
  -11.4528   13.6157  -35.8488 H   0  0  0  0  0  0  0  0  0  0  0  0
  -11.1988   12.7745  -37.3975 H   0  0  0  0  0  0  0  0  0  0  0  0
  -12.7360   15.7435  -40.5309 H   0  0  0  0  0  0  0  0  0  0  0  0
  -12.7346   16.0712  -36.2851 H   0  0  0  0  0  0  0  0  0  0  0  0
   -7.7538   16.3791  -36.2840 H   0  0  0  0  0  0  0  0  0  0  0  0
   -7.4333   14.6951  -35.9315 H   0  0  0  0  0  0  0  0  0  0  0  0
  1 10  2  0  0  0  0
  1 11  1  0  0  0  0
  1 12  1  0  0  0  0
  2  3  1  0  0  0  0
  2  7  1  0  0  0  0
  3  8  1  0  0  0  0
  4  7  1  0  0  0  0
  4  8  1  0  0  0  0
  5  7  1  0  0  0  0
  5  9  1  0  0  0  0
  6  9  1  0  0  0  0
  6 12  1  0  0  0  0
  8  9  1  0  0  0  0
  9 10  1  0  0  0  0
  2 13  1  0  0  0  0
  2 14  1  0  0  0  0
  3 15  1  0  0  0  0
  3 16  1  0  0  0  0
  4 17  1  0  0  0  0
  4 18  1  0  0  0  0
  5 19  1  0  0  0  0
  5 20  1  0  0  0  0
  6 21  1  0  0  0  0
  6 22  1  0  0  0  0
  7 23  1  0  0  0  0
  8 24  1  0  0  0  0
 11 25  1  0  0  0  0
 11 26  1  0  0  0  0
M  END
> <id>
EN300-1241522

> <smiles>
NC1=NC2(CO1)CC3CCC2C3

> <MDLNUMBER>
MFCD24121893

> <IUPAC Name>
2'H-spiro[bicyclo[2.2.1]heptane-2,3'-[1,4]oxazole]-5'-amine

> <CAS>
1558702-26-3

> <URL>
https://www.enaminestore.com/catalog/EN300-1241522

> <ROCS_ShapeQuery>
_x1247relevant_x1083L0AP1_x1305L0BP1_

> <ROCS_TanimotoCombo>
1.062 

> <ROCS_ShapeTanimoto>
0.494 

> <ROCS_ColorTanimoto>
0.568 

> <ROCS_RefTversky>
0.419 

> <ROCS_RefColorTversky>
0.713 

> <ROCS_RefTverskyCombo>
1.132 

> <ROCS_FitTversky>
1.570 

> <ROCS_FitColorTversky>
0.737 

> <ROCS_FitTverskyCombo>
2.307 

> <ROCS_ColorScore>
-6.876

> <ROCS_Overlap>
1030.928

> <ROCS_Rank>
95                  

$$$$
untitled-dbase-13618_0
  -OEChem-06232314403D

 21 22  0     0  0  0  0  0  0999 V2000
  -15.3320   14.0640  -40.6424 C   0  0  0  0  0  0  0  0  0  0  0  0
  -14.4802   14.4861  -39.9094 C   0  0  0  0  0  0  0  0  0  0  0  0
  -12.7817   15.6407  -36.7994 C   0  0  0  0  0  0  0  0  0  0  0  0
  -11.2429   15.9256  -38.7523 C   0  0  0  0  0  0  0  0  0  0  0  0
  -13.9920   15.6699  -37.7462 C   0  0  0  0  0  0  0  0  0  0  0  0
  -12.4504   15.9546  -39.7028 C   0  0  0  0  0  0  0  0  0  0  0  0
  -12.5118   13.9356  -38.4387 C   0  0  0  0  0  0  0  0  0  0  0  0
  -11.6952   14.9564  -37.6466 C   0  0  0  0  0  0  0  0  0  0  0  0
  -13.4462   14.9982  -39.0203 C   0  0  0  0  0  0  0  0  0  0  0  0
  -16.0878   13.6895  -41.2925 H   0  0  0  0  0  0  0  0  0  0  0  0
  -12.4910   16.6438  -36.4719 H   0  0  0  0  0  0  0  0  0  0  0  0
  -13.0146   15.0442  -35.9099 H   0  0  0  0  0  0  0  0  0  0  0  0
  -10.3628   15.5348  -39.2752 H   0  0  0  0  0  0  0  0  0  0  0  0
  -10.9987   16.9204  -38.3664 H   0  0  0  0  0  0  0  0  0  0  0  0
  -14.8243   15.1046  -37.3093 H   0  0  0  0  0  0  0  0  0  0  0  0
  -14.3438   16.6915  -37.9271 H   0  0  0  0  0  0  0  0  0  0  0  0
  -12.8529   16.9670  -39.8197 H   0  0  0  0  0  0  0  0  0  0  0  0
  -12.1553   15.5985  -40.6974 H   0  0  0  0  0  0  0  0  0  0  0  0
  -11.9240   13.4052  -39.1970 H   0  0  0  0  0  0  0  0  0  0  0  0
  -13.0223   13.2028  -37.8032 H   0  0  0  0  0  0  0  0  0  0  0  0
  -10.8719   14.5483  -37.0574 H   0  0  0  0  0  0  0  0  0  0  0  0
  1  2  3  0  0  0  0
  2  9  1  0  0  0  0
  3  5  1  0  0  0  0
  3  8  1  0  0  0  0
  4  6  1  0  0  0  0
  4  8  1  0  0  0  0
  5  9  1  0  0  0  0
  6  9  1  0  0  0  0
  7  8  1  0  0  0  0
  7  9  1  0  0  0  0
  1 10  1  0  0  0  0
  3 11  1  0  0  0  0
  3 12  1  0  0  0  0
  4 13  1  0  0  0  0
  4 14  1  0  0  0  0
  5 15  1  0  0  0  0
  5 16  1  0  0  0  0
  6 17  1  0  0  0  0
  6 18  1  0  0  0  0
  7 19  1  0  0  0  0
  7 20  1  0  0  0  0
  8 21  1  0  0  0  0
M  END
> <id>
EN300-787634

> <smiles>
C#CC1(CCC2CC1)C2

> <MDLNUMBER>
MFCD29910098

> <IUPAC Name>
1-ethynylbicyclo[2.2.1]heptane

> <CAS>
2121925-84-4

> <Purity>
95

> <URL>
https://www.enaminestore.com/catalog/EN300-787634

> <ROCS_ShapeQuery>
_x1247relevant_x1083L0AP1_x1305L0BP1_

> <ROCS_TanimotoCombo>
1.062 

> <ROCS_ShapeTanimoto>
0.402 

> <ROCS_ColorTanimoto>
0.660 

> <ROCS_RefTversky>
0.345 

> <ROCS_RefColorTversky>
0.708 

> <ROCS_RefTverskyCombo>
1.053 

> <ROCS_FitTversky>
1.688 

> <ROCS_FitColorTversky>
0.908 

> <ROCS_FitTverskyCombo>
2.597 

> <ROCS_ColorScore>
-6.756

> <ROCS_Overlap>
846.525

> <ROCS_Rank>
96                  

$$$$
untitled-dbase-37259_0
  -OEChem-06232314403D

 26 29  0     1  0  0  0  0  0999 V2000
  -10.2313   13.8118  -37.7167 C   0  0  0  0  0  0  0  0  0  0  0  0
  -10.3382   15.8437  -36.7421 C   0  0  0  0  0  0  0  0  0  0  0  0
  -13.8782   14.5142  -38.7667 C   0  0  0  0  0  0  0  0  0  0  0  0
  -13.9513   15.9131  -38.0969 C   0  0  0  0  0  0  0  0  0  0  0  0
  -12.0863   16.3791  -40.6644 C   0  0  0  0  0  0  0  0  0  0  0  0
  -10.7241   16.1550  -40.0498 C   0  0  0  0  0  0  0  0  0  0  0  0
  -11.6993   14.0960  -37.6345 C   0  0  1  0  0  0  0  0  0  0  0  0
  -11.7719   15.4776  -36.9724 C   0  0  2  0  0  0  0  0  0  0  0  0
  -12.3616   14.3184  -39.0154 C   0  0  2  0  0  0  0  0  0  0  0  0
  -12.4680   16.3569  -38.0388 C   0  0  1  0  0  0  0  0  0  0  0  0
  -11.9637   15.7369  -39.3113 C   0  0  0  0  0  0  0  0  0  0  0  0
   -9.7305   12.8149  -38.2144 O   0  0  0  0  0  0  0  0  0  0  0  0
   -9.9453   16.8938  -36.2573 O   0  0  0  0  0  0  0  0  0  0  0  0
   -9.5253   14.8349  -37.1610 O   0  0  0  0  0  0  0  0  0  0  0  0
  -14.3074   13.7305  -38.1347 H   0  0  0  0  0  0  0  0  0  0  0  0
  -14.4283   14.5310  -39.7147 H   0  0  0  0  0  0  0  0  0  0  0  0
  -14.5356   16.5929  -38.7278 H   0  0  0  0  0  0  0  0  0  0  0  0
  -14.4194   15.8737  -37.1084 H   0  0  0  0  0  0  0  0  0  0  0  0
  -12.4493   17.3980  -40.7182 H   0  0  0  0  0  0  0  0  0  0  0  0
  -12.3658   15.7554  -41.5044 H   0  0  0  0  0  0  0  0  0  0  0  0
  -10.1006   15.3841  -40.4854 H   0  0  0  0  0  0  0  0  0  0  0  0
  -10.1855   17.0257  -39.6971 H   0  0  0  0  0  0  0  0  0  0  0  0
  -12.1868   13.3219  -37.0336 H   0  0  0  0  0  0  0  0  0  0  0  0
  -12.2992   15.4508  -36.0136 H   0  0  0  0  0  0  0  0  0  0  0  0
  -12.1152   13.5721  -39.7738 H   0  0  0  0  0  0  0  0  0  0  0  0
  -12.3167   17.4324  -37.9242 H   0  0  0  0  0  0  0  0  0  0  0  0
  1  7  1  0  0  0  0
  1 12  2  0  0  0  0
  1 14  1  0  0  0  0
  2  8  1  0  0  0  0
  2 13  2  0  0  0  0
  2 14  1  0  0  0  0
  3  4  1  0  0  0  0
  3  9  1  0  0  0  0
  4 10  1  0  0  0  0
  5  6  1  0  0  0  0
  5 11  1  0  0  0  0
  6 11  1  0  0  0  0
  7  8  1  0  0  0  0
  7  9  1  0  0  0  0
  8 10  1  0  0  0  0
  9 11  1  0  0  0  0
 10 11  1  0  0  0  0
  3 15  1  0  0  0  0
  3 16  1  0  0  0  0
  4 17  1  0  0  0  0
  4 18  1  0  0  0  0
  5 19  1  0  0  0  0
  5 20  1  0  0  0  0
  6 21  1  0  0  0  0
  6 22  1  0  0  0  0
  7 23  1  0  0  0  0
  8 24  1  0  0  0  0
  9 25  1  0  0  0  0
 10 26  1  0  0  0  0
M  END
> <id>
EN300-26862370

> <smiles>
O=C1OC(=O)C2C3CCC(C21)C43CC4

> <MDLNUMBER>
MFCD32679164

> <IUPAC Name>
4'-oxaspiro[cyclopropane-1,10'-tricyclo[5.2.1.0,2,6]decane]-3',5'-dione

> <CAS>
1418115-02-2

> <Purity>
95

> <URL>
https://www.enaminestore.com/catalog/EN300-26862370

> <ROCS_ShapeQuery>
_x1247relevant_x1083L0AP1_x1305L0BP1_

> <ROCS_TanimotoCombo>
1.062 

> <ROCS_ShapeTanimoto>
0.529 

> <ROCS_ColorTanimoto>
0.532 

> <ROCS_RefTversky>
0.452 

> <ROCS_RefColorTversky>
0.689 

> <ROCS_RefTverskyCombo>
1.141 

> <ROCS_FitTversky>
1.473 

> <ROCS_FitColorTversky>
0.701 

> <ROCS_FitTverskyCombo>
2.174 

> <ROCS_ColorScore>
-6.651

> <ROCS_Overlap>
1116.026

> <ROCS_Rank>
97                  

$$$$
untitled-dbase-39437_0
  -OEChem-06232314403D

 38 41  0     0  0  0  0  0  0999 V2000
   -9.7418   15.3496  -37.9696 C   0  0  0  0  0  0  0  0  0  0  0  0
  -11.0525   14.9285  -35.9115 C   0  0  0  0  0  0  0  0  0  0  0  0
  -14.2728   15.3723  -39.3612 C   0  0  0  0  0  0  0  0  0  0  0  0
  -13.4852   16.2954  -37.1733 C   0  0  0  0  0  0  0  0  0  0  0  0
  -13.3806   13.8172  -37.6159 C   0  0  0  0  0  0  0  0  0  0  0  0
  -12.1673   16.7186  -39.2423 C   0  0  0  0  0  0  0  0  0  0  0  0
  -12.0649   14.2398  -39.6818 C   0  0  0  0  0  0  0  0  0  0  0  0
   -8.8066   14.2064  -37.5699 C   0  0  0  0  0  0  0  0  0  0  0  0
  -10.0842   13.7959  -35.5642 C   0  0  0  0  0  0  0  0  0  0  0  0
  -14.1878   15.1057  -37.8490 C   0  0  0  0  0  0  0  0  0  0  0  0
  -12.8566   15.5333  -39.9390 C   0  0  0  0  0  0  0  0  0  0  0  0
  -12.0489   16.4528  -37.7237 C   0  0  0  0  0  0  0  0  0  0  0  0
  -11.9417   13.9770  -38.1620 C   0  0  0  0  0  0  0  0  0  0  0  0
  -11.1991   15.1627  -37.4464 C   0  0  0  0  0  0  0  0  0  0  0  0
   -8.7575   14.0374  -36.1215 N   0  0  0  0  0  0  0  0  0  0  0  0
   -9.3371   16.2882  -37.5647 H   0  0  0  0  0  0  0  0  0  0  0  0
   -9.6971   15.4579  -39.0561 H   0  0  0  0  0  0  0  0  0  0  0  0
  -12.0085   14.7155  -35.4268 H   0  0  0  0  0  0  0  0  0  0  0  0
  -10.6872   15.8544  -35.4445 H   0  0  0  0  0  0  0  0  0  0  0  0
  -14.7915   14.5449  -39.8609 H   0  0  0  0  0  0  0  0  0  0  0  0
  -14.8625   16.2774  -39.5516 H   0  0  0  0  0  0  0  0  0  0  0  0
  -14.0543   17.2147  -37.3624 H   0  0  0  0  0  0  0  0  0  0  0  0
  -13.4796   16.1663  -36.0862 H   0  0  0  0  0  0  0  0  0  0  0  0
  -13.3747   13.5578  -36.5528 H   0  0  0  0  0  0  0  0  0  0  0  0
  -13.8746   12.9779  -38.1231 H   0  0  0  0  0  0  0  0  0  0  0  0
  -11.1850   16.9033  -39.6888 H   0  0  0  0  0  0  0  0  0  0  0  0
  -12.7494   17.6338  -39.4111 H   0  0  0  0  0  0  0  0  0  0  0  0
  -12.5772   13.3947  -40.1602 H   0  0  0  0  0  0  0  0  0  0  0  0
  -11.0801   14.2948  -40.1558 H   0  0  0  0  0  0  0  0  0  0  0  0
   -9.1040   13.2700  -38.0553 H   0  0  0  0  0  0  0  0  0  0  0  0
   -7.7963   14.4363  -37.9269 H   0  0  0  0  0  0  0  0  0  0  0  0
   -9.9958   13.7295  -34.4740 H   0  0  0  0  0  0  0  0  0  0  0  0
  -10.4734   12.8301  -35.9058 H   0  0  0  0  0  0  0  0  0  0  0  0
  -15.1976   14.9900  -37.4397 H   0  0  0  0  0  0  0  0  0  0  0  0
  -12.9195   15.7218  -41.0165 H   0  0  0  0  0  0  0  0  0  0  0  0
  -11.5774   17.3205  -37.2459 H   0  0  0  0  0  0  0  0  0  0  0  0
  -11.4059   13.0337  -38.0138 H   0  0  0  0  0  0  0  0  0  0  0  0
   -8.1453   13.2553  -35.8917 H   0  0  0  0  0  0  0  0  0  0  0  0
  1  8  1  0  0  0  0
  1 14  1  0  0  0  0
  2  9  1  0  0  0  0
  2 14  1  0  0  0  0
  3 10  1  0  0  0  0
  3 11  1  0  0  0  0
  4 10  1  0  0  0  0
  4 12  1  0  0  0  0
  5 10  1  0  0  0  0
  5 13  1  0  0  0  0
  6 11  1  0  0  0  0
  6 12  1  0  0  0  0
  7 11  1  0  0  0  0
  7 13  1  0  0  0  0
  8 15  1  0  0  0  0
  9 15  1  0  0  0  0
 12 14  1  0  0  0  0
 13 14  1  0  0  0  0
  1 16  1  0  0  0  0
  1 17  1  0  0  0  0
  2 18  1  0  0  0  0
  2 19  1  0  0  0  0
  3 20  1  0  0  0  0
  3 21  1  0  0  0  0
  4 22  1  0  0  0  0
  4 23  1  0  0  0  0
  5 24  1  0  0  0  0
  5 25  1  0  0  0  0
  6 26  1  0  0  0  0
  6 27  1  0  0  0  0
  7 28  1  0  0  0  0
  7 29  1  0  0  0  0
  8 30  1  0  0  0  0
  8 31  1  0  0  0  0
  9 32  1  0  0  0  0
  9 33  1  0  0  0  0
 10 34  1  0  0  0  0
 11 35  1  0  0  0  0
 12 36  1  0  0  0  0
 13 37  1  0  0  0  0
 15 38  1  0  0  0  0
M  END
> <id>
EN300-174947

> <smiles>
Cl.C1CC2(CCN1)C3CC4CC(C3)CC2C4

> <MDLNUMBER>
MFCD31566971

> <IUPAC Name>
spiro[adamantane-2,4'-piperidine] hydrochloride

> <CAS>
1797363-68-8

> <Purity>
95

> <URL>
https://www.enaminestore.com/catalog/EN300-174947

> <Saltdate>
Cl

> <ROCS_ShapeQuery>
_x1247relevant_x1083L0AP1_x1305L0BP1_

> <ROCS_TanimotoCombo>
1.061 

> <ROCS_ShapeTanimoto>
0.546 

> <ROCS_ColorTanimoto>
0.515 

> <ROCS_RefTversky>
0.463 

> <ROCS_RefColorTversky>
0.673 

> <ROCS_RefTverskyCombo>
1.136 

> <ROCS_FitTversky>
1.489 

> <ROCS_FitColorTversky>
0.688 

> <ROCS_FitTverskyCombo>
2.176 

> <ROCS_ColorScore>
-6.497

> <ROCS_Overlap>
1142.041

> <ROCS_Rank>
98                  

$$$$
untitled-dbase-26943_1
  -OEChem-06232314403D

 19 20  0     1  0  0  0  0  0999 V2000
  -11.9441   16.4783  -38.8942 C   0  0  0  0  0  0  0  0  0  0  0  0
  -13.2821   16.1032  -39.5295 C   0  0  0  0  0  0  0  0  0  0  0  0
  -13.6203   14.0943  -38.0380 C   0  0  0  0  0  0  0  0  0  0  0  0
  -11.7569   15.8605  -37.5413 C   0  0  1  0  0  0  0  0  0  0  0  0
  -12.5632   14.6417  -37.1273 C   0  0  2  0  0  0  0  0  0  0  0  0
  -13.5007   14.5945  -39.4759 C   0  0  1  0  0  0  0  0  0  0  0  0
  -11.1141   14.5163  -37.4314 C   0  0  0  0  0  0  0  0  0  0  0  0
  -10.2128   14.2635  -36.4210 F   0  0  0  0  0  0  0  0  0  0  0  0
  -10.6739   13.8390  -38.5458 F   0  0  0  0  0  0  0  0  0  0  0  0
  -15.1362   14.1422  -40.4494 Br  0  0  0  0  0  0  0  0  0  0  0  0
  -11.1279   16.1790  -39.5492 H   0  0  0  0  0  0  0  0  0  0  0  0
  -11.8868   17.5606  -38.7860 H   0  0  0  0  0  0  0  0  0  0  0  0
  -14.0813   16.6308  -39.0240 H   0  0  0  0  0  0  0  0  0  0  0  0
  -13.2801   16.4145  -40.5682 H   0  0  0  0  0  0  0  0  0  0  0  0
  -13.5521   12.9989  -38.0377 H   0  0  0  0  0  0  0  0  0  0  0  0
  -14.6099   14.3328  -37.6292 H   0  0  0  0  0  0  0  0  0  0  0  0
  -11.4975   16.5836  -36.7959 H   0  0  0  0  0  0  0  0  0  0  0  0
  -12.8602   14.5789  -36.0754 H   0  0  0  0  0  0  0  0  0  0  0  0
  -12.7224   14.0718  -39.9955 H   0  0  0  0  0  0  0  0  0  0  0  0
  1  2  1  0  0  0  0
  1  4  1  0  0  0  0
  2  6  1  0  0  0  0
  3  5  1  0  0  0  0
  3  6  1  0  0  0  0
  4  5  1  0  0  0  0
  4  7  1  0  0  0  0
  5  7  1  0  0  0  0
  6 10  1  0  0  0  0
  7  8  1  0  0  0  0
  7  9  1  0  0  0  0
  1 11  1  0  0  0  0
  1 12  1  0  0  0  0
  2 13  1  0  0  0  0
  2 14  1  0  0  0  0
  3 15  1  0  0  0  0
  3 16  1  0  0  0  0
  4 17  1  0  0  0  0
  5 18  1  0  0  0  0
  6 19  1  0  0  0  0
M  END
> <id>
EN300-6760219

> <smiles>
FC1(F)C2CCC(Br)CC21

> <MDLNUMBER>
MFCD31924658

> <IUPAC Name>
3-bromo-7,7-difluorobicyclo[4.1.0]heptane

> <CAS>
2295490-15-0

> <Purity>
95

> <URL>
https://www.enaminestore.com/catalog/EN300-6760219

> <ROCS_ShapeQuery>
_x1247relevant_x1083L0AP1_x1305L0BP1_

> <ROCS_TanimotoCombo>
1.061 

> <ROCS_ShapeTanimoto>
0.452 

> <ROCS_ColorTanimoto>
0.609 

> <ROCS_RefTversky>
0.378 

> <ROCS_RefColorTversky>
0.582 

> <ROCS_RefTverskyCombo>
0.960 

> <ROCS_FitTversky>
1.770 

> <ROCS_FitColorTversky>
1.082 

> <ROCS_FitTverskyCombo>
2.852 

> <ROCS_ColorScore>
-5.486

> <ROCS_Overlap>
927.587

> <ROCS_Rank>
99                  

$$$$
untitled-dbase-37178_0
  -OEChem-06232314403D

 23 24  0     1  0  0  0  0  0999 V2000
  -11.4592   14.5035  -37.5781 C   0  0  0  0  0  0  0  0  0  0  0  0
  -13.8984   14.7239  -37.3997 C   0  0  0  0  0  0  0  0  0  0  0  0
  -14.0593   16.0676  -38.1227 C   0  0  0  0  0  0  0  0  0  0  0  0
  -12.8717   14.5746  -39.5631 C   0  0  0  0  0  0  0  0  0  0  0  0
  -11.6295   16.5664  -38.7173 C   0  0  0  0  0  0  0  0  0  0  0  0
  -12.7633   14.0203  -38.1520 C   0  0  1  0  0  0  0  0  0  0  0  0
  -12.9848   16.0506  -39.2144 C   0  0  2  0  0  0  0  0  0  0  0  0
   -9.6468   14.0581  -36.2017 C   0  0  0  0  0  0  0  0  0  0  0  0
  -10.9317   15.6572  -37.7907 N   0  0  0  0  0  0  0  0  0  0  0  0
  -10.8784   13.6128  -36.7493 O   0  0  0  0  0  0  0  0  0  0  0  0
  -13.3809   16.7755  -40.2822 F   0  0  0  0  0  0  0  0  0  0  0  0
  -13.6818   14.8653  -36.3354 H   0  0  0  0  0  0  0  0  0  0  0  0
  -14.8279   14.1490  -37.4812 H   0  0  0  0  0  0  0  0  0  0  0  0
  -15.0591   16.1418  -38.5663 H   0  0  0  0  0  0  0  0  0  0  0  0
  -13.9464   16.9146  -37.4380 H   0  0  0  0  0  0  0  0  0  0  0  0
  -12.0013   14.3571  -40.1913 H   0  0  0  0  0  0  0  0  0  0  0  0
  -13.7679   14.2146  -40.0813 H   0  0  0  0  0  0  0  0  0  0  0  0
  -10.9742   16.7380  -39.5798 H   0  0  0  0  0  0  0  0  0  0  0  0
  -11.7533   17.5422  -38.2341 H   0  0  0  0  0  0  0  0  0  0  0  0
  -12.8308   12.9300  -38.1118 H   0  0  0  0  0  0  0  0  0  0  0  0
   -9.2394   13.2863  -35.5441 H   0  0  0  0  0  0  0  0  0  0  0  0
   -9.8094   14.9816  -35.6402 H   0  0  0  0  0  0  0  0  0  0  0  0
   -8.9437   14.2481  -37.0160 H   0  0  0  0  0  0  0  0  0  0  0  0
  1  6  1  0  0  0  0
  1  9  2  0  0  0  0
  1 10  1  0  0  0  0
  2  3  1  0  0  0  0
  2  6  1  0  0  0  0
  3  7  1  0  0  0  0
  4  6  1  0  0  0  0
  4  7  1  0  0  0  0
  5  7  1  0  0  0  0
  5  9  1  0  0  0  0
  7 11  1  0  0  0  0
  8 10  1  0  0  0  0
  2 12  1  0  0  0  0
  2 13  1  0  0  0  0
  3 14  1  0  0  0  0
  3 15  1  0  0  0  0
  4 16  1  0  0  0  0
  4 17  1  0  0  0  0
  5 18  1  0  0  0  0
  5 19  1  0  0  0  0
  6 20  1  0  0  0  0
  8 21  1  0  0  0  0
  8 22  1  0  0  0  0
  8 23  1  0  0  0  0
M  END
> <id>
EN300-7426562

> <smiles>
COC1=NCC2(F)CCC1C2

> <MDLNUMBER>
MFCD32663324

> <IUPAC Name>
5-fluoro-2-methoxy-3-azabicyclo[3.2.1]oct-2-ene

> <CAS>
2413877-14-0

> <Purity>
95

> <URL>
https://www.enaminestore.com/catalog/EN300-7426562

> <ROCS_ShapeQuery>
_x1247relevant_x1083L0AP1_x1305L0BP1_

> <ROCS_TanimotoCombo>
1.061 

> <ROCS_ShapeTanimoto>
0.489 

> <ROCS_ColorTanimoto>
0.572 

> <ROCS_RefTversky>
0.409 

> <ROCS_RefColorTversky>
0.593 

> <ROCS_RefTverskyCombo>
1.001 

> <ROCS_FitTversky>
1.680 

> <ROCS_FitColorTversky>
0.941 

> <ROCS_FitTverskyCombo>
2.621 

> <ROCS_ColorScore>
-5.615

> <ROCS_Overlap>
1004.179

> <ROCS_Rank>
100                 

$$$$
untitled-dbase-22548_17
  -OEChem-06232314403D

 42 44  0     1  0  0  0  0  0999 V2000
   -9.2858   14.7414  -36.4533 C   0  0  0  0  0  0  0  0  0  0  0  0
  -13.5143   14.6697  -40.7170 C   0  0  0  0  0  0  0  0  0  0  0  0
   -9.6586   13.8994  -37.6791 C   0  0  0  0  0  0  0  0  0  0  0  0
  -10.7387   15.1885  -36.2469 C   0  0  0  0  0  0  0  0  0  0  0  0
  -13.8800   15.5382  -37.2274 C   0  0  0  0  0  0  0  0  0  0  0  0
  -13.2130   16.7861  -37.8407 C   0  0  0  0  0  0  0  0  0  0  0  0
  -12.2249   13.6776  -37.8031 C   0  0  0  0  0  0  0  0  0  0  0  0
  -11.0544   15.7791  -38.7841 C   0  0  0  0  0  0  0  0  0  0  0  0
  -13.5319   14.3940  -38.1872 C   0  0  2  0  0  0  0  0  0  0  0  0
  -12.4841   16.2705  -39.0842 C   0  0  1  0  0  0  0  0  0  0  0  0
  -11.0328   14.6622  -37.7035 C   0  0  0  0  0  0  0  0  0  0  0  0
  -15.2453   13.7767  -42.8087 C   0  0  0  0  0  0  0  0  0  0  0  0
  -15.7918   11.8561  -41.2848 C   0  0  0  0  0  0  0  0  0  0  0  0
  -16.3374   14.2048  -40.5819 C   0  0  0  0  0  0  0  0  0  0  0  0
  -15.3612   13.3196  -41.3553 C   0  0  0  0  0  0  0  0  0  0  0  0
  -13.2678   15.1013  -39.4285 N   0  0  0  0  0  0  0  0  0  0  0  0
   -8.2443   14.9739  -35.8778 O   0  0  0  0  0  0  0  0  0  0  0  0
  -13.2633   15.3260  -41.7251 O   0  0  0  0  0  0  0  0  0  0  0  0
  -14.0711   13.4197  -40.7420 O   0  0  0  0  0  0  0  0  0  0  0  0
   -9.0040   14.0522  -38.5407 H   0  0  0  0  0  0  0  0  0  0  0  0
   -9.7116   12.8307  -37.4480 H   0  0  0  0  0  0  0  0  0  0  0  0
  -11.2284   14.6448  -35.4330 H   0  0  0  0  0  0  0  0  0  0  0  0
  -10.8397   16.2626  -36.0794 H   0  0  0  0  0  0  0  0  0  0  0  0
  -13.5495   15.3541  -36.2011 H   0  0  0  0  0  0  0  0  0  0  0  0
  -14.9656   15.6910  -37.1997 H   0  0  0  0  0  0  0  0  0  0  0  0
  -13.9945   17.4979  -38.1342 H   0  0  0  0  0  0  0  0  0  0  0  0
  -12.5563   17.3001  -37.1344 H   0  0  0  0  0  0  0  0  0  0  0  0
  -12.3580   13.1343  -36.8600 H   0  0  0  0  0  0  0  0  0  0  0  0
  -12.0071   12.9216  -38.5694 H   0  0  0  0  0  0  0  0  0  0  0  0
  -10.6265   15.3872  -39.7167 H   0  0  0  0  0  0  0  0  0  0  0  0
  -10.4233   16.6235  -38.4822 H   0  0  0  0  0  0  0  0  0  0  0  0
  -14.3492   13.6739  -38.2879 H   0  0  0  0  0  0  0  0  0  0  0  0
  -12.4731   17.0039  -39.8965 H   0  0  0  0  0  0  0  0  0  0  0  0
  -14.9364   14.8267  -42.8635 H   0  0  0  0  0  0  0  0  0  0  0  0
  -14.5220   13.1719  -43.3653 H   0  0  0  0  0  0  0  0  0  0  0  0
  -16.2142   13.7125  -43.3171 H   0  0  0  0  0  0  0  0  0  0  0  0
  -15.8761   11.5240  -40.2438 H   0  0  0  0  0  0  0  0  0  0  0  0
  -15.0456   11.2066  -41.7565 H   0  0  0  0  0  0  0  0  0  0  0  0
  -16.7549   11.6941  -41.7796 H   0  0  0  0  0  0  0  0  0  0  0  0
  -16.4207   13.8772  -39.5393 H   0  0  0  0  0  0  0  0  0  0  0  0
  -16.0243   15.2539  -40.5905 H   0  0  0  0  0  0  0  0  0  0  0  0
  -17.3450   14.1386  -41.0082 H   0  0  0  0  0  0  0  0  0  0  0  0
  1  3  1  0  0  0  0
  1  4  1  0  0  0  0
  1 17  2  0  0  0  0
  2 16  1  0  0  0  0
  2 18  2  0  0  0  0
  2 19  1  0  0  0  0
  3 11  1  0  0  0  0
  4 11  1  0  0  0  0
  5  6  1  0  0  0  0
  5  9  1  0  0  0  0
  6 10  1  0  0  0  0
  7  9  1  0  0  0  0
  7 11  1  0  0  0  0
  8 10  1  0  0  0  0
  8 11  1  0  0  0  0
  9 16  1  0  0  0  0
 10 16  1  0  0  0  0
 12 15  1  0  0  0  0
 13 15  1  0  0  0  0
 14 15  1  0  0  0  0
 15 19  1  0  0  0  0
  3 20  1  0  0  0  0
  3 21  1  0  0  0  0
  4 22  1  0  0  0  0
  4 23  1  0  0  0  0
  5 24  1  0  0  0  0
  5 25  1  0  0  0  0
  6 26  1  0  0  0  0
  6 27  1  0  0  0  0
  7 28  1  0  0  0  0
  7 29  1  0  0  0  0
  8 30  1  0  0  0  0
  8 31  1  0  0  0  0
  9 32  1  0  0  0  0
 10 33  1  0  0  0  0
 12 34  1  0  0  0  0
 12 35  1  0  0  0  0
 12 36  1  0  0  0  0
 13 37  1  0  0  0  0
 13 38  1  0  0  0  0
 13 39  1  0  0  0  0
 14 40  1  0  0  0  0
 14 41  1  0  0  0  0
 14 42  1  0  0  0  0
M  END
> <id>
EN300-7492019

> <smiles>
CC(C)(C)OC(=O)N1C2CCC1CC3(CC(=O)C3)C2

> <MDLNUMBER>
MFCD32640433

> <IUPAC Name>
tert-butyl 3'-oxo-8-azaspiro[bicyclo[3.2.1]octane-3,1'-cyclobutane]-8-carboxylate

> <CAS>
2314381-33-2

> <Purity>
95

> <URL>
https://www.enaminestore.com/catalog/EN300-7492019

> <ROCS_ShapeQuery>
_x1247relevant_x1083L0AP1_x1305L0BP1_

> <ROCS_TanimotoCombo>
1.061 

> <ROCS_ShapeTanimoto>
0.546 

> <ROCS_ColorTanimoto>
0.515 

> <ROCS_RefTversky>
0.487 

> <ROCS_RefColorTversky>
0.686 

> <ROCS_RefTverskyCombo>
1.172 

> <ROCS_FitTversky>
1.287 

> <ROCS_FitColorTversky>
0.675 

> <ROCS_FitTverskyCombo>
1.962 

> <ROCS_ColorScore>
-6.631

> <ROCS_Overlap>
1204.978

> <ROCS_Rank>
101                 

$$$$
untitled-dbase-19169_1
  -OEChem-06232314403D

 31 33  0     1  0  0  0  0  0999 V2000
  -10.0423   14.5572  -35.3946 C   0  0  0  0  0  0  0  0  0  0  0  0
   -8.8271   14.2214  -36.2445 C   0  0  0  0  0  0  0  0  0  0  0  0
  -13.3297   14.7357  -39.7202 C   0  0  0  0  0  0  0  0  0  0  0  0
  -12.3800   15.9396  -39.7605 C   0  0  0  0  0  0  0  0  0  0  0  0
  -10.9351   15.5594  -36.1223 C   0  0  0  0  0  0  0  0  0  0  0  0
  -13.5556   16.0120  -37.7227 C   0  0  0  0  0  0  0  0  0  0  0  0
  -12.3681   13.9477  -37.5409 C   0  0  0  0  0  0  0  0  0  0  0  0
   -9.2508   13.7728  -37.6365 C   0  0  0  0  0  0  0  0  0  0  0  0
  -13.6077   14.5690  -38.2168 C   0  0  2  0  0  0  0  0  0  0  0  0
  -12.1375   16.2394  -38.2656 C   0  0  1  0  0  0  0  0  0  0  0  0
  -11.3209   15.1019  -37.5545 C   0  0  1  0  0  0  0  0  0  0  0  0
  -10.0960   14.7673  -38.2990 N   0  0  0  0  0  0  0  0  0  0  0  0
  -10.6079   13.6455  -35.1762 H   0  0  0  0  0  0  0  0  0  0  0  0
   -9.7204   14.9703  -34.4330 H   0  0  0  0  0  0  0  0  0  0  0  0
   -8.1693   15.0933  -36.3164 H   0  0  0  0  0  0  0  0  0  0  0  0
   -8.2523   13.4232  -35.7603 H   0  0  0  0  0  0  0  0  0  0  0  0
  -14.2511   14.9630  -40.2677 H   0  0  0  0  0  0  0  0  0  0  0  0
  -12.8801   13.8417  -40.1636 H   0  0  0  0  0  0  0  0  0  0  0  0
  -11.4796   15.7540  -40.3489 H   0  0  0  0  0  0  0  0  0  0  0  0
  -12.8912   16.7891  -40.2300 H   0  0  0  0  0  0  0  0  0  0  0  0
  -11.8522   15.6987  -35.5300 H   0  0  0  0  0  0  0  0  0  0  0  0
  -10.4350   16.5356  -36.1339 H   0  0  0  0  0  0  0  0  0  0  0  0
  -14.3051   16.6555  -38.1953 H   0  0  0  0  0  0  0  0  0  0  0  0
  -13.6418   16.1021  -36.6374 H   0  0  0  0  0  0  0  0  0  0  0  0
  -12.6137   13.6438  -36.5163 H   0  0  0  0  0  0  0  0  0  0  0  0
  -12.0321   13.0504  -38.0732 H   0  0  0  0  0  0  0  0  0  0  0  0
   -8.3704   13.5437  -38.2498 H   0  0  0  0  0  0  0  0  0  0  0  0
   -9.8184   12.8385  -37.5484 H   0  0  0  0  0  0  0  0  0  0  0  0
  -14.5335   14.0304  -38.0034 H   0  0  0  0  0  0  0  0  0  0  0  0
  -11.7516   17.2503  -38.0975 H   0  0  0  0  0  0  0  0  0  0  0  0
   -9.5529   15.6045  -38.5200 H   0  0  0  0  0  0  0  0  0  0  0  0
  1  2  1  0  0  0  0
  1  5  1  0  0  0  0
  2  8  1  0  0  0  0
  3  4  1  0  0  0  0
  3  9  1  0  0  0  0
  4 10  1  0  0  0  0
  5 11  1  0  0  0  0
  6  9  1  0  0  0  0
  6 10  1  0  0  0  0
  7  9  1  0  0  0  0
  7 11  1  0  0  0  0
  8 12  1  0  0  0  0
 10 11  1  0  0  0  0
 11 12  1  0  0  0  0
  1 13  1  0  0  0  0
  1 14  1  0  0  0  0
  2 15  1  0  0  0  0
  2 16  1  0  0  0  0
  3 17  1  0  0  0  0
  3 18  1  0  0  0  0
  4 19  1  0  0  0  0
  4 20  1  0  0  0  0
  5 21  1  0  0  0  0
  5 22  1  0  0  0  0
  6 23  1  0  0  0  0
  6 24  1  0  0  0  0
  7 25  1  0  0  0  0
  7 26  1  0  0  0  0
  8 27  1  0  0  0  0
  8 28  1  0  0  0  0
  9 29  1  0  0  0  0
 10 30  1  0  0  0  0
 12 31  1  0  0  0  0
M  END
> <id>
EN300-1629026

> <smiles>
C1CC2CC1CC32CCCCN3

> <IUPAC Name>
spiro[bicyclo[2.2.1]heptane-2,2'-piperidine]

> <CAS>
172-96-3

> <URL>
https://www.enaminestore.com/catalog/EN300-1629026

> <ROCS_ShapeQuery>
_x1247relevant_x1083L0AP1_x1305L0BP1_

> <ROCS_TanimotoCombo>
1.061 

> <ROCS_ShapeTanimoto>
0.505 

> <ROCS_ColorTanimoto>
0.556 

> <ROCS_RefTversky>
0.422 

> <ROCS_RefColorTversky>
0.702 

> <ROCS_RefTverskyCombo>
1.124 

> <ROCS_FitTversky>
1.639 

> <ROCS_FitColorTversky>
0.728 

> <ROCS_FitTverskyCombo>
2.367 

> <ROCS_ColorScore>
-6.775

> <ROCS_Overlap>
1037.713

> <ROCS_Rank>
102                 

$$$$
untitled-dbase-20927_0
  -OEChem-06232314403D

 17 18  0     1  0  0  0  0  0999 V2000
  -11.3636   15.6301  -37.8391 C   0  0  0  0  0  0  0  0  0  0  0  0
  -11.6300   14.3154  -37.8712 C   0  0  0  0  0  0  0  0  0  0  0  0
  -13.6312   15.3941  -37.4734 C   0  0  0  0  0  0  0  0  0  0  0  0
  -12.9909   16.1218  -39.6435 C   0  0  0  0  0  0  0  0  0  0  0  0
  -12.6523   16.3553  -38.1517 C   0  0  2  0  0  0  0  0  0  0  0  0
  -13.0946   14.1644  -38.2199 C   0  0  1  0  0  0  0  0  0  0  0  0
  -13.2404   14.5912  -39.6948 C   0  0  1  0  0  0  0  0  0  0  0  0
  -15.0216   14.1850  -40.3612 Br  0  0  0  0  0  0  0  0  0  0  0  0
  -10.4008   16.0854  -37.6711 H   0  0  0  0  0  0  0  0  0  0  0  0
  -10.9214   13.5139  -37.7373 H   0  0  0  0  0  0  0  0  0  0  0  0
  -13.5003   15.3337  -36.3850 H   0  0  0  0  0  0  0  0  0  0  0  0
  -14.6805   15.6224  -37.6880 H   0  0  0  0  0  0  0  0  0  0  0  0
  -13.8706   16.7072  -39.9326 H   0  0  0  0  0  0  0  0  0  0  0  0
  -12.1586   16.4100  -40.2955 H   0  0  0  0  0  0  0  0  0  0  0  0
  -12.6957   17.3885  -37.8063 H   0  0  0  0  0  0  0  0  0  0  0  0
  -13.5405   13.2141  -37.9225 H   0  0  0  0  0  0  0  0  0  0  0  0
  -12.5412   14.0800  -40.3649 H   0  0  0  0  0  0  0  0  0  0  0  0
  1  2  2  0  0  0  0
  1  5  1  0  0  0  0
  2  6  1  0  0  0  0
  3  5  1  0  0  0  0
  3  6  1  0  0  0  0
  4  5  1  0  0  0  0
  4  7  1  0  0  0  0
  6  7  1  0  0  0  0
  7  8  1  0  0  0  0
  1  9  1  0  0  0  0
  2 10  1  0  0  0  0
  3 11  1  0  0  0  0
  3 12  1  0  0  0  0
  4 13  1  0  0  0  0
  4 14  1  0  0  0  0
  5 15  1  0  0  0  0
  6 16  1  0  0  0  0
  7 17  1  0  0  0  0
M  END
> <id>
EN300-1899746

> <smiles>
BrC1CC2CC1C=C2

> <MDLNUMBER>
MFCD20622311

> <IUPAC Name>
5-bromobicyclo[2.2.1]hept-2-ene

> <CAS>
15403-87-9

> <URL>
https://www.enaminestore.com/catalog/EN300-1899746

> <ROCS_ShapeQuery>
_x1247relevant_x1083L0AP1_x1305L0BP1_

> <ROCS_TanimotoCombo>
1.061 

> <ROCS_ShapeTanimoto>
0.388 

> <ROCS_ColorTanimoto>
0.673 

> <ROCS_RefTversky>
0.331 

> <ROCS_RefColorTversky>
0.718 

> <ROCS_RefTverskyCombo>
1.049 

> <ROCS_FitTversky>
1.791 

> <ROCS_FitColorTversky>
0.916 

> <ROCS_FitTverskyCombo>
2.706 

> <ROCS_ColorScore>
-6.858

> <ROCS_Overlap>
810.926

> <ROCS_Rank>
103                 

$$$$
untitled-dbase-26490_0
  -OEChem-06232314403D

 25 27  0     1  0  0  0  0  0999 V2000
   -9.6569   13.7852  -36.1327 C   0  0  0  0  0  0  0  0  0  0  0  0
   -8.9753   14.9035  -36.6114 C   0  0  0  0  0  0  0  0  0  0  0  0
  -10.9775   13.5481  -36.5181 C   0  0  0  0  0  0  0  0  0  0  0  0
   -9.6076   15.7890  -37.4820 C   0  0  0  0  0  0  0  0  0  0  0  0
  -11.6360   14.4225  -37.3914 C   0  0  0  0  0  0  0  0  0  0  0  0
  -10.9274   15.5498  -37.8807 C   0  0  0  0  0  0  0  0  0  0  0  0
  -13.9237   15.6262  -37.7963 C   0  0  0  0  0  0  0  0  0  0  0  0
  -13.2740   14.4757  -39.4360 C   0  0  0  0  0  0  0  0  0  0  0  0
  -13.1312   14.2729  -37.8861 C   0  0  0  0  0  0  0  0  0  0  0  0
  -11.6707   16.4954  -38.8268 C   0  0  2  0  0  0  0  0  0  0  0  0
  -13.1218   15.9983  -39.0899 C   0  0  0  0  0  0  0  0  0  0  0  0
  -10.9833   16.6248  -40.1150 N   0  0  0  0  0  0  0  0  0  0  0  0
   -9.1601   13.0983  -35.4534 H   0  0  0  0  0  0  0  0  0  0  0  0
   -7.9498   15.0855  -36.3030 H   0  0  0  0  0  0  0  0  0  0  0  0
  -11.4991   12.6762  -36.1317 H   0  0  0  0  0  0  0  0  0  0  0  0
   -9.0683   16.6608  -37.8416 H   0  0  0  0  0  0  0  0  0  0  0  0
  -15.0072   15.5311  -37.9372 H   0  0  0  0  0  0  0  0  0  0  0  0
  -13.7411   16.2464  -36.9139 H   0  0  0  0  0  0  0  0  0  0  0  0
  -12.4942   14.0340  -40.0624 H   0  0  0  0  0  0  0  0  0  0  0  0
  -14.2517   14.1933  -39.8452 H   0  0  0  0  0  0  0  0  0  0  0  0
  -13.6574   13.4017  -37.4835 H   0  0  0  0  0  0  0  0  0  0  0  0
  -11.7246   17.4813  -38.3482 H   0  0  0  0  0  0  0  0  0  0  0  0
  -13.6682   16.6723  -39.7607 H   0  0  0  0  0  0  0  0  0  0  0  0
  -11.5033   17.2541  -40.6766 H   0  0  0  0  0  0  0  0  0  0  0  0
  -10.0727   16.9744  -39.9407 H   0  0  0  0  0  0  0  0  0  0  0  0
  1  2  2  0  0  0  0
  1  3  1  0  0  0  0
  2  4  1  0  0  0  0
  3  5  2  0  0  0  0
  4  6  2  0  0  0  0
  5  6  1  0  0  0  0
  5  9  1  0  0  0  0
  6 10  1  0  0  0  0
  7  9  1  0  0  0  0
  7 11  1  0  0  0  0
  8  9  1  0  0  0  0
  8 11  1  0  0  0  0
 10 11  1  0  0  0  0
 10 12  1  0  0  0  0
  1 13  1  0  0  0  0
  2 14  1  0  0  0  0
  3 15  1  0  0  0  0
  4 16  1  0  0  0  0
  7 17  1  0  0  0  0
  7 18  1  0  0  0  0
  8 19  1  0  0  0  0
  8 20  1  0  0  0  0
  9 21  1  0  0  0  0
 10 22  1  0  0  0  0
 11 23  1  0  0  0  0
 12 24  1  0  0  0  0
 12 25  1  0  0  0  0
M  END
> <id>
EN300-7427797

> <smiles>
NC1C2CC(C2)C=3C=CC=CC13

> <MDLNUMBER>
MFCD20716962

> <IUPAC Name>
tricyclo[7.1.1.0,2,7]undeca-2,4,6-trien-8-amine

> <CAS>
81569-22-4

> <Purity>
95

> <URL>
https://www.enaminestore.com/catalog/EN300-7427797

> <ROCS_ShapeQuery>
_x1247relevant_x1083L0AP1_x1305L0BP1_

> <ROCS_TanimotoCombo>
1.061 

> <ROCS_ShapeTanimoto>
0.503 

> <ROCS_ColorTanimoto>
0.558 

> <ROCS_RefTversky>
0.422 

> <ROCS_RefColorTversky>
0.694 

> <ROCS_RefTverskyCombo>
1.116 

> <ROCS_FitTversky>
1.623 

> <ROCS_FitColorTversky>
0.739 

> <ROCS_FitTverskyCombo>
2.362 

> <ROCS_ColorScore>
-6.686

> <ROCS_Overlap>
1037.401

> <ROCS_Rank>
104                 

$$$$
untitled-dbase-32060_0
  -OEChem-06232314403D

 27 29  0     0  0  0  0  0  0999 V2000
   -9.3074   15.1817  -36.2992 C   0  0  0  0  0  0  0  0  0  0  0  0
  -10.2640   16.1030  -36.7296 C   0  0  0  0  0  0  0  0  0  0  0  0
   -9.4323   13.8211  -36.6144 C   0  0  0  0  0  0  0  0  0  0  0  0
  -11.3417   15.6458  -37.4759 C   0  0  0  0  0  0  0  0  0  0  0  0
  -11.4674   14.2765  -37.7932 C   0  0  0  0  0  0  0  0  0  0  0  0
  -10.5158   13.3608  -37.3649 C   0  0  0  0  0  0  0  0  0  0  0  0
  -12.4839   16.3026  -39.5538 C   0  0  0  0  0  0  0  0  0  0  0  0
  -13.7850   15.9345  -37.4496 C   0  0  0  0  0  0  0  0  0  0  0  0
  -12.6218   14.8005  -39.9019 C   0  0  0  0  0  0  0  0  0  0  0  0
  -13.9229   14.4324  -37.7976 C   0  0  0  0  0  0  0  0  0  0  0  0
  -12.4675   16.5020  -38.0222 C   0  0  0  0  0  0  0  0  0  0  0  0
  -12.7015   13.9534  -38.6127 C   0  0  0  0  0  0  0  0  0  0  0  0
  -10.6199   12.0387  -37.6597 O   0  0  0  0  0  0  0  0  0  0  0  0
   -8.4576   15.5211  -35.7130 H   0  0  0  0  0  0  0  0  0  0  0  0
  -10.1611   17.1540  -36.4802 H   0  0  0  0  0  0  0  0  0  0  0  0
   -8.6743   13.1236  -36.2667 H   0  0  0  0  0  0  0  0  0  0  0  0
  -11.5603   16.6943  -39.9988 H   0  0  0  0  0  0  0  0  0  0  0  0
  -13.3131   16.8636  -40.0010 H   0  0  0  0  0  0  0  0  0  0  0  0
  -14.6428   16.4873  -37.8511 H   0  0  0  0  0  0  0  0  0  0  0  0
  -13.8110   16.0578  -36.3595 H   0  0  0  0  0  0  0  0  0  0  0  0
  -13.5171   14.6435  -40.5152 H   0  0  0  0  0  0  0  0  0  0  0  0
  -11.7636   14.4886  -40.5107 H   0  0  0  0  0  0  0  0  0  0  0  0
  -14.0132   13.8523  -36.8704 H   0  0  0  0  0  0  0  0  0  0  0  0
  -14.8464   14.2676  -38.3655 H   0  0  0  0  0  0  0  0  0  0  0  0
  -12.3425   17.5574  -37.7603 H   0  0  0  0  0  0  0  0  0  0  0  0
  -12.7810   12.8879  -38.8484 H   0  0  0  0  0  0  0  0  0  0  0  0
   -9.8717   11.5474  -37.2824 H   0  0  0  0  0  0  0  0  0  0  0  0
  1  2  2  0  0  0  0
  1  3  1  0  0  0  0
  2  4  1  0  0  0  0
  3  6  2  0  0  0  0
  4  5  2  0  0  0  0
  4 11  1  0  0  0  0
  5  6  1  0  0  0  0
  5 12  1  0  0  0  0
  6 13  1  0  0  0  0
  7  9  1  0  0  0  0
  7 11  1  0  0  0  0
  8 10  1  0  0  0  0
  8 11  1  0  0  0  0
  9 12  1  0  0  0  0
 10 12  1  0  0  0  0
  1 14  1  0  0  0  0
  2 15  1  0  0  0  0
  3 16  1  0  0  0  0
  7 17  1  0  0  0  0
  7 18  1  0  0  0  0
  8 19  1  0  0  0  0
  8 20  1  0  0  0  0
  9 21  1  0  0  0  0
  9 22  1  0  0  0  0
 10 23  1  0  0  0  0
 10 24  1  0  0  0  0
 11 25  1  0  0  0  0
 12 26  1  0  0  0  0
 13 27  1  0  0  0  0
M  END
> <id>
EN300-8236537

> <smiles>
OC=1C=CC=C2C3CCC(CC3)C12

> <MDLNUMBER>
MFCD24717352

> <IUPAC Name>
tricyclo[6.2.2.0,2,7]dodeca-2(7),3,5-trien-3-ol

> <CAS>
52960-97-1

> <Purity>
95

> <URL>
https://www.enaminestore.com/catalog/EN300-8236537

> <ROCS_ShapeQuery>
_x1247relevant_x1083L0AP1_x1305L0BP1_

> <ROCS_TanimotoCombo>
1.060 

> <ROCS_ShapeTanimoto>
0.492 

> <ROCS_ColorTanimoto>
0.569 

> <ROCS_RefTversky>
0.422 

> <ROCS_RefColorTversky>
0.704 

> <ROCS_RefTverskyCombo>
1.126 

> <ROCS_FitTversky>
1.505 

> <ROCS_FitColorTversky>
0.747 

> <ROCS_FitTverskyCombo>
2.252 

> <ROCS_ColorScore>
-6.785

> <ROCS_Overlap>
1039.674

> <ROCS_Rank>
105                 

$$$$
untitled-dbase-29175_0
  -OEChem-06232314403D

 24 26  0     1  0  0  0  0  0999 V2000
   -9.8160   14.0461  -36.3039 C   0  0  0  0  0  0  0  0  0  0  0  0
   -9.6778   14.3585  -37.8164 C   0  0  0  0  0  0  0  0  0  0  0  0
  -10.7759   15.2588  -36.2000 C   0  0  0  0  0  0  0  0  0  0  0  0
  -13.8106   15.8041  -39.2389 C   0  0  0  0  0  0  0  0  0  0  0  0
  -14.2239   15.5683  -37.7896 C   0  0  0  0  0  0  0  0  0  0  0  0
  -12.3351   15.4317  -39.3015 C   0  0  2  0  0  0  0  0  0  0  0  0
  -12.2392   14.3756  -38.1695 C   0  0  1  0  0  0  0  0  0  0  0  0
  -11.3024   16.3156  -38.5348 C   0  0  1  0  0  0  0  0  0  0  0  0
  -10.9955   15.1003  -37.6882 C   0  0  0  0  0  0  0  0  0  0  0  0
  -13.4416   14.4462  -37.3644 O   0  0  0  0  0  0  0  0  0  0  0  0
  -10.0219   17.1210  -39.5035 Cl  0  0  0  0  0  0  0  0  0  0  0  0
  -10.2991   13.0843  -36.0963 H   0  0  0  0  0  0  0  0  0  0  0  0
   -8.8963   14.1172  -35.7175 H   0  0  0  0  0  0  0  0  0  0  0  0
   -8.8044   14.9822  -38.0349 H   0  0  0  0  0  0  0  0  0  0  0  0
   -9.6570   13.4858  -38.4748 H   0  0  0  0  0  0  0  0  0  0  0  0
  -11.6371   15.1175  -35.5425 H   0  0  0  0  0  0  0  0  0  0  0  0
  -10.2687   16.1891  -35.9182 H   0  0  0  0  0  0  0  0  0  0  0  0
  -14.3792   15.1297  -39.8905 H   0  0  0  0  0  0  0  0  0  0  0  0
  -14.0061   16.8302  -39.5629 H   0  0  0  0  0  0  0  0  0  0  0  0
  -13.9776   16.4225  -37.1512 H   0  0  0  0  0  0  0  0  0  0  0  0
  -15.2889   15.3408  -37.6944 H   0  0  0  0  0  0  0  0  0  0  0  0
  -11.9944   15.0754  -40.2800 H   0  0  0  0  0  0  0  0  0  0  0  0
  -12.0826   13.3507  -38.5219 H   0  0  0  0  0  0  0  0  0  0  0  0
  -11.7742   17.1239  -37.9627 H   0  0  0  0  0  0  0  0  0  0  0  0
  1  2  1  0  0  0  0
  1  3  1  0  0  0  0
  2  9  1  0  0  0  0
  3  9  1  0  0  0  0
  4  5  1  0  0  0  0
  4  6  1  0  0  0  0
  5 10  1  0  0  0  0
  6  7  1  0  0  0  0
  6  8  1  0  0  0  0
  7  9  1  0  0  0  0
  7 10  1  0  0  0  0
  8  9  1  0  0  0  0
  8 11  1  0  0  0  0
  1 12  1  0  0  0  0
  1 13  1  0  0  0  0
  2 14  1  0  0  0  0
  2 15  1  0  0  0  0
  3 16  1  0  0  0  0
  3 17  1  0  0  0  0
  4 18  1  0  0  0  0
  4 19  1  0  0  0  0
  5 20  1  0  0  0  0
  5 21  1  0  0  0  0
  6 22  1  0  0  0  0
  7 23  1  0  0  0  0
  8 24  1  0  0  0  0
M  END
> <id>
EN300-359556

> <smiles>
ClC1C2CCOC2C31CCC3

> <MDLNUMBER>
MFCD30538142

> <IUPAC Name>
7-chloro-4-oxaspiro[bicyclo[3.2.0]heptane-6,1'-cyclobutane]

> <CAS>
2138280-14-3

> <URL>
https://www.enaminestore.com/catalog/EN300-359556

> <ROCS_ShapeQuery>
_x1247relevant_x1083L0AP1_x1305L0BP1_

> <ROCS_TanimotoCombo>
1.060 

> <ROCS_ShapeTanimoto>
0.469 

> <ROCS_ColorTanimoto>
0.591 

> <ROCS_RefTversky>
0.395 

> <ROCS_RefColorTversky>
0.666 

> <ROCS_RefTverskyCombo>
1.062 

> <ROCS_FitTversky>
1.661 

> <ROCS_FitColorTversky>
0.840 

> <ROCS_FitTverskyCombo>
2.501 

> <ROCS_ColorScore>
-6.366

> <ROCS_Overlap>
971.616

> <ROCS_Rank>
106                 

$$$$
untitled-dbase-51128_0
  -OEChem-06232314403D

 28 30  0     0  0  0  0  0  0999 V2000
   -9.3060   15.1810  -36.3002 C   0  0  0  0  0  0  0  0  0  0  0  0
  -10.2609   16.1031  -36.7329 C   0  0  0  0  0  0  0  0  0  0  0  0
   -9.4340   13.8198  -36.6113 C   0  0  0  0  0  0  0  0  0  0  0  0
  -11.3400   15.6460  -37.4773 C   0  0  0  0  0  0  0  0  0  0  0  0
  -11.4688   14.2760  -37.7904 C   0  0  0  0  0  0  0  0  0  0  0  0
  -10.5189   13.3596  -37.3599 C   0  0  0  0  0  0  0  0  0  0  0  0
  -12.4818   16.2991  -39.5565 C   0  0  0  0  0  0  0  0  0  0  0  0
  -13.7826   15.9400  -37.4505 C   0  0  0  0  0  0  0  0  0  0  0  0
  -12.6232   14.7962  -39.9000 C   0  0  0  0  0  0  0  0  0  0  0  0
  -13.9239   14.4372  -37.7940 C   0  0  0  0  0  0  0  0  0  0  0  0
  -12.4642   16.5029  -38.0255 C   0  0  0  0  0  0  0  0  0  0  0  0
  -12.7039   13.9531  -38.6083 C   0  0  0  0  0  0  0  0  0  0  0  0
  -10.6255   11.9880  -37.6595 N   0  0  0  0  0  0  0  0  0  0  0  0
   -8.4544   15.5212  -35.7172 H   0  0  0  0  0  0  0  0  0  0  0  0
  -10.1552   17.1546  -36.4871 H   0  0  0  0  0  0  0  0  0  0  0  0
   -8.6739   13.1257  -36.2601 H   0  0  0  0  0  0  0  0  0  0  0  0
  -11.5575   16.6875  -40.0028 H   0  0  0  0  0  0  0  0  0  0  0  0
  -13.3100   16.8605  -40.0051 H   0  0  0  0  0  0  0  0  0  0  0  0
  -14.6394   16.4935  -37.8530 H   0  0  0  0  0  0  0  0  0  0  0  0
  -13.8073   16.0668  -36.3607 H   0  0  0  0  0  0  0  0  0  0  0  0
  -13.5195   14.6401  -40.5122 H   0  0  0  0  0  0  0  0  0  0  0  0
  -11.7654   14.4809  -40.5076 H   0  0  0  0  0  0  0  0  0  0  0  0
  -14.0150   13.8599  -36.8650 H   0  0  0  0  0  0  0  0  0  0  0  0
  -14.8484   14.2730  -38.3604 H   0  0  0  0  0  0  0  0  0  0  0  0
  -12.3373   17.5590  -37.7672 H   0  0  0  0  0  0  0  0  0  0  0  0
  -12.7919   12.8886  -38.8441 H   0  0  0  0  0  0  0  0  0  0  0  0
  -11.4289   11.6555  -38.1558 H   0  0  0  0  0  0  0  0  0  0  0  0
   -9.9457   11.3517  -37.2915 H   0  0  0  0  0  0  0  0  0  0  0  0
  1  2  2  0  0  0  0
  1  3  1  0  0  0  0
  2  4  1  0  0  0  0
  3  6  2  0  0  0  0
  4  5  2  0  0  0  0
  4 11  1  0  0  0  0
  5  6  1  0  0  0  0
  5 12  1  0  0  0  0
  6 13  1  0  0  0  0
  7  9  1  0  0  0  0
  7 11  1  0  0  0  0
  8 10  1  0  0  0  0
  8 11  1  0  0  0  0
  9 12  1  0  0  0  0
 10 12  1  0  0  0  0
  1 14  1  0  0  0  0
  2 15  1  0  0  0  0
  3 16  1  0  0  0  0
  7 17  1  0  0  0  0
  7 18  1  0  0  0  0
  8 19  1  0  0  0  0
  8 20  1  0  0  0  0
  9 21  1  0  0  0  0
  9 22  1  0  0  0  0
 10 23  1  0  0  0  0
 10 24  1  0  0  0  0
 11 25  1  0  0  0  0
 12 26  1  0  0  0  0
 13 27  1  0  0  0  0
 13 28  1  0  0  0  0
M  END
> <id>
EN300-8136505

> <smiles>
NC=1C=CC=C2C3CCC(CC3)C12

> <MDLNUMBER>
MFCD20696131

> <IUPAC Name>
tricyclo[6.2.2.0,2,7]dodeca-2(7),3,5-trien-3-amine

> <CAS>
668492-14-6

> <URL>
https://www.enaminestore.com/catalog/EN300-8136505

> <ROCS_ShapeQuery>
_x1247relevant_x1083L0AP1_x1305L0BP1_

> <ROCS_TanimotoCombo>
1.060 

> <ROCS_ShapeTanimoto>
0.491 

> <ROCS_ColorTanimoto>
0.569 

> <ROCS_RefTversky>
0.422 

> <ROCS_RefColorTversky>
0.704 

> <ROCS_RefTverskyCombo>
1.126 

> <ROCS_FitTversky>
1.507 

> <ROCS_FitColorTversky>
0.747 

> <ROCS_FitTverskyCombo>
2.254 

> <ROCS_ColorScore>
-6.785

> <ROCS_Overlap>
1038.542

> <ROCS_Rank>
107                 

$$$$
untitled-dbase-51155_0
  -OEChem-06232314403D

 28 30  0     0  0  0  0  0  0999 V2000
   -9.3060   15.1810  -36.3002 C   0  0  0  0  0  0  0  0  0  0  0  0
  -10.2609   16.1031  -36.7329 C   0  0  0  0  0  0  0  0  0  0  0  0
   -9.4340   13.8198  -36.6113 C   0  0  0  0  0  0  0  0  0  0  0  0
  -11.3400   15.6460  -37.4773 C   0  0  0  0  0  0  0  0  0  0  0  0
  -11.4688   14.2760  -37.7904 C   0  0  0  0  0  0  0  0  0  0  0  0
  -10.5189   13.3596  -37.3599 C   0  0  0  0  0  0  0  0  0  0  0  0
  -12.4818   16.2991  -39.5565 C   0  0  0  0  0  0  0  0  0  0  0  0
  -13.7826   15.9400  -37.4505 C   0  0  0  0  0  0  0  0  0  0  0  0
  -12.6232   14.7962  -39.9000 C   0  0  0  0  0  0  0  0  0  0  0  0
  -13.9239   14.4372  -37.7940 C   0  0  0  0  0  0  0  0  0  0  0  0
  -12.4642   16.5029  -38.0255 C   0  0  0  0  0  0  0  0  0  0  0  0
  -12.7039   13.9531  -38.6083 C   0  0  0  0  0  0  0  0  0  0  0  0
  -10.6255   11.9880  -37.6595 N   0  0  0  0  0  0  0  0  0  0  0  0
   -8.4544   15.5212  -35.7172 H   0  0  0  0  0  0  0  0  0  0  0  0
  -10.1552   17.1546  -36.4871 H   0  0  0  0  0  0  0  0  0  0  0  0
   -8.6739   13.1257  -36.2601 H   0  0  0  0  0  0  0  0  0  0  0  0
  -11.5575   16.6875  -40.0028 H   0  0  0  0  0  0  0  0  0  0  0  0
  -13.3100   16.8605  -40.0051 H   0  0  0  0  0  0  0  0  0  0  0  0
  -14.6394   16.4935  -37.8530 H   0  0  0  0  0  0  0  0  0  0  0  0
  -13.8073   16.0668  -36.3607 H   0  0  0  0  0  0  0  0  0  0  0  0
  -13.5195   14.6401  -40.5122 H   0  0  0  0  0  0  0  0  0  0  0  0
  -11.7654   14.4809  -40.5076 H   0  0  0  0  0  0  0  0  0  0  0  0
  -14.0150   13.8599  -36.8650 H   0  0  0  0  0  0  0  0  0  0  0  0
  -14.8484   14.2730  -38.3604 H   0  0  0  0  0  0  0  0  0  0  0  0
  -12.3373   17.5590  -37.7672 H   0  0  0  0  0  0  0  0  0  0  0  0
  -12.7919   12.8886  -38.8441 H   0  0  0  0  0  0  0  0  0  0  0  0
  -11.4289   11.6555  -38.1558 H   0  0  0  0  0  0  0  0  0  0  0  0
   -9.9457   11.3517  -37.2915 H   0  0  0  0  0  0  0  0  0  0  0  0
  1  2  2  0  0  0  0
  1  3  1  0  0  0  0
  2  4  1  0  0  0  0
  3  6  2  0  0  0  0
  4  5  2  0  0  0  0
  4 11  1  0  0  0  0
  5  6  1  0  0  0  0
  5 12  1  0  0  0  0
  6 13  1  0  0  0  0
  7  9  1  0  0  0  0
  7 11  1  0  0  0  0
  8 10  1  0  0  0  0
  8 11  1  0  0  0  0
  9 12  1  0  0  0  0
 10 12  1  0  0  0  0
  1 14  1  0  0  0  0
  2 15  1  0  0  0  0
  3 16  1  0  0  0  0
  7 17  1  0  0  0  0
  7 18  1  0  0  0  0
  8 19  1  0  0  0  0
  8 20  1  0  0  0  0
  9 21  1  0  0  0  0
  9 22  1  0  0  0  0
 10 23  1  0  0  0  0
 10 24  1  0  0  0  0
 11 25  1  0  0  0  0
 12 26  1  0  0  0  0
 13 27  1  0  0  0  0
 13 28  1  0  0  0  0
M  END
> <id>
EN300-37327984

> <smiles>
Cl.NC=1C=CC=C2C3CCC(CC3)C12

> <MDLNUMBER>
MFCD34601328

> <IUPAC Name>
tricyclo[6.2.2.0,2,7]dodeca-2(7),3,5-trien-3-amine hydrochloride

> <CAS>
2758004-40-7

> <Purity>
95

> <URL>
https://www.enaminestore.com/catalog/EN300-37327984

> <ROCS_ShapeQuery>
_x1247relevant_x1083L0AP1_x1305L0BP1_

> <ROCS_TanimotoCombo>
1.060 

> <ROCS_ShapeTanimoto>
0.491 

> <ROCS_ColorTanimoto>
0.569 

> <ROCS_RefTversky>
0.422 

> <ROCS_RefColorTversky>
0.704 

> <ROCS_RefTverskyCombo>
1.126 

> <ROCS_FitTversky>
1.507 

> <ROCS_FitColorTversky>
0.747 

> <ROCS_FitTverskyCombo>
2.254 

> <ROCS_ColorScore>
-6.785

> <ROCS_Overlap>
1038.542

> <ROCS_Rank>
108                 

$$$$
untitled-dbase-36832_0
  -OEChem-06232314403D

 23 25  0     1  0  0  0  0  0999 V2000
  -13.3359   14.8106  -39.5016 C   0  0  0  0  0  0  0  0  0  0  0  0
  -13.1395   16.1270  -39.3252 C   0  0  0  0  0  0  0  0  0  0  0  0
  -10.6612   13.5965  -37.0232 C   0  0  0  0  0  0  0  0  0  0  0  0
   -9.7414   14.5532  -36.3197 C   0  0  0  0  0  0  0  0  0  0  0  0
  -10.3760   15.9031  -36.6208 C   0  0  0  0  0  0  0  0  0  0  0  0
  -13.3190   15.1835  -37.2303 C   0  0  0  0  0  0  0  0  0  0  0  0
  -12.8774   14.1162  -38.2382 C   0  0  2  0  0  0  0  0  0  0  0  0
  -12.5596   16.3140  -37.9397 C   0  0  1  0  0  0  0  0  0  0  0  0
  -11.3428   14.2408  -38.2013 C   0  0  1  0  0  0  0  0  0  0  0  0
  -11.1084   15.7654  -37.9607 C   0  0  2  0  0  0  0  0  0  0  0  0
  -10.7871   12.4179  -36.7170 O   0  0  0  0  0  0  0  0  0  0  0  0
  -13.6946   14.3305  -40.3978 H   0  0  0  0  0  0  0  0  0  0  0  0
  -13.3129   16.9039  -40.0524 H   0  0  0  0  0  0  0  0  0  0  0  0
   -9.7032   14.3515  -35.2468 H   0  0  0  0  0  0  0  0  0  0  0  0
   -8.7435   14.4731  -36.7604 H   0  0  0  0  0  0  0  0  0  0  0  0
  -11.0628   16.1808  -35.8128 H   0  0  0  0  0  0  0  0  0  0  0  0
   -9.6184   16.6930  -36.6645 H   0  0  0  0  0  0  0  0  0  0  0  0
  -14.4061   15.3379  -37.2086 H   0  0  0  0  0  0  0  0  0  0  0  0
  -12.9800   14.9845  -36.2091 H   0  0  0  0  0  0  0  0  0  0  0  0
  -13.2982   13.1248  -38.0676 H   0  0  0  0  0  0  0  0  0  0  0  0
  -12.6998   17.3075  -37.5121 H   0  0  0  0  0  0  0  0  0  0  0  0
  -10.8550   13.9009  -39.1220 H   0  0  0  0  0  0  0  0  0  0  0  0
  -10.5154   16.2064  -38.7714 H   0  0  0  0  0  0  0  0  0  0  0  0
  1  2  2  0  0  0  0
  1  7  1  0  0  0  0
  2  8  1  0  0  0  0
  3  4  1  0  0  0  0
  3  9  1  0  0  0  0
  3 11  2  0  0  0  0
  4  5  1  0  0  0  0
  5 10  1  1  0  0  0
  6  7  1  0  0  0  0
  6  8  1  0  0  0  0
  7  9  1  1  0  0  0
  8 10  1  0  0  0  0
  9 10  1  0  0  0  0
  1 12  1  0  0  0  0
  2 13  1  0  0  0  0
  4 14  1  0  0  0  0
  4 15  1  0  0  0  0
  5 16  1  0  0  0  0
  5 17  1  0  0  0  0
  6 18  1  0  0  0  0
  6 19  1  0  0  0  0
  7 20  1  0  0  0  0
  8 21  1  0  0  0  0
  9 22  1  0  0  0  0
 10 23  1  0  0  0  0
M  END
> <id>
EN300-26621889

> <smiles>
O=C1CC[C@@H]2C3CC(C=C3)[C@@H]21 |&1:4,10,r|

> <MDLNUMBER>
MFCD32662647

> <IUPAC Name>
rac-(2R,6S)-tricyclo[5.2.1.0,2,6]dec-8-en-3-one

> <CAS>
2413864-36-3

> <Purity>
95

> <URL>
https://www.enaminestore.com/catalog/EN300-26621889

> <ROCS_ShapeQuery>
_x1247relevant_x1083L0AP1_x1305L0BP1_

> <ROCS_TanimotoCombo>
1.060 

> <ROCS_ShapeTanimoto>
0.476 

> <ROCS_ColorTanimoto>
0.583 

> <ROCS_RefTversky>
0.403 

> <ROCS_RefColorTversky>
0.696 

> <ROCS_RefTverskyCombo>
1.099 

> <ROCS_FitTversky>
1.625 

> <ROCS_FitColorTversky>
0.783 

> <ROCS_FitTverskyCombo>
2.407 

> <ROCS_ColorScore>
-6.684

> <ROCS_Overlap>
990.005

> <ROCS_Rank>
109                 

$$$$
untitled-dbase-31404_0
  -OEChem-06232314403D

 19 21  0     1  0  0  0  0  0999 V2000
  -10.8147   13.3476  -37.0858 C   0  0  0  0  0  0  0  0  0  0  0  0
   -9.5740   13.8000  -36.6272 C   0  0  0  0  0  0  0  0  0  0  0  0
  -10.1327   16.1255  -37.1510 C   0  0  0  0  0  0  0  0  0  0  0  0
  -11.6914   14.2971  -37.5562 C   0  0  0  0  0  0  0  0  0  0  0  0
  -11.3544   15.6699  -37.5884 C   0  0  0  0  0  0  0  0  0  0  0  0
   -9.2373   15.1708  -36.6596 C   0  0  0  0  0  0  0  0  0  0  0  0
  -13.0351   14.6133  -39.6068 C   0  0  0  0  0  0  0  0  0  0  0  0
  -12.7140   15.9213  -39.6374 C   0  0  0  0  0  0  0  0  0  0  0  0
  -13.0668   14.2111  -38.1541 C   0  0  2  0  0  0  0  0  0  0  0  0
  -12.5400   16.3563  -38.2045 C   0  0  1  0  0  0  0  0  0  0  0  0
  -13.5568   15.4823  -37.6000 O   0  0  0  0  0  0  0  0  0  0  0  0
   -7.5376   15.7227  -36.0348 Br  0  0  0  0  0  0  0  0  0  0  0  0
  -11.0674   12.2943  -37.0713 H   0  0  0  0  0  0  0  0  0  0  0  0
   -8.8623   13.0701  -36.2467 H   0  0  0  0  0  0  0  0  0  0  0  0
   -9.8838   17.1799  -37.1929 H   0  0  0  0  0  0  0  0  0  0  0  0
  -13.1909   13.9687  -40.4565 H   0  0  0  0  0  0  0  0  0  0  0  0
  -12.5630   16.5265  -40.5165 H   0  0  0  0  0  0  0  0  0  0  0  0
  -13.7169   13.3905  -37.8524 H   0  0  0  0  0  0  0  0  0  0  0  0
  -12.7331   17.3971  -37.9465 H   0  0  0  0  0  0  0  0  0  0  0  0
  1  2  1  0  0  0  0
  1  4  2  0  0  0  0
  2  6  2  0  0  0  0
  3  5  2  0  0  0  0
  3  6  1  0  0  0  0
  4  5  1  0  0  0  0
  4  9  1  0  0  0  0
  5 10  1  0  0  0  0
  6 12  1  0  0  0  0
  7  8  2  0  0  0  0
  7  9  1  0  0  0  0
  8 10  1  0  0  0  0
  9 11  1  0  0  0  0
 10 11  1  0  0  0  0
  1 13  1  0  0  0  0
  2 14  1  0  0  0  0
  3 15  1  0  0  0  0
  7 16  1  0  0  0  0
  8 17  1  0  0  0  0
  9 18  1  0  0  0  0
 10 19  1  0  0  0  0
M  END
> <id>
EN300-182331

> <smiles>
BrC=1C=CC=2C3OC(C=C3)C2C1

> <MDLNUMBER>
MFCD32668394

> <IUPAC Name>
4-bromo-11-oxatricyclo[6.2.1.0,2,7]undeca-2,4,6,9-tetraene

> <CAS>
477907-60-1

> <Purity>
95

> <URL>
https://www.enaminestore.com/catalog/EN300-182331

> <ROCS_ShapeQuery>
_x1247relevant_x1083L0AP1_x1305L0BP1_

> <ROCS_TanimotoCombo>
1.059 

> <ROCS_ShapeTanimoto>
0.501 

> <ROCS_ColorTanimoto>
0.559 

> <ROCS_RefTversky>
0.423 

> <ROCS_RefColorTversky>
0.710 

> <ROCS_RefTverskyCombo>
1.133 

> <ROCS_FitTversky>
1.583 

> <ROCS_FitColorTversky>
0.724 

> <ROCS_FitTverskyCombo>
2.307 

> <ROCS_ColorScore>
-6.854

> <ROCS_Overlap>
1040.455

> <ROCS_Rank>
110                 

$$$$
untitled-dbase-2214_0
  -OEChem-06232314403D

 32 34  0     0  0  0  0  0  0999 V2000
  -10.9053   15.1666  -38.7013 C   0  0  0  0  0  0  0  0  0  0  0  0
  -12.4607   16.9366  -37.8221 C   0  0  0  0  0  0  0  0  0  0  0  0
  -12.9408   15.8218  -40.0253 C   0  0  0  0  0  0  0  0  0  0  0  0
  -12.3587   14.6864  -36.7057 C   0  0  0  0  0  0  0  0  0  0  0  0
  -12.8387   13.5716  -38.9090 C   0  0  0  0  0  0  0  0  0  0  0  0
  -14.3932   15.3416  -38.0299 C   0  0  0  0  0  0  0  0  0  0  0  0
  -11.8173   16.3513  -39.1021 C   0  0  0  0  0  0  0  0  0  0  0  0
  -11.7137   14.0682  -37.9694 C   0  0  0  0  0  0  0  0  0  0  0  0
  -13.2785   15.8519  -37.1032 C   0  0  0  0  0  0  0  0  0  0  0  0
  -13.7559   14.7433  -39.2939 C   0  0  0  0  0  0  0  0  0  0  0  0
  -11.0011   17.4272  -39.8243 C   0  0  0  0  0  0  0  0  0  0  0  0
  -10.7960   12.9053  -37.5809 C   0  0  0  0  0  0  0  0  0  0  0  0
  -10.4471   16.9127  -40.9309 F   0  0  0  0  0  0  0  0  0  0  0  0
  -11.7973   18.4491  -40.1676 F   0  0  0  0  0  0  0  0  0  0  0  0
  -10.0304   17.8799  -39.0187 F   0  0  0  0  0  0  0  0  0  0  0  0
   -9.8248   13.3434  -36.7679 F   0  0  0  0  0  0  0  0  0  0  0  0
  -11.5031   11.9588  -36.9482 F   0  0  0  0  0  0  0  0  0  0  0  0
  -10.2413   12.3762  -38.6802 F   0  0  0  0  0  0  0  0  0  0  0  0
  -14.0814   16.6144  -35.4928 Br  0  0  0  0  0  0  0  0  0  0  0  0
  -15.1676   14.0919  -40.4779 Br  0  0  0  0  0  0  0  0  0  0  0  0
  -10.4283   14.7443  -39.5962 H   0  0  0  0  0  0  0  0  0  0  0  0
  -10.0925   15.5243  -38.0547 H   0  0  0  0  0  0  0  0  0  0  0  0
  -11.6797   17.3310  -37.1577 H   0  0  0  0  0  0  0  0  0  0  0  0
  -13.1022   17.7895  -38.0827 H   0  0  0  0  0  0  0  0  0  0  0  0
  -13.5927   16.6505  -40.3338 H   0  0  0  0  0  0  0  0  0  0  0  0
  -12.5054   15.4133  -40.9476 H   0  0  0  0  0  0  0  0  0  0  0  0
  -12.9267   13.9189  -36.1624 H   0  0  0  0  0  0  0  0  0  0  0  0
  -11.5756   15.0338  -36.0180 H   0  0  0  0  0  0  0  0  0  0  0  0
  -12.4013   13.1161  -39.8079 H   0  0  0  0  0  0  0  0  0  0  0  0
  -13.4172   12.7799  -38.4135 H   0  0  0  0  0  0  0  0  0  0  0  0
  -15.0060   14.5883  -37.5152 H   0  0  0  0  0  0  0  0  0  0  0  0
  -15.0772   16.1599  -38.2950 H   0  0  0  0  0  0  0  0  0  0  0  0
  1  7  1  0  0  0  0
  1  8  1  0  0  0  0
  2  7  1  0  0  0  0
  2  9  1  0  0  0  0
  3  7  1  0  0  0  0
  3 10  1  0  0  0  0
  4  8  1  0  0  0  0
  4  9  1  0  0  0  0
  5  8  1  0  0  0  0
  5 10  1  0  0  0  0
  6  9  1  0  0  0  0
  6 10  1  0  0  0  0
  7 11  1  0  0  0  0
  8 12  1  0  0  0  0
  9 19  1  0  0  0  0
 10 20  1  0  0  0  0
 11 13  1  0  0  0  0
 11 14  1  0  0  0  0
 11 15  1  0  0  0  0
 12 16  1  0  0  0  0
 12 17  1  0  0  0  0
 12 18  1  0  0  0  0
  1 21  1  0  0  0  0
  1 22  1  0  0  0  0
  2 23  1  0  0  0  0
  2 24  1  0  0  0  0
  3 25  1  0  0  0  0
  3 26  1  0  0  0  0
  4 27  1  0  0  0  0
  4 28  1  0  0  0  0
  5 29  1  0  0  0  0
  5 30  1  0  0  0  0
  6 31  1  0  0  0  0
  6 32  1  0  0  0  0
M  END
> <id>
EN300-54570

> <smiles>
FC(F)(F)C1(CC2(Br)CC3(Br)C1)CC(C2)(C3)C(F)(F)F

> <IUPAC Name>
1,3-dibromo-5,7-bis(trifluoromethyl)adamantane

> <CAS>
71759-72-3

> <Purity>
95

> <URL>
https://www.enaminestore.com/catalog/EN300-54570

> <ROCS_ShapeQuery>
_x1247relevant_x1083L0AP1_x1305L0BP1_

> <ROCS_TanimotoCombo>
1.058 

> <ROCS_ShapeTanimoto>
0.489 

> <ROCS_ColorTanimoto>
0.569 

> <ROCS_RefTversky>
0.460 

> <ROCS_RefColorTversky>
0.684 

> <ROCS_RefTverskyCombo>
1.144 

> <ROCS_FitTversky>
1.152 

> <ROCS_FitColorTversky>
0.772 

> <ROCS_FitTverskyCombo>
1.924 

> <ROCS_ColorScore>
-6.572

> <ROCS_Overlap>
1139.299

> <ROCS_Rank>
111                 

$$$$
untitled-dbase-30949_0
  -OEChem-06232314403D

 20 22  0     1  0  0  0  0  0999 V2000
   -9.2511   15.1833  -36.6206 C   0  0  0  0  0  0  0  0  0  0  0  0
   -9.5487   13.8020  -36.6606 C   0  0  0  0  0  0  0  0  0  0  0  0
  -10.1669   16.1387  -37.0723 C   0  0  0  0  0  0  0  0  0  0  0  0
  -10.7710   13.3347  -37.1537 C   0  0  0  0  0  0  0  0  0  0  0  0
  -11.3701   15.6702  -37.5434 C   0  0  0  0  0  0  0  0  0  0  0  0
  -11.6692   14.2820  -37.5838 C   0  0  0  0  0  0  0  0  0  0  0  0
  -12.6562   15.9702  -39.6148 C   0  0  0  0  0  0  0  0  0  0  0  0
  -12.9402   14.6530  -39.6531 C   0  0  0  0  0  0  0  0  0  0  0  0
  -12.5850   16.3502  -38.1446 C   0  0  1  0  0  0  0  0  0  0  0  0
  -13.0491   14.1966  -38.2071 C   0  0  2  0  0  0  0  0  0  0  0  0
  -13.6542   15.4374  -37.6080 N   0  0  0  0  0  0  0  0  0  0  0  0
   -8.2870   15.5063  -36.2350 H   0  0  0  0  0  0  0  0  0  0  0  0
   -8.8072   13.0900  -36.3064 H   0  0  0  0  0  0  0  0  0  0  0  0
   -9.9321   17.1958  -37.0515 H   0  0  0  0  0  0  0  0  0  0  0  0
  -10.9920   12.2753  -37.1957 H   0  0  0  0  0  0  0  0  0  0  0  0
  -12.4617   16.6148  -40.4567 H   0  0  0  0  0  0  0  0  0  0  0  0
  -13.0177   14.0333  -40.5317 H   0  0  0  0  0  0  0  0  0  0  0  0
  -12.7474   17.3983  -37.8925 H   0  0  0  0  0  0  0  0  0  0  0  0
  -13.6311   13.2958  -38.0116 H   0  0  0  0  0  0  0  0  0  0  0  0
  -13.6230   15.4010  -36.5883 H   0  0  0  0  0  0  0  0  0  0  0  0
  1  2  2  0  0  0  0
  1  3  1  0  0  0  0
  2  4  1  0  0  0  0
  3  5  2  0  0  0  0
  4  6  2  0  0  0  0
  5  6  1  0  0  0  0
  5  9  1  0  0  0  0
  6 10  1  0  0  0  0
  7  8  2  0  0  0  0
  7  9  1  0  0  0  0
  8 10  1  0  0  0  0
  9 11  1  0  0  0  0
 10 11  1  0  0  0  0
  1 12  1  0  0  0  0
  2 13  1  0  0  0  0
  3 14  1  0  0  0  0
  4 15  1  0  0  0  0
  7 16  1  0  0  0  0
  8 17  1  0  0  0  0
  9 18  1  0  0  0  0
 10 19  1  0  0  0  0
 11 20  1  0  0  0  0
M  END
> <id>
EN300-6772570

> <smiles>
N1C2C=CC1C=3C=CC=CC23

> <MDLNUMBER>
MFCD19216819

> <IUPAC Name>
11-azatricyclo[6.2.1.0,2,7]undeca-2,4,6,9-tetraene

> <CAS>
5176-20-5

> <URL>
https://www.enaminestore.com/catalog/EN300-6772570

> <ROCS_ShapeQuery>
_x1247relevant_x1083L0AP1_x1305L0BP1_

> <ROCS_TanimotoCombo>
1.058 

> <ROCS_ShapeTanimoto>
0.499 

> <ROCS_ColorTanimoto>
0.560 

> <ROCS_RefTversky>
0.417 

> <ROCS_RefColorTversky>
0.710 

> <ROCS_RefTverskyCombo>
1.126 

> <ROCS_FitTversky>
1.649 

> <ROCS_FitColorTversky>
0.726 

> <ROCS_FitTverskyCombo>
2.374 

> <ROCS_ColorScore>
-6.850

> <ROCS_Overlap>
1025.156

> <ROCS_Rank>
112                 

$$$$
untitled-dbase-31064_0
  -OEChem-06232314403D

 20 22  0     1  0  0  0  0  0999 V2000
   -9.2511   15.1833  -36.6206 C   0  0  0  0  0  0  0  0  0  0  0  0
   -9.5487   13.8020  -36.6606 C   0  0  0  0  0  0  0  0  0  0  0  0
  -10.1669   16.1387  -37.0723 C   0  0  0  0  0  0  0  0  0  0  0  0
  -10.7710   13.3347  -37.1537 C   0  0  0  0  0  0  0  0  0  0  0  0
  -11.3701   15.6702  -37.5434 C   0  0  0  0  0  0  0  0  0  0  0  0
  -11.6692   14.2820  -37.5838 C   0  0  0  0  0  0  0  0  0  0  0  0
  -12.6562   15.9702  -39.6148 C   0  0  0  0  0  0  0  0  0  0  0  0
  -12.9402   14.6530  -39.6531 C   0  0  0  0  0  0  0  0  0  0  0  0
  -12.5850   16.3502  -38.1446 C   0  0  1  0  0  0  0  0  0  0  0  0
  -13.0491   14.1966  -38.2071 C   0  0  2  0  0  0  0  0  0  0  0  0
  -13.6542   15.4374  -37.6080 N   0  0  0  0  0  0  0  0  0  0  0  0
   -8.2870   15.5063  -36.2350 H   0  0  0  0  0  0  0  0  0  0  0  0
   -8.8072   13.0900  -36.3064 H   0  0  0  0  0  0  0  0  0  0  0  0
   -9.9321   17.1958  -37.0515 H   0  0  0  0  0  0  0  0  0  0  0  0
  -10.9920   12.2753  -37.1957 H   0  0  0  0  0  0  0  0  0  0  0  0
  -12.4617   16.6148  -40.4567 H   0  0  0  0  0  0  0  0  0  0  0  0
  -13.0177   14.0333  -40.5317 H   0  0  0  0  0  0  0  0  0  0  0  0
  -12.7474   17.3983  -37.8925 H   0  0  0  0  0  0  0  0  0  0  0  0
  -13.6311   13.2958  -38.0116 H   0  0  0  0  0  0  0  0  0  0  0  0
  -13.6230   15.4010  -36.5883 H   0  0  0  0  0  0  0  0  0  0  0  0
  1  2  2  0  0  0  0
  1  3  1  0  0  0  0
  2  4  1  0  0  0  0
  3  5  2  0  0  0  0
  4  6  2  0  0  0  0
  5  6  1  0  0  0  0
  5  9  1  0  0  0  0
  6 10  1  0  0  0  0
  7  8  2  0  0  0  0
  7  9  1  0  0  0  0
  8 10  1  0  0  0  0
  9 11  1  0  0  0  0
 10 11  1  0  0  0  0
  1 12  1  0  0  0  0
  2 13  1  0  0  0  0
  3 14  1  0  0  0  0
  4 15  1  0  0  0  0
  7 16  1  0  0  0  0
  8 17  1  0  0  0  0
  9 18  1  0  0  0  0
 10 19  1  0  0  0  0
 11 20  1  0  0  0  0
M  END
> <id>
EN300-7854681

> <smiles>
Cl.N1C2C=CC1C=3C=CC=CC23

> <MDLNUMBER>
MFCD32679530

> <IUPAC Name>
11-azatricyclo[6.2.1.0,2,7]undeca-2,4,6,9-tetraene hydrochloride

> <CAS>
5176-29-4

> <Purity>
95

> <URL>
https://www.enaminestore.com/catalog/EN300-7854681

> <Saltdate>
Cl

> <ROCS_ShapeQuery>
_x1247relevant_x1083L0AP1_x1305L0BP1_

> <ROCS_TanimotoCombo>
1.058 

> <ROCS_ShapeTanimoto>
0.499 

> <ROCS_ColorTanimoto>
0.560 

> <ROCS_RefTversky>
0.417 

> <ROCS_RefColorTversky>
0.710 

> <ROCS_RefTverskyCombo>
1.126 

> <ROCS_FitTversky>
1.649 

> <ROCS_FitColorTversky>
0.726 

> <ROCS_FitTverskyCombo>
2.374 

> <ROCS_ColorScore>
-6.850

> <ROCS_Overlap>
1025.156

> <ROCS_Rank>
113                 

$$$$
untitled-dbase-48909_1
  -OEChem-06232314403D

 28 30  0     1  0  0  0  0  0999 V2000
   -9.0819   15.6176  -36.8106 C   0  0  0  0  0  0  0  0  0  0  0  0
  -13.8167   14.4478  -39.0843 C   0  0  0  0  0  0  0  0  0  0  0  0
  -13.9340   14.7393  -37.5814 C   0  0  0  0  0  0  0  0  0  0  0  0
  -11.2116   13.7416  -36.5916 C   0  0  0  0  0  0  0  0  0  0  0  0
  -12.7932   16.5419  -38.6036 C   0  0  0  0  0  0  0  0  0  0  0  0
  -11.3238   14.6974  -38.9939 C   0  0  0  0  0  0  0  0  0  0  0  0
   -9.7953   13.2187  -36.7190 C   0  0  0  0  0  0  0  0  0  0  0  0
  -12.6310   15.3296  -39.5166 C   0  0  1  0  0  0  0  0  0  0  0  0
  -12.7562   15.6931  -37.3242 C   0  0  2  0  0  0  0  0  0  0  0  0
  -11.3860   14.9745  -37.4707 C   0  0  1  0  0  0  0  0  0  0  0  0
   -8.8239   14.2792  -36.5927 N   0  0  0  0  0  0  0  0  0  0  0  0
   -8.2141   16.4823  -36.7004 O   0  0  0  0  0  0  0  0  0  0  0  0
  -10.3680   15.9585  -37.1287 O   0  0  0  0  0  0  0  0  0  0  0  0
  -13.6446   13.3859  -39.2851 H   0  0  0  0  0  0  0  0  0  0  0  0
  -14.7362   14.7491  -39.5985 H   0  0  0  0  0  0  0  0  0  0  0  0
  -14.8850   15.2452  -37.3762 H   0  0  0  0  0  0  0  0  0  0  0  0
  -13.9106   13.8312  -36.9748 H   0  0  0  0  0  0  0  0  0  0  0  0
  -11.9040   12.9540  -36.9270 H   0  0  0  0  0  0  0  0  0  0  0  0
  -11.4558   13.9359  -35.5398 H   0  0  0  0  0  0  0  0  0  0  0  0
  -11.9703   17.2590  -38.6824 H   0  0  0  0  0  0  0  0  0  0  0  0
  -13.7447   17.0651  -38.7461 H   0  0  0  0  0  0  0  0  0  0  0  0
  -11.2839   13.6297  -39.2335 H   0  0  0  0  0  0  0  0  0  0  0  0
  -10.4565   15.1861  -39.4521 H   0  0  0  0  0  0  0  0  0  0  0  0
   -9.5717   12.4779  -35.9419 H   0  0  0  0  0  0  0  0  0  0  0  0
   -9.6433   12.7352  -37.6911 H   0  0  0  0  0  0  0  0  0  0  0  0
  -12.6137   15.5419  -40.5872 H   0  0  0  0  0  0  0  0  0  0  0  0
  -12.8589   16.2886  -36.4118 H   0  0  0  0  0  0  0  0  0  0  0  0
   -7.8791   14.0212  -36.3232 H   0  0  0  0  0  0  0  0  0  0  0  0
  1 11  1  0  0  0  0
  1 12  2  0  0  0  0
  1 13  1  0  0  0  0
  2  3  1  0  0  0  0
  2  8  1  0  0  0  0
  3  9  1  0  0  0  0
  4  7  1  0  0  0  0
  4 10  1  0  0  0  0
  5  8  1  0  0  0  0
  5  9  1  0  0  0  0
  6  8  1  0  0  0  0
  6 10  1  0  0  0  0
  7 11  1  0  0  0  0
  9 10  1  0  0  0  0
 10 13  1  0  0  0  0
  2 14  1  0  0  0  0
  2 15  1  0  0  0  0
  3 16  1  0  0  0  0
  3 17  1  0  0  0  0
  4 18  1  0  0  0  0
  4 19  1  0  0  0  0
  5 20  1  0  0  0  0
  5 21  1  0  0  0  0
  6 22  1  0  0  0  0
  6 23  1  0  0  0  0
  7 24  1  0  0  0  0
  7 25  1  0  0  0  0
  8 26  1  0  0  0  0
  9 27  1  0  0  0  0
 11 28  1  0  0  0  0
M  END
> <id>
EN300-802953

> <smiles>
O=C1NCCC2(CC3CCC2C3)O1

> <IUPAC Name>
spiro[bicyclo[2.2.1]heptane-2,2'-[1,5]oxazinane]-6'-one

> <CAS>
2137549-84-7

> <URL>
https://www.enaminestore.com/catalog/EN300-802953

> <ROCS_ShapeQuery>
_x1247relevant_x1083L0AP1_x1305L0BP1_

> <ROCS_TanimotoCombo>
1.058 

> <ROCS_ShapeTanimoto>
0.493 

> <ROCS_ColorTanimoto>
0.565 

> <ROCS_RefTversky>
0.423 

> <ROCS_RefColorTversky>
0.710 

> <ROCS_RefTverskyCombo>
1.133 

> <ROCS_FitTversky>
1.503 

> <ROCS_FitColorTversky>
0.735 

> <ROCS_FitTverskyCombo>
2.238 

> <ROCS_ColorScore>
-6.848

> <ROCS_Overlap>
1041.932

> <ROCS_Rank>
114                 

$$$$
untitled-dbase-38269_0
  -OEChem-06232314403D

 24 25  0     0  0  0  0  0  0999 V2000
  -12.8783   14.8768  -36.8238 C   0  0  0  0  0  0  0  0  0  0  0  0
  -11.0780   15.5959  -38.4078 C   0  0  0  0  0  0  0  0  0  0  0  0
  -13.8953   15.7453  -37.5805 C   0  0  0  0  0  0  0  0  0  0  0  0
  -12.0907   16.4663  -39.1679 C   0  0  0  0  0  0  0  0  0  0  0  0
  -12.8974   14.2185  -39.1224 C   0  0  0  0  0  0  0  0  0  0  0  0
  -11.9308   14.3956  -37.9438 C   0  0  0  0  0  0  0  0  0  0  0  0
  -13.4019   15.6621  -39.0394 C   0  0  0  0  0  0  0  0  0  0  0  0
  -11.1189   13.1729  -37.5764 C   0  0  0  0  0  0  0  0  0  0  0  0
  -14.4051   16.0463  -40.0052 N   0  0  0  0  0  0  0  0  0  0  0  0
  -11.9280   12.1363  -37.2860 F   0  0  0  0  0  0  0  0  0  0  0  0
  -10.3180   12.8115  -38.5968 F   0  0  0  0  0  0  0  0  0  0  0  0
  -10.3477   13.4217  -36.5009 F   0  0  0  0  0  0  0  0  0  0  0  0
  -12.3556   15.4446  -36.0468 H   0  0  0  0  0  0  0  0  0  0  0  0
  -13.3909   14.0363  -36.3415 H   0  0  0  0  0  0  0  0  0  0  0  0
  -10.2745   15.2813  -39.0840 H   0  0  0  0  0  0  0  0  0  0  0  0
  -10.6232   16.1363  -37.5711 H   0  0  0  0  0  0  0  0  0  0  0  0
  -14.8996   15.3193  -37.4666 H   0  0  0  0  0  0  0  0  0  0  0  0
  -13.9206   16.7723  -37.2006 H   0  0  0  0  0  0  0  0  0  0  0  0
  -12.1686   17.4722  -38.7416 H   0  0  0  0  0  0  0  0  0  0  0  0
  -11.7773   16.5669  -40.2143 H   0  0  0  0  0  0  0  0  0  0  0  0
  -12.3912   13.9858  -40.0665 H   0  0  0  0  0  0  0  0  0  0  0  0
  -13.6772   13.4715  -38.9346 H   0  0  0  0  0  0  0  0  0  0  0  0
  -15.1930   15.4410  -39.9158 H   0  0  0  0  0  0  0  0  0  0  0  0
  -14.6806   16.9892  -39.8313 H   0  0  0  0  0  0  0  0  0  0  0  0
  1  3  1  0  0  0  0
  1  6  1  0  0  0  0
  2  4  1  0  0  0  0
  2  6  1  0  0  0  0
  3  7  1  0  0  0  0
  4  7  1  0  0  0  0
  5  6  1  0  0  0  0
  5  7  1  0  0  0  0
  6  8  1  0  0  0  0
  7  9  1  0  0  0  0
  8 10  1  0  0  0  0
  8 11  1  0  0  0  0
  8 12  1  0  0  0  0
  1 13  1  0  0  0  0
  1 14  1  0  0  0  0
  2 15  1  0  0  0  0
  2 16  1  0  0  0  0
  3 17  1  0  0  0  0
  3 18  1  0  0  0  0
  4 19  1  0  0  0  0
  4 20  1  0  0  0  0
  5 21  1  0  0  0  0
  5 22  1  0  0  0  0
  9 23  1  0  0  0  0
  9 24  1  0  0  0  0
M  END
> <id>
EN300-6499666

> <smiles>
NC1(CCC2(CC1)C(F)(F)F)C2

> <MDLNUMBER>
MFCD31737390

> <IUPAC Name>
4-(trifluoromethyl)bicyclo[2.2.1]heptan-1-amine

> <CAS>
2260932-90-7

> <URL>
https://www.enaminestore.com/catalog/EN300-6499666

> <ROCS_ShapeQuery>
_x1247relevant_x1083L0AP1_x1305L0BP1_

> <ROCS_TanimotoCombo>
1.058 

> <ROCS_ShapeTanimoto>
0.446 

> <ROCS_ColorTanimoto>
0.612 

> <ROCS_RefTversky>
0.389 

> <ROCS_RefColorTversky>
0.711 

> <ROCS_RefTverskyCombo>
1.100 

> <ROCS_FitTversky>
1.485 

> <ROCS_FitColorTversky>
0.814 

> <ROCS_FitTverskyCombo>
2.299 

> <ROCS_ColorScore>
-6.823

> <ROCS_Overlap>
957.929

> <ROCS_Rank>
115                 

$$$$
untitled-dbase-25868_0
  -OEChem-06232314403D

 24 25  0     0  0  0  0  0  0999 V2000
  -12.8783   14.8768  -36.8238 C   0  0  0  0  0  0  0  0  0  0  0  0
  -11.0780   15.5959  -38.4078 C   0  0  0  0  0  0  0  0  0  0  0  0
  -13.8953   15.7453  -37.5805 C   0  0  0  0  0  0  0  0  0  0  0  0
  -12.0907   16.4663  -39.1679 C   0  0  0  0  0  0  0  0  0  0  0  0
  -12.8974   14.2185  -39.1224 C   0  0  0  0  0  0  0  0  0  0  0  0
  -11.9308   14.3956  -37.9438 C   0  0  0  0  0  0  0  0  0  0  0  0
  -13.4019   15.6621  -39.0394 C   0  0  0  0  0  0  0  0  0  0  0  0
  -11.1189   13.1729  -37.5764 C   0  0  0  0  0  0  0  0  0  0  0  0
  -14.4051   16.0463  -40.0052 N   0  0  0  0  0  0  0  0  0  0  0  0
  -11.9280   12.1363  -37.2860 F   0  0  0  0  0  0  0  0  0  0  0  0
  -10.3180   12.8115  -38.5968 F   0  0  0  0  0  0  0  0  0  0  0  0
  -10.3477   13.4217  -36.5009 F   0  0  0  0  0  0  0  0  0  0  0  0
  -12.3556   15.4446  -36.0468 H   0  0  0  0  0  0  0  0  0  0  0  0
  -13.3909   14.0363  -36.3415 H   0  0  0  0  0  0  0  0  0  0  0  0
  -10.2745   15.2813  -39.0840 H   0  0  0  0  0  0  0  0  0  0  0  0
  -10.6232   16.1363  -37.5711 H   0  0  0  0  0  0  0  0  0  0  0  0
  -14.8996   15.3193  -37.4666 H   0  0  0  0  0  0  0  0  0  0  0  0
  -13.9206   16.7723  -37.2006 H   0  0  0  0  0  0  0  0  0  0  0  0
  -12.1686   17.4722  -38.7416 H   0  0  0  0  0  0  0  0  0  0  0  0
  -11.7773   16.5669  -40.2143 H   0  0  0  0  0  0  0  0  0  0  0  0
  -12.3912   13.9858  -40.0665 H   0  0  0  0  0  0  0  0  0  0  0  0
  -13.6772   13.4715  -38.9346 H   0  0  0  0  0  0  0  0  0  0  0  0
  -15.1930   15.4410  -39.9158 H   0  0  0  0  0  0  0  0  0  0  0  0
  -14.6806   16.9892  -39.8313 H   0  0  0  0  0  0  0  0  0  0  0  0
  1  3  1  0  0  0  0
  1  6  1  0  0  0  0
  2  4  1  0  0  0  0
  2  6  1  0  0  0  0
  3  7  1  0  0  0  0
  4  7  1  0  0  0  0
  5  6  1  0  0  0  0
  5  7  1  0  0  0  0
  6  8  1  0  0  0  0
  7  9  1  0  0  0  0
  8 10  1  0  0  0  0
  8 11  1  0  0  0  0
  8 12  1  0  0  0  0
  1 13  1  0  0  0  0
  1 14  1  0  0  0  0
  2 15  1  0  0  0  0
  2 16  1  0  0  0  0
  3 17  1  0  0  0  0
  3 18  1  0  0  0  0
  4 19  1  0  0  0  0
  4 20  1  0  0  0  0
  5 21  1  0  0  0  0
  5 22  1  0  0  0  0
  9 23  1  0  0  0  0
  9 24  1  0  0  0  0
M  END
> <id>
EN300-6733288

> <smiles>
Cl.NC1(CCC2(CC1)C(F)(F)F)C2

> <MDLNUMBER>
MFCD31736935

> <IUPAC Name>
4-(trifluoromethyl)bicyclo[2.2.1]heptan-1-amine hydrochloride

> <CAS>
2260932-91-8

> <Purity>
95

> <URL>
https://www.enaminestore.com/catalog/EN300-6733288

> <Saltdate>
Cl

> <ROCS_ShapeQuery>
_x1247relevant_x1083L0AP1_x1305L0BP1_

> <ROCS_TanimotoCombo>
1.058 

> <ROCS_ShapeTanimoto>
0.446 

> <ROCS_ColorTanimoto>
0.612 

> <ROCS_RefTversky>
0.389 

> <ROCS_RefColorTversky>
0.711 

> <ROCS_RefTverskyCombo>
1.100 

> <ROCS_FitTversky>
1.485 

> <ROCS_FitColorTversky>
0.814 

> <ROCS_FitTverskyCombo>
2.299 

> <ROCS_ColorScore>
-6.823

> <ROCS_Overlap>
957.929

> <ROCS_Rank>
116                 

$$$$
untitled-dbase-18318_1
  -OEChem-06232314403D

 30 32  0     1  0  0  0  0  0999 V2000
   -9.0208   13.9433  -37.5522 C   0  0  0  0  0  0  0  0  0  0  0  0
   -9.1122   13.9594  -36.0397 C   0  0  0  0  0  0  0  0  0  0  0  0
  -10.4634   14.3646  -35.4762 C   0  0  0  0  0  0  0  0  0  0  0  0
  -14.0683   15.8838  -38.1090 C   0  0  0  0  0  0  0  0  0  0  0  0
  -13.6784   14.6104  -37.3463 C   0  0  0  0  0  0  0  0  0  0  0  0
  -11.0018   15.5752  -36.2219 C   0  0  0  0  0  0  0  0  0  0  0  0
  -12.6727   14.5215  -39.4756 C   0  0  0  0  0  0  0  0  0  0  0  0
  -11.6653   16.4653  -38.5210 C   0  0  0  0  0  0  0  0  0  0  0  0
  -12.9731   15.9899  -39.1847 C   0  0  2  0  0  0  0  0  0  0  0  0
  -12.3477   14.2057  -38.0081 C   0  0  1  0  0  0  0  0  0  0  0  0
  -11.2031   15.2287  -37.7017 C   0  0  2  0  0  0  0  0  0  0  0  0
   -9.9392   14.6997  -38.2455 N   0  0  0  0  0  0  0  0  0  0  0  0
   -8.1008   13.3468  -38.1154 O   0  0  0  0  0  0  0  0  0  0  0  0
   -8.8500   12.9477  -35.6907 H   0  0  0  0  0  0  0  0  0  0  0  0
   -8.3386   14.6421  -35.6548 H   0  0  0  0  0  0  0  0  0  0  0  0
  -11.1641   13.5267  -35.5680 H   0  0  0  0  0  0  0  0  0  0  0  0
  -10.3683   14.5866  -34.4066 H   0  0  0  0  0  0  0  0  0  0  0  0
  -15.0567   15.7607  -38.5659 H   0  0  0  0  0  0  0  0  0  0  0  0
  -14.0997   16.7620  -37.4563 H   0  0  0  0  0  0  0  0  0  0  0  0
  -13.6132   14.7677  -36.2668 H   0  0  0  0  0  0  0  0  0  0  0  0
  -14.4355   13.8336  -37.5122 H   0  0  0  0  0  0  0  0  0  0  0  0
  -11.9500   15.8908  -35.7768 H   0  0  0  0  0  0  0  0  0  0  0  0
  -10.2915   16.3957  -36.0982 H   0  0  0  0  0  0  0  0  0  0  0  0
  -13.5410   13.9705  -39.8531 H   0  0  0  0  0  0  0  0  0  0  0  0
  -11.8348   14.3801  -40.1640 H   0  0  0  0  0  0  0  0  0  0  0  0
  -10.9327   16.7291  -39.2948 H   0  0  0  0  0  0  0  0  0  0  0  0
  -11.8280   17.3593  -37.9086 H   0  0  0  0  0  0  0  0  0  0  0  0
  -13.2665   16.5912  -40.0471 H   0  0  0  0  0  0  0  0  0  0  0  0
  -12.0736   13.1670  -37.8105 H   0  0  0  0  0  0  0  0  0  0  0  0
   -9.7285   14.9091  -39.2067 H   0  0  0  0  0  0  0  0  0  0  0  0
  1  2  1  0  0  0  0
  1 12  1  0  0  0  0
  1 13  2  0  0  0  0
  2  3  1  0  0  0  0
  3  6  1  0  0  0  0
  4  5  1  0  0  0  0
  4  9  1  0  0  0  0
  5 10  1  0  0  0  0
  6 11  1  0  0  0  0
  7  9  1  0  0  0  0
  7 10  1  0  0  0  0
  8  9  1  0  0  0  0
  8 11  1  0  0  0  0
 10 11  1  0  0  0  0
 11 12  1  0  0  0  0
  2 14  1  0  0  0  0
  2 15  1  0  0  0  0
  3 16  1  0  0  0  0
  3 17  1  0  0  0  0
  4 18  1  0  0  0  0
  4 19  1  0  0  0  0
  5 20  1  0  0  0  0
  5 21  1  0  0  0  0
  6 22  1  0  0  0  0
  6 23  1  0  0  0  0
  7 24  1  0  0  0  0
  7 25  1  0  0  0  0
  8 26  1  0  0  0  0
  8 27  1  0  0  0  0
  9 28  1  0  0  0  0
 10 29  1  0  0  0  0
 12 30  1  0  0  0  0
M  END
> <id>
EN300-1629012

> <smiles>
O=C1CCCC2(CC3CCC2C3)N1

> <IUPAC Name>
spiro[bicyclo[2.2.1]heptane-2,2'-piperidine]-6'-one

> <CAS>
2172032-78-7

> <URL>
https://www.enaminestore.com/catalog/EN300-1629012

> <ROCS_ShapeQuery>
_x1247relevant_x1083L0AP1_x1305L0BP1_

> <ROCS_TanimotoCombo>
1.057 

> <ROCS_ShapeTanimoto>
0.489 

> <ROCS_ColorTanimoto>
0.568 

> <ROCS_RefTversky>
0.420 

> <ROCS_RefColorTversky>
0.712 

> <ROCS_RefTverskyCombo>
1.131 

> <ROCS_FitTversky>
1.514 

> <ROCS_FitColorTversky>
0.738 

> <ROCS_FitTverskyCombo>
2.252 

> <ROCS_ColorScore>
-6.865

> <ROCS_Overlap>
1033.549

> <ROCS_Rank>
117                 

$$$$
untitled-dbase-50099_0
  -OEChem-06232314403D

 19 20  0     0  0  0  0  0  0999 V2000
  -12.3063   14.5692  -39.4614 C   0  0  0  0  0  0  0  0  0  0  0  0
  -12.1955   16.4809  -38.6204 C   0  0  0  0  0  0  0  0  0  0  0  0
  -13.8833   14.9898  -37.6048 C   0  0  0  0  0  0  0  0  0  0  0  0
  -13.3947   15.5426  -38.9301 C   0  0  0  0  0  0  0  0  0  0  0  0
  -11.6824   15.0734  -38.0890 C   0  0  0  0  0  0  0  0  0  0  0  0
  -10.2427   14.8401  -37.7489 C   0  0  0  0  0  0  0  0  0  0  0  0
  -14.2921   16.0353  -39.9375 N   0  0  0  0  0  0  0  0  0  0  0  0
  -12.6019   14.6606  -37.0284 O   0  0  0  0  0  0  0  0  0  0  0  0
   -9.4252   15.4182  -38.6576 F   0  0  0  0  0  0  0  0  0  0  0  0
   -9.9369   15.3537  -36.5362 F   0  0  0  0  0  0  0  0  0  0  0  0
   -9.9547   13.5193  -37.7196 F   0  0  0  0  0  0  0  0  0  0  0  0
  -12.5788   13.5105  -39.5013 H   0  0  0  0  0  0  0  0  0  0  0  0
  -11.7692   14.8422  -40.3769 H   0  0  0  0  0  0  0  0  0  0  0  0
  -11.6493   16.9187  -39.4637 H   0  0  0  0  0  0  0  0  0  0  0  0
  -12.3623   17.2472  -37.8576 H   0  0  0  0  0  0  0  0  0  0  0  0
  -14.3872   15.7330  -36.9808 H   0  0  0  0  0  0  0  0  0  0  0  0
  -14.4854   14.0826  -37.7054 H   0  0  0  0  0  0  0  0  0  0  0  0
  -13.7733   16.5306  -40.6347 H   0  0  0  0  0  0  0  0  0  0  0  0
  -14.7713   15.2671  -40.3627 H   0  0  0  0  0  0  0  0  0  0  0  0
  1  4  1  0  0  0  0
  1  5  1  0  0  0  0
  2  4  1  0  0  0  0
  2  5  1  0  0  0  0
  3  4  1  0  0  0  0
  3  8  1  0  0  0  0
  4  7  1  1  0  0  0
  5  6  1  1  0  0  0
  5  8  1  0  0  0  0
  6  9  1  0  0  0  0
  6 10  1  0  0  0  0
  6 11  1  0  0  0  0
  1 12  1  0  0  0  0
  1 13  1  0  0  0  0
  2 14  1  0  0  0  0
  2 15  1  0  0  0  0
  3 16  1  0  0  0  0
  3 17  1  0  0  0  0
  7 18  1  0  0  0  0
  7 19  1  0  0  0  0
M  END
> <id>
EN300-37375442

> <smiles>
Cl.N[C@]1(C[C@]2(C1)C(F)(F)F)CO2

> <IUPAC Name>
1-(trifluoromethyl)-2-oxabicyclo[2.1.1]hexan-4-amine hydrochloride

> <CAS>
2624131-80-0

> <URL>
https://www.enaminestore.com/catalog/EN300-37375442

> <ROCS_ShapeQuery>
_x1247relevant_x1083L0AP1_x1305L0BP1_

> <ROCS_TanimotoCombo>
1.057 

> <ROCS_ShapeTanimoto>
0.493 

> <ROCS_ColorTanimoto>
0.564 

> <ROCS_RefTversky>
0.412 

> <ROCS_RefColorTversky>
0.725 

> <ROCS_RefTverskyCombo>
1.136 

> <ROCS_FitTversky>
1.669 

> <ROCS_FitColorTversky>
0.718 

> <ROCS_FitTverskyCombo>
2.387 

> <ROCS_ColorScore>
-7.006

> <ROCS_Overlap>
1011.855

> <ROCS_Rank>
118                 

$$$$
untitled-dbase-44506_0
  -OEChem-06232314403D

 19 20  0     0  0  0  0  0  0999 V2000
  -12.3063   14.5692  -39.4614 C   0  0  0  0  0  0  0  0  0  0  0  0
  -12.1955   16.4809  -38.6204 C   0  0  0  0  0  0  0  0  0  0  0  0
  -13.8833   14.9898  -37.6048 C   0  0  0  0  0  0  0  0  0  0  0  0
  -13.3947   15.5426  -38.9301 C   0  0  0  0  0  0  0  0  0  0  0  0
  -11.6824   15.0734  -38.0890 C   0  0  0  0  0  0  0  0  0  0  0  0
  -10.2427   14.8401  -37.7489 C   0  0  0  0  0  0  0  0  0  0  0  0
  -14.2921   16.0353  -39.9375 N   0  0  0  0  0  0  0  0  0  0  0  0
  -12.6019   14.6606  -37.0284 O   0  0  0  0  0  0  0  0  0  0  0  0
   -9.4252   15.4182  -38.6576 F   0  0  0  0  0  0  0  0  0  0  0  0
   -9.9369   15.3537  -36.5362 F   0  0  0  0  0  0  0  0  0  0  0  0
   -9.9547   13.5193  -37.7196 F   0  0  0  0  0  0  0  0  0  0  0  0
  -12.5788   13.5105  -39.5013 H   0  0  0  0  0  0  0  0  0  0  0  0
  -11.7692   14.8422  -40.3769 H   0  0  0  0  0  0  0  0  0  0  0  0
  -11.6493   16.9187  -39.4637 H   0  0  0  0  0  0  0  0  0  0  0  0
  -12.3623   17.2472  -37.8576 H   0  0  0  0  0  0  0  0  0  0  0  0
  -14.3872   15.7330  -36.9808 H   0  0  0  0  0  0  0  0  0  0  0  0
  -14.4854   14.0826  -37.7054 H   0  0  0  0  0  0  0  0  0  0  0  0
  -13.7733   16.5306  -40.6347 H   0  0  0  0  0  0  0  0  0  0  0  0
  -14.7713   15.2671  -40.3627 H   0  0  0  0  0  0  0  0  0  0  0  0
  1  4  1  0  0  0  0
  1  5  1  0  0  0  0
  2  4  1  0  0  0  0
  2  5  1  0  0  0  0
  3  4  1  0  0  0  0
  3  8  1  0  0  0  0
  4  7  1  1  0  0  0
  5  6  1  1  0  0  0
  5  8  1  0  0  0  0
  6  9  1  0  0  0  0
  6 10  1  0  0  0  0
  6 11  1  0  0  0  0
  1 12  1  0  0  0  0
  1 13  1  0  0  0  0
  2 14  1  0  0  0  0
  2 15  1  0  0  0  0
  3 16  1  0  0  0  0
  3 17  1  0  0  0  0
  7 18  1  0  0  0  0
  7 19  1  0  0  0  0
M  END
> <id>
EN300-27776864

> <smiles>
N[C@]1(C[C@]2(C1)C(F)(F)F)CO2

> <IUPAC Name>
1-(trifluoromethyl)-2-oxabicyclo[2.1.1]hexan-4-amine

> <URL>
https://www.enaminestore.com/catalog/EN300-27776864

> <ROCS_ShapeQuery>
_x1247relevant_x1083L0AP1_x1305L0BP1_

> <ROCS_TanimotoCombo>
1.057 

> <ROCS_ShapeTanimoto>
0.493 

> <ROCS_ColorTanimoto>
0.564 

> <ROCS_RefTversky>
0.412 

> <ROCS_RefColorTversky>
0.725 

> <ROCS_RefTverskyCombo>
1.136 

> <ROCS_FitTversky>
1.669 

> <ROCS_FitColorTversky>
0.718 

> <ROCS_FitTverskyCombo>
2.387 

> <ROCS_ColorScore>
-7.006

> <ROCS_Overlap>
1011.855

> <ROCS_Rank>
119                 

$$$$
untitled-dbase-12475_1
  -OEChem-06232314403D

 26 28  0     1  0  0  0  0  0999 V2000
  -10.0009   15.7986  -37.2932 C   0  0  0  0  0  0  0  0  0  0  0  0
   -9.0850   14.9901  -36.4344 C   0  0  0  0  0  0  0  0  0  0  0  0
  -13.8502   14.3854  -38.8196 C   0  0  0  0  0  0  0  0  0  0  0  0
  -13.7545   14.8138  -37.3461 C   0  0  0  0  0  0  0  0  0  0  0  0
  -12.7945   16.5151  -38.6869 C   0  0  0  0  0  0  0  0  0  0  0  0
  -11.3693   14.6447  -39.1127 C   0  0  0  0  0  0  0  0  0  0  0  0
   -9.7132   13.6284  -36.6161 C   0  0  0  0  0  0  0  0  0  0  0  0
  -12.7488   15.2207  -39.4990 C   0  0  1  0  0  0  0  0  0  0  0  0
  -12.5668   15.7942  -37.3541 C   0  0  2  0  0  0  0  0  0  0  0  0
  -11.2603   15.0268  -37.6280 C   0  0  2  0  0  0  0  0  0  0  0  0
   -9.7603   16.9445  -37.6485 O   0  0  0  0  0  0  0  0  0  0  0  0
  -11.1130   13.8786  -36.7818 O   0  0  0  0  0  0  0  0  0  0  0  0
   -8.0803   15.0297  -36.8641 H   0  0  0  0  0  0  0  0  0  0  0  0
   -9.0851   15.3162  -35.3935 H   0  0  0  0  0  0  0  0  0  0  0  0
  -13.6972   13.3089  -38.9455 H   0  0  0  0  0  0  0  0  0  0  0  0
  -14.8376   14.6399  -39.2208 H   0  0  0  0  0  0  0  0  0  0  0  0
  -14.6754   15.3271  -37.0457 H   0  0  0  0  0  0  0  0  0  0  0  0
  -13.6129   13.9621  -36.6749 H   0  0  0  0  0  0  0  0  0  0  0  0
  -12.0006   17.2196  -38.9515 H   0  0  0  0  0  0  0  0  0  0  0  0
  -13.7630   17.0240  -38.7418 H   0  0  0  0  0  0  0  0  0  0  0  0
  -11.3174   13.5647  -39.2804 H   0  0  0  0  0  0  0  0  0  0  0  0
  -10.5883   15.1267  -39.7104 H   0  0  0  0  0  0  0  0  0  0  0  0
   -9.3254   13.1037  -37.4938 H   0  0  0  0  0  0  0  0  0  0  0  0
   -9.5695   12.9912  -35.7355 H   0  0  0  0  0  0  0  0  0  0  0  0
  -12.8872   15.3334  -40.5760 H   0  0  0  0  0  0  0  0  0  0  0  0
  -12.5399   16.4466  -36.4768 H   0  0  0  0  0  0  0  0  0  0  0  0
  1  2  1  0  0  0  0
  1 10  1  0  0  0  0
  1 11  2  0  0  0  0
  2  7  1  0  0  0  0
  3  4  1  0  0  0  0
  3  8  1  0  0  0  0
  4  9  1  0  0  0  0
  5  8  1  0  0  0  0
  5  9  1  0  0  0  0
  6  8  1  0  0  0  0
  6 10  1  0  0  0  0
  7 12  1  0  0  0  0
  9 10  1  0  0  0  0
 10 12  1  0  0  0  0
  2 13  1  0  0  0  0
  2 14  1  0  0  0  0
  3 15  1  0  0  0  0
  3 16  1  0  0  0  0
  4 17  1  0  0  0  0
  4 18  1  0  0  0  0
  5 19  1  0  0  0  0
  5 20  1  0  0  0  0
  6 21  1  0  0  0  0
  6 22  1  0  0  0  0
  7 23  1  0  0  0  0
  7 24  1  0  0  0  0
  8 25  1  0  0  0  0
  9 26  1  0  0  0  0
M  END
> <id>
EN300-744199

> <smiles>
O=C1CCOC21CC3CCC2C3

> <IUPAC Name>
spiro[bicyclo[2.2.1]heptane-2,2'-oxolane]-3'-one

> <CAS>
2137630-42-1

> <URL>
https://www.enaminestore.com/catalog/EN300-744199

> <ROCS_ShapeQuery>
_x1247relevant_x1083L0AP1_x1305L0BP1_

> <ROCS_TanimotoCombo>
1.057 

> <ROCS_ShapeTanimoto>
0.488 

> <ROCS_ColorTanimoto>
0.569 

> <ROCS_RefTversky>
0.415 

> <ROCS_RefColorTversky>
0.713 

> <ROCS_RefTverskyCombo>
1.128 

> <ROCS_FitTversky>
1.565 

> <ROCS_FitColorTversky>
0.738 

> <ROCS_FitTverskyCombo>
2.303 

> <ROCS_ColorScore>
-6.883

> <ROCS_Overlap>
1020.263

> <ROCS_Rank>
120                 

$$$$
untitled-dbase-44096_0
  -OEChem-06232314403D

 19 20  0     0  0  0  0  0  0999 V2000
  -12.3135   14.5602  -39.4577 C   0  0  0  0  0  0  0  0  0  0  0  0
  -12.1885   16.4768  -38.6293 C   0  0  0  0  0  0  0  0  0  0  0  0
  -13.8825   15.0022  -37.5993 C   0  0  0  0  0  0  0  0  0  0  0  0
  -13.3943   15.5437  -38.9295 C   0  0  0  0  0  0  0  0  0  0  0  0
  -11.6826   15.0696  -38.0904 C   0  0  0  0  0  0  0  0  0  0  0  0
  -10.2433   14.8298  -37.7527 C   0  0  0  0  0  0  0  0  0  0  0  0
  -14.2918   16.0358  -39.9369 N   0  0  0  0  0  0  0  0  0  0  0  0
  -12.6014   14.6693  -37.0244 O   0  0  0  0  0  0  0  0  0  0  0  0
   -9.4250   15.3970  -38.6674 F   0  0  0  0  0  0  0  0  0  0  0  0
   -9.9310   15.3495  -36.5442 F   0  0  0  0  0  0  0  0  0  0  0  0
   -9.9633   13.5075  -37.7156 F   0  0  0  0  0  0  0  0  0  0  0  0
  -12.5922   13.5029  -39.4895 H   0  0  0  0  0  0  0  0  0  0  0  0
  -11.7775   14.8239  -40.3765 H   0  0  0  0  0  0  0  0  0  0  0  0
  -11.6420   16.9056  -39.4770 H   0  0  0  0  0  0  0  0  0  0  0  0
  -12.3486   17.2490  -37.8712 H   0  0  0  0  0  0  0  0  0  0  0  0
  -14.3805   15.7521  -36.9786 H   0  0  0  0  0  0  0  0  0  0  0  0
  -14.4898   14.0978  -37.6924 H   0  0  0  0  0  0  0  0  0  0  0  0
  -13.7722   16.5236  -40.6389 H   0  0  0  0  0  0  0  0  0  0  0  0
  -14.7772   15.2681  -40.3560 H   0  0  0  0  0  0  0  0  0  0  0  0
  1  4  1  0  0  0  0
  1  5  1  0  0  0  0
  2  4  1  0  0  0  0
  2  5  1  0  0  0  0
  3  4  1  0  0  0  0
  3  8  1  0  0  0  0
  4  7  1  0  0  0  0
  5  6  1  0  0  0  0
  5  8  1  0  0  0  0
  6  9  1  0  0  0  0
  6 10  1  0  0  0  0
  6 11  1  0  0  0  0
  1 12  1  0  0  0  0
  1 13  1  0  0  0  0
  2 14  1  0  0  0  0
  2 15  1  0  0  0  0
  3 16  1  0  0  0  0
  3 17  1  0  0  0  0
  7 18  1  0  0  0  0
  7 19  1  0  0  0  0
M  END
> <id>
EN300-27748659

> <smiles>
Cl.NC1(CC2(C1)C(F)(F)F)CO2

> <MDLNUMBER>
MFCD33550331

> <IUPAC Name>
1-(trifluoromethyl)-2-oxabicyclo[2.1.1]hexan-4-amine hydrochloride

> <CAS>
2624131-80-0

> <Purity>
95

> <URL>
https://www.enaminestore.com/catalog/EN300-27748659

> <ROCS_ShapeQuery>
_x1247relevant_x1083L0AP1_x1305L0BP1_

> <ROCS_TanimotoCombo>
1.057 

> <ROCS_ShapeTanimoto>
0.493 

> <ROCS_ColorTanimoto>
0.564 

> <ROCS_RefTversky>
0.411 

> <ROCS_RefColorTversky>
0.725 

> <ROCS_RefTverskyCombo>
1.136 

> <ROCS_FitTversky>
1.669 

> <ROCS_FitColorTversky>
0.718 

> <ROCS_FitTverskyCombo>
2.386 

> <ROCS_ColorScore>
-7.006

> <ROCS_Overlap>
1011.529

> <ROCS_Rank>
121                 

$$$$
untitled-dbase-43995_0
  -OEChem-06232314403D

 19 20  0     0  0  0  0  0  0999 V2000
  -12.3135   14.5602  -39.4577 C   0  0  0  0  0  0  0  0  0  0  0  0
  -12.1885   16.4768  -38.6293 C   0  0  0  0  0  0  0  0  0  0  0  0
  -13.8825   15.0022  -37.5993 C   0  0  0  0  0  0  0  0  0  0  0  0
  -13.3943   15.5437  -38.9295 C   0  0  0  0  0  0  0  0  0  0  0  0
  -11.6826   15.0696  -38.0904 C   0  0  0  0  0  0  0  0  0  0  0  0
  -10.2433   14.8298  -37.7527 C   0  0  0  0  0  0  0  0  0  0  0  0
  -14.2918   16.0358  -39.9369 N   0  0  0  0  0  0  0  0  0  0  0  0
  -12.6014   14.6693  -37.0244 O   0  0  0  0  0  0  0  0  0  0  0  0
   -9.4250   15.3970  -38.6674 F   0  0  0  0  0  0  0  0  0  0  0  0
   -9.9310   15.3495  -36.5442 F   0  0  0  0  0  0  0  0  0  0  0  0
   -9.9633   13.5075  -37.7156 F   0  0  0  0  0  0  0  0  0  0  0  0
  -12.5922   13.5029  -39.4895 H   0  0  0  0  0  0  0  0  0  0  0  0
  -11.7775   14.8239  -40.3765 H   0  0  0  0  0  0  0  0  0  0  0  0
  -11.6420   16.9056  -39.4770 H   0  0  0  0  0  0  0  0  0  0  0  0
  -12.3486   17.2490  -37.8712 H   0  0  0  0  0  0  0  0  0  0  0  0
  -14.3805   15.7521  -36.9786 H   0  0  0  0  0  0  0  0  0  0  0  0
  -14.4898   14.0978  -37.6924 H   0  0  0  0  0  0  0  0  0  0  0  0
  -13.7722   16.5236  -40.6389 H   0  0  0  0  0  0  0  0  0  0  0  0
  -14.7772   15.2681  -40.3560 H   0  0  0  0  0  0  0  0  0  0  0  0
  1  4  1  0  0  0  0
  1  5  1  0  0  0  0
  2  4  1  0  0  0  0
  2  5  1  0  0  0  0
  3  4  1  0  0  0  0
  3  8  1  0  0  0  0
  4  7  1  0  0  0  0
  5  6  1  0  0  0  0
  5  8  1  0  0  0  0
  6  9  1  0  0  0  0
  6 10  1  0  0  0  0
  6 11  1  0  0  0  0
  1 12  1  0  0  0  0
  1 13  1  0  0  0  0
  2 14  1  0  0  0  0
  2 15  1  0  0  0  0
  3 16  1  0  0  0  0
  3 17  1  0  0  0  0
  7 18  1  0  0  0  0
  7 19  1  0  0  0  0
M  END
> <id>
EN300-27719207

> <smiles>
NC1(CC2(C1)C(F)(F)F)CO2

> <MDLNUMBER>
MFCD33550144

> <IUPAC Name>
1-(trifluoromethyl)-2-oxabicyclo[2.1.1]hexan-4-amine

> <CAS>
2624131-79-7

> <URL>
https://www.enaminestore.com/catalog/EN300-27719207

> <ROCS_ShapeQuery>
_x1247relevant_x1083L0AP1_x1305L0BP1_

> <ROCS_TanimotoCombo>
1.057 

> <ROCS_ShapeTanimoto>
0.493 

> <ROCS_ColorTanimoto>
0.564 

> <ROCS_RefTversky>
0.411 

> <ROCS_RefColorTversky>
0.725 

> <ROCS_RefTverskyCombo>
1.136 

> <ROCS_FitTversky>
1.669 

> <ROCS_FitColorTversky>
0.718 

> <ROCS_FitTverskyCombo>
2.386 

> <ROCS_ColorScore>
-7.006

> <ROCS_Overlap>
1011.529

> <ROCS_Rank>
122                 

$$$$
untitled-dbase-4943_0
  -OEChem-06232314403D

 19 20  0     1  0  0  0  0  0999 V2000
  -11.3032   15.7317  -37.8526 C   0  0  0  0  0  0  0  0  0  0  0  0
  -11.5950   14.2226  -37.8785 C   0  0  0  0  0  0  0  0  0  0  0  0
  -13.6226   15.3803  -37.4581 C   0  0  0  0  0  0  0  0  0  0  0  0
  -13.0223   16.1230  -39.6400 C   0  0  0  0  0  0  0  0  0  0  0  0
  -12.6772   16.3561  -38.1553 C   0  0  2  0  0  0  0  0  0  0  0  0
  -13.0932   14.1682  -38.2314 C   0  0  1  0  0  0  0  0  0  0  0  0
  -13.2469   14.6061  -39.6980 C   0  0  1  0  0  0  0  0  0  0  0  0
  -15.0257   14.1799  -40.3630 Br  0  0  0  0  0  0  0  0  0  0  0  0
  -10.9497   16.0286  -36.8587 H   0  0  0  0  0  0  0  0  0  0  0  0
  -10.5419   16.0164  -38.5857 H   0  0  0  0  0  0  0  0  0  0  0  0
  -10.9697   13.6943  -38.6054 H   0  0  0  0  0  0  0  0  0  0  0  0
  -11.4116   13.7865  -36.8898 H   0  0  0  0  0  0  0  0  0  0  0  0
  -13.4502   15.3102  -36.3787 H   0  0  0  0  0  0  0  0  0  0  0  0
  -14.6797   15.5959  -37.6422 H   0  0  0  0  0  0  0  0  0  0  0  0
  -13.9107   16.7003  -39.9184 H   0  0  0  0  0  0  0  0  0  0  0  0
  -12.2012   16.4327  -40.2955 H   0  0  0  0  0  0  0  0  0  0  0  0
  -12.7617   17.3997  -37.8461 H   0  0  0  0  0  0  0  0  0  0  0  0
  -13.5618   13.2144  -37.9785 H   0  0  0  0  0  0  0  0  0  0  0  0
  -12.5470   14.1036  -40.3720 H   0  0  0  0  0  0  0  0  0  0  0  0
  1  2  1  0  0  0  0
  1  5  1  0  0  0  0
  2  6  1  0  0  0  0
  3  5  1  0  0  0  0
  3  6  1  0  0  0  0
  4  5  1  0  0  0  0
  4  7  1  0  0  0  0
  6  7  1  0  0  0  0
  7  8  1  0  0  0  0
  1  9  1  0  0  0  0
  1 10  1  0  0  0  0
  2 11  1  0  0  0  0
  2 12  1  0  0  0  0
  3 13  1  0  0  0  0
  3 14  1  0  0  0  0
  4 15  1  0  0  0  0
  4 16  1  0  0  0  0
  5 17  1  0  0  0  0
  6 18  1  0  0  0  0
  7 19  1  0  0  0  0
M  END
> <id>
EN300-200689

> <smiles>
BrC1CC2CCC1C2

> <IUPAC Name>
2-bromobicyclo[2.2.1]heptane

> <CAS>
29342-65-2

> <URL>
https://www.enaminestore.com/catalog/EN300-200689

> <ROCS_ShapeQuery>
_x1247relevant_x1083L0AP1_x1305L0BP1_

> <ROCS_TanimotoCombo>
1.056 

> <ROCS_ShapeTanimoto>
0.383 

> <ROCS_ColorTanimoto>
0.674 

> <ROCS_RefTversky>
0.327 

> <ROCS_RefColorTversky>
0.716 

> <ROCS_RefTverskyCombo>
1.043 

> <ROCS_FitTversky>
1.800 

> <ROCS_FitColorTversky>
0.919 

> <ROCS_FitTverskyCombo>
2.719 

> <ROCS_ColorScore>
-6.838

> <ROCS_Overlap>
801.623

> <ROCS_Rank>
123                 

$$$$
untitled-dbase-15387_1
  -OEChem-06232314403D

 27 29  0     1  0  0  0  0  0999 V2000
  -10.0588   15.8505  -37.2301 C   0  0  0  0  0  0  0  0  0  0  0  0
  -13.7778   14.4781  -39.0752 C   0  0  0  0  0  0  0  0  0  0  0  0
  -13.6177   14.3211  -37.5559 C   0  0  0  0  0  0  0  0  0  0  0  0
  -10.6130   13.5656  -37.4520 C   0  0  0  0  0  0  0  0  0  0  0  0
  -12.9542   16.5042  -38.1402 C   0  0  0  0  0  0  0  0  0  0  0  0
  -11.3784   15.1625  -39.3353 C   0  0  0  0  0  0  0  0  0  0  0  0
   -9.9573   13.7862  -36.1028 C   0  0  0  0  0  0  0  0  0  0  0  0
  -12.8393   15.6539  -39.4027 C   0  0  1  0  0  0  0  0  0  0  0  0
  -12.5274   15.3531  -37.2155 C   0  0  2  0  0  0  0  0  0  0  0  0
  -11.1516   14.9556  -37.8265 C   0  0  2  0  0  0  0  0  0  0  0  0
   -9.4539   15.1262  -36.2050 N   0  0  0  0  0  0  0  0  0  0  0  0
   -9.7936   16.9966  -37.5594 O   0  0  0  0  0  0  0  0  0  0  0  0
  -13.5090   13.5649  -39.6151 H   0  0  0  0  0  0  0  0  0  0  0  0
  -14.8162   14.7270  -39.3197 H   0  0  0  0  0  0  0  0  0  0  0  0
  -14.5584   14.5793  -37.0534 H   0  0  0  0  0  0  0  0  0  0  0  0
  -13.3631   13.2971  -37.2675 H   0  0  0  0  0  0  0  0  0  0  0  0
   -9.9067   13.1595  -38.1818 H   0  0  0  0  0  0  0  0  0  0  0  0
  -11.4413   12.8541  -37.3449 H   0  0  0  0  0  0  0  0  0  0  0  0
  -12.2733   17.3594  -38.1352 H   0  0  0  0  0  0  0  0  0  0  0  0
  -13.9733   16.8550  -37.9477 H   0  0  0  0  0  0  0  0  0  0  0  0
  -11.2411   14.2488  -39.9272 H   0  0  0  0  0  0  0  0  0  0  0  0
  -10.7089   15.9299  -39.7476 H   0  0  0  0  0  0  0  0  0  0  0  0
  -10.6603   13.7125  -35.2711 H   0  0  0  0  0  0  0  0  0  0  0  0
   -9.1108   13.1148  -35.9377 H   0  0  0  0  0  0  0  0  0  0  0  0
  -13.0854   16.1599  -40.3386 H   0  0  0  0  0  0  0  0  0  0  0  0
  -12.4866   15.6246  -36.1586 H   0  0  0  0  0  0  0  0  0  0  0  0
   -8.7363   15.5049  -35.5976 H   0  0  0  0  0  0  0  0  0  0  0  0
  1 10  1  0  0  0  0
  1 11  1  0  0  0  0
  1 12  2  0  0  0  0
  2  3  1  0  0  0  0
  2  8  1  0  0  0  0
  3  9  1  0  0  0  0
  4  7  1  0  0  0  0
  4 10  1  0  0  0  0
  5  8  1  0  0  0  0
  5  9  1  0  0  0  0
  6  8  1  0  0  0  0
  6 10  1  0  0  0  0
  7 11  1  0  0  0  0
  9 10  1  0  0  0  0
  2 13  1  0  0  0  0
  2 14  1  0  0  0  0
  3 15  1  0  0  0  0
  3 16  1  0  0  0  0
  4 17  1  0  0  0  0
  4 18  1  0  0  0  0
  5 19  1  0  0  0  0
  5 20  1  0  0  0  0
  6 21  1  0  0  0  0
  6 22  1  0  0  0  0
  7 23  1  0  0  0  0
  7 24  1  0  0  0  0
  8 25  1  0  0  0  0
  9 26  1  0  0  0  0
 11 27  1  0  0  0  0
M  END
> <id>
EN300-1197943

> <smiles>
O=C1NCCC21CC3CCC2C3

> <IUPAC Name>
spiro[bicyclo[2.2.1]heptane-2,3'-pyrrolidine]-2'-one

> <CAS>
2138038-22-7

> <URL>
https://www.enaminestore.com/catalog/EN300-1197943

> <ROCS_ShapeQuery>
_x1247relevant_x1083L0AP1_x1305L0BP1_

> <ROCS_TanimotoCombo>
1.056 

> <ROCS_ShapeTanimoto>
0.491 

> <ROCS_ColorTanimoto>
0.566 

> <ROCS_RefTversky>
0.416 

> <ROCS_RefColorTversky>
0.711 

> <ROCS_RefTverskyCombo>
1.126 

> <ROCS_FitTversky>
1.578 

> <ROCS_FitColorTversky>
0.735 

> <ROCS_FitTverskyCombo>
2.313 

> <ROCS_ColorScore>
-6.855

> <ROCS_Overlap>
1023.399

> <ROCS_Rank>
124                 

$$$$
untitled-dbase-30590_0
  -OEChem-06232314403D

 25 27  0     1  0  0  0  0  0999 V2000
  -10.6882   13.6114  -36.9447 C   0  0  0  0  0  0  0  0  0  0  0  0
   -9.7162   14.5722  -36.3237 C   0  0  0  0  0  0  0  0  0  0  0  0
  -10.3125   15.9202  -36.6988 C   0  0  0  0  0  0  0  0  0  0  0  0
  -13.4143   14.6644  -39.4890 C   0  0  0  0  0  0  0  0  0  0  0  0
  -13.1105   16.1714  -39.4105 C   0  0  0  0  0  0  0  0  0  0  0  0
  -13.3024   15.2992  -37.2110 C   0  0  0  0  0  0  0  0  0  0  0  0
  -11.3760   14.2106  -38.1437 C   0  0  2  0  0  0  0  0  0  0  0  0
  -11.0767   15.7195  -38.0138 C   0  0  1  0  0  0  0  0  0  0  0  0
  -12.9104   14.1413  -38.1314 C   0  0  2  0  0  0  0  0  0  0  0  0
  -12.4967   16.3324  -38.0056 C   0  0  1  0  0  0  0  0  0  0  0  0
  -10.8496   12.4595  -36.5635 O   0  0  0  0  0  0  0  0  0  0  0  0
   -9.6600   14.4385  -35.2412 H   0  0  0  0  0  0  0  0  0  0  0  0
   -8.7331   14.4263  -36.7804 H   0  0  0  0  0  0  0  0  0  0  0  0
  -10.9736   16.2711  -35.8975 H   0  0  0  0  0  0  0  0  0  0  0  0
   -9.5307   16.6799  -36.8063 H   0  0  0  0  0  0  0  0  0  0  0  0
  -14.4933   14.5022  -39.5930 H   0  0  0  0  0  0  0  0  0  0  0  0
  -12.9144   14.1879  -40.3382 H   0  0  0  0  0  0  0  0  0  0  0  0
  -12.4321   16.4966  -40.2055 H   0  0  0  0  0  0  0  0  0  0  0  0
  -14.0393   16.7462  -39.4974 H   0  0  0  0  0  0  0  0  0  0  0  0
  -14.3790   15.5027  -37.2112 H   0  0  0  0  0  0  0  0  0  0  0  0
  -12.9666   15.1667  -36.1788 H   0  0  0  0  0  0  0  0  0  0  0  0
  -10.9305   13.7855  -39.0494 H   0  0  0  0  0  0  0  0  0  0  0  0
  -10.4819   16.0831  -38.8598 H   0  0  0  0  0  0  0  0  0  0  0  0
  -13.3201   13.1693  -37.8497 H   0  0  0  0  0  0  0  0  0  0  0  0
  -12.5393   17.3550  -37.6248 H   0  0  0  0  0  0  0  0  0  0  0  0
  1  2  1  0  0  0  0
  1  7  1  0  0  0  0
  1 11  2  0  0  0  0
  2  3  1  0  0  0  0
  3  8  1  1  0  0  0
  4  5  1  0  0  0  0
  4  9  1  0  0  0  0
  5 10  1  0  0  0  0
  6  9  1  0  0  0  0
  6 10  1  0  0  0  0
  7  8  1  0  0  0  0
  7  9  1  1  0  0  0
  8 10  1  0  0  0  0
  2 12  1  0  0  0  0
  2 13  1  0  0  0  0
  3 14  1  0  0  0  0
  3 15  1  0  0  0  0
  4 16  1  0  0  0  0
  4 17  1  0  0  0  0
  5 18  1  0  0  0  0
  5 19  1  0  0  0  0
  6 20  1  0  0  0  0
  6 21  1  0  0  0  0
  7 22  1  0  0  0  0
  8 23  1  0  0  0  0
  9 24  1  0  0  0  0
 10 25  1  0  0  0  0
M  END
> <id>
EN300-26621890

> <smiles>
O=C1CC[C@@H]2C3CCC(C3)[C@@H]21 |&1:4,10,r|

> <MDLNUMBER>
MFCD32662947

> <IUPAC Name>
rac-(2R,6S)-tricyclo[5.2.1.0,2,6]decan-3-one

> <CAS>
1933690-59-5

> <Purity>
95

> <URL>
https://www.enaminestore.com/catalog/EN300-26621890

> <ROCS_ShapeQuery>
_x1247relevant_x1083L0AP1_x1305L0BP1_

> <ROCS_TanimotoCombo>
1.056 

> <ROCS_ShapeTanimoto>
0.473 

> <ROCS_ColorTanimoto>
0.583 

> <ROCS_RefTversky>
0.400 

> <ROCS_RefColorTversky>
0.694 

> <ROCS_RefTverskyCombo>
1.094 

> <ROCS_FitTversky>
1.631 

> <ROCS_FitColorTversky>
0.785 

> <ROCS_FitTverskyCombo>
2.417 

> <ROCS_ColorScore>
-6.664

> <ROCS_Overlap>
982.251

> <ROCS_Rank>
125                 

$$$$
untitled-dbase-4645_0
  -OEChem-06232314403D

 22 24  0     1  0  0  0  0  0999 V2000
   -9.5504   13.8005  -36.6496 C   0  0  0  0  0  0  0  0  0  0  0  0
   -9.2374   15.1763  -36.6383 C   0  0  0  0  0  0  0  0  0  0  0  0
  -10.7849   13.3447  -37.1208 C   0  0  0  0  0  0  0  0  0  0  0  0
  -10.1515   16.1285  -37.0982 C   0  0  0  0  0  0  0  0  0  0  0  0
  -11.6777   14.2945  -37.5625 C   0  0  0  0  0  0  0  0  0  0  0  0
  -11.3656   15.6654  -37.5514 C   0  0  0  0  0  0  0  0  0  0  0  0
  -12.9621   14.5280  -39.6519 C   0  0  0  0  0  0  0  0  0  0  0  0
  -12.6175   16.0429  -39.6396 C   0  0  0  0  0  0  0  0  0  0  0  0
  -13.0607   14.1971  -38.1527 C   0  0  2  0  0  0  0  0  0  0  0  0
  -12.5684   16.3605  -38.1350 C   0  0  1  0  0  0  0  0  0  0  0  0
  -13.6876   15.4739  -37.7043 N   0  0  0  0  0  0  0  0  0  0  0  0
   -8.8159   13.0849  -36.2890 H   0  0  0  0  0  0  0  0  0  0  0  0
   -8.2670   15.4983  -36.2691 H   0  0  0  0  0  0  0  0  0  0  0  0
  -11.0219   12.2877  -37.1375 H   0  0  0  0  0  0  0  0  0  0  0  0
   -9.9078   17.1842  -37.0976 H   0  0  0  0  0  0  0  0  0  0  0  0
  -13.9180   14.3662  -40.1641 H   0  0  0  0  0  0  0  0  0  0  0  0
  -12.1886   13.9476  -40.1670 H   0  0  0  0  0  0  0  0  0  0  0  0
  -11.6676   16.2398  -40.1487 H   0  0  0  0  0  0  0  0  0  0  0  0
  -13.4078   16.6102  -40.1458 H   0  0  0  0  0  0  0  0  0  0  0  0
  -13.6216   13.2981  -37.8919 H   0  0  0  0  0  0  0  0  0  0  0  0
  -12.6861   17.4096  -37.8584 H   0  0  0  0  0  0  0  0  0  0  0  0
  -14.5376   15.6716  -38.2324 H   0  0  0  0  0  0  0  0  0  0  0  0
  1  2  2  0  0  0  0
  1  3  1  0  0  0  0
  2  4  1  0  0  0  0
  3  5  2  0  0  0  0
  4  6  2  0  0  0  0
  5  6  1  0  0  0  0
  5  9  1  0  0  0  0
  6 10  1  0  0  0  0
  7  8  1  0  0  0  0
  7  9  1  0  0  0  0
  8 10  1  0  0  0  0
  9 11  1  0  0  0  0
 10 11  1  0  0  0  0
  1 12  1  0  0  0  0
  2 13  1  0  0  0  0
  3 14  1  0  0  0  0
  4 15  1  0  0  0  0
  7 16  1  0  0  0  0
  7 17  1  0  0  0  0
  8 18  1  0  0  0  0
  8 19  1  0  0  0  0
  9 20  1  0  0  0  0
 10 21  1  0  0  0  0
 11 22  1  0  0  0  0
M  END
> <id>
EN300-192003

> <smiles>
Cl.C1CC2NC1C=3C=CC=CC23

> <MDLNUMBER>
MFCD28125210

> <IUPAC Name>
11-azatricyclo[6.2.1.0,2,7]undeca-2,4,6-triene hydrochloride

> <CAS>
5176-31-8

> <Purity>
95

> <URL>
https://www.enaminestore.com/catalog/EN300-192003

> <Saltdate>
Cl

> <ROCS_ShapeQuery>
_x1247relevant_x1083L0AP1_x1305L0BP1_

> <ROCS_TanimotoCombo>
1.056 

> <ROCS_ShapeTanimoto>
0.496 

> <ROCS_ColorTanimoto>
0.560 

> <ROCS_RefTversky>
0.414 

> <ROCS_RefColorTversky>
0.710 

> <ROCS_RefTverskyCombo>
1.124 

> <ROCS_FitTversky>
1.654 

> <ROCS_FitColorTversky>
0.726 

> <ROCS_FitTverskyCombo>
2.380 

> <ROCS_ColorScore>
-6.851

> <ROCS_Overlap>
1019.291

> <ROCS_Rank>
126                 

$$$$
untitled-dbase-39286_0
  -OEChem-06232314403D

 22 24  0     1  0  0  0  0  0999 V2000
   -9.5504   13.8005  -36.6496 C   0  0  0  0  0  0  0  0  0  0  0  0
   -9.2374   15.1763  -36.6383 C   0  0  0  0  0  0  0  0  0  0  0  0
  -10.7849   13.3447  -37.1208 C   0  0  0  0  0  0  0  0  0  0  0  0
  -10.1515   16.1285  -37.0982 C   0  0  0  0  0  0  0  0  0  0  0  0
  -11.6777   14.2945  -37.5625 C   0  0  0  0  0  0  0  0  0  0  0  0
  -11.3656   15.6654  -37.5514 C   0  0  0  0  0  0  0  0  0  0  0  0
  -12.9621   14.5280  -39.6519 C   0  0  0  0  0  0  0  0  0  0  0  0
  -12.6175   16.0429  -39.6396 C   0  0  0  0  0  0  0  0  0  0  0  0
  -13.0607   14.1971  -38.1527 C   0  0  2  0  0  0  0  0  0  0  0  0
  -12.5684   16.3605  -38.1350 C   0  0  1  0  0  0  0  0  0  0  0  0
  -13.6876   15.4739  -37.7043 N   0  0  0  0  0  0  0  0  0  0  0  0
   -8.8159   13.0849  -36.2890 H   0  0  0  0  0  0  0  0  0  0  0  0
   -8.2670   15.4983  -36.2691 H   0  0  0  0  0  0  0  0  0  0  0  0
  -11.0219   12.2877  -37.1375 H   0  0  0  0  0  0  0  0  0  0  0  0
   -9.9078   17.1842  -37.0976 H   0  0  0  0  0  0  0  0  0  0  0  0
  -13.9180   14.3662  -40.1641 H   0  0  0  0  0  0  0  0  0  0  0  0
  -12.1886   13.9476  -40.1670 H   0  0  0  0  0  0  0  0  0  0  0  0
  -11.6676   16.2398  -40.1487 H   0  0  0  0  0  0  0  0  0  0  0  0
  -13.4078   16.6102  -40.1458 H   0  0  0  0  0  0  0  0  0  0  0  0
  -13.6216   13.2981  -37.8919 H   0  0  0  0  0  0  0  0  0  0  0  0
  -12.6861   17.4096  -37.8584 H   0  0  0  0  0  0  0  0  0  0  0  0
  -14.5376   15.6716  -38.2324 H   0  0  0  0  0  0  0  0  0  0  0  0
  1  2  2  0  0  0  0
  1  3  1  0  0  0  0
  2  4  1  0  0  0  0
  3  5  2  0  0  0  0
  4  6  2  0  0  0  0
  5  6  1  0  0  0  0
  5  9  1  0  0  0  0
  6 10  1  0  0  0  0
  7  8  1  0  0  0  0
  7  9  1  0  0  0  0
  8 10  1  0  0  0  0
  9 11  1  0  0  0  0
 10 11  1  0  0  0  0
  1 12  1  0  0  0  0
  2 13  1  0  0  0  0
  3 14  1  0  0  0  0
  4 15  1  0  0  0  0
  7 16  1  0  0  0  0
  7 17  1  0  0  0  0
  8 18  1  0  0  0  0
  8 19  1  0  0  0  0
  9 20  1  0  0  0  0
 10 21  1  0  0  0  0
 11 22  1  0  0  0  0
M  END
> <id>
EN300-79376

> <smiles>
C1CC2NC1C=3C=CC=CC23

> <MDLNUMBER>
MFCD09865911

> <IUPAC Name>
11-azatricyclo[6.2.1.0,2,7]undeca-2,4,6-triene

> <CAS>
5176-30-7

> <Purity>
90

> <URL>
https://www.enaminestore.com/catalog/EN300-79376

> <MP>
96-98

> <ROCS_ShapeQuery>
_x1247relevant_x1083L0AP1_x1305L0BP1_

> <ROCS_TanimotoCombo>
1.056 

> <ROCS_ShapeTanimoto>
0.496 

> <ROCS_ColorTanimoto>
0.560 

> <ROCS_RefTversky>
0.414 

> <ROCS_RefColorTversky>
0.710 

> <ROCS_RefTverskyCombo>
1.124 

> <ROCS_FitTversky>
1.654 

> <ROCS_FitColorTversky>
0.726 

> <ROCS_FitTverskyCombo>
2.380 

> <ROCS_ColorScore>
-6.851

> <ROCS_Overlap>
1019.291

> <ROCS_Rank>
127                 

$$$$
untitled-dbase-51901_2
  -OEChem-06232314403D

 24 25  0     1  0  0  0  0  0999 V2000
  -10.3288   14.3613  -37.3432 C   0  0  0  0  0  0  0  0  0  0  0  0
  -13.4729   15.3553  -37.1421 C   0  0  0  0  0  0  0  0  0  0  0  0
  -12.2458   16.5690  -39.1117 C   0  0  0  0  0  0  0  0  0  0  0  0
  -13.0673   14.1486  -39.4276 C   0  0  0  0  0  0  0  0  0  0  0  0
  -12.2110   16.1088  -37.6525 C   0  0  2  0  0  0  0  0  0  0  0  0
  -12.8724   14.1417  -37.9089 C   0  0  1  0  0  0  0  0  0  0  0  0
  -13.0707   15.5914  -39.9688 C   0  0  0  0  0  0  0  0  0  0  0  0
   -9.3459   15.4695  -37.0792 C   0  0  0  0  0  0  0  0  0  0  0  0
  -11.6016   14.7841  -37.5929 N   0  0  0  0  0  0  0  0  0  0  0  0
   -9.9832   13.1810  -37.3324 O   0  0  0  0  0  0  0  0  0  0  0  0
  -14.4183   16.0714  -40.0101 O   0  0  0  0  0  0  0  0  0  0  0  0
  -13.5111   15.2269  -36.0522 H   0  0  0  0  0  0  0  0  0  0  0  0
  -14.4458   15.7255  -37.4734 H   0  0  0  0  0  0  0  0  0  0  0  0
  -12.6694   17.5784  -39.1685 H   0  0  0  0  0  0  0  0  0  0  0  0
  -11.2195   16.6214  -39.4950 H   0  0  0  0  0  0  0  0  0  0  0  0
  -12.2534   13.5826  -39.8966 H   0  0  0  0  0  0  0  0  0  0  0  0
  -14.0053   13.6402  -39.6784 H   0  0  0  0  0  0  0  0  0  0  0  0
  -11.7825   16.8292  -36.9504 H   0  0  0  0  0  0  0  0  0  0  0  0
  -13.0247   13.1719  -37.4279 H   0  0  0  0  0  0  0  0  0  0  0  0
  -12.7144   15.6116  -41.0045 H   0  0  0  0  0  0  0  0  0  0  0  0
   -9.3250   15.6837  -36.0147 H   0  0  0  0  0  0  0  0  0  0  0  0
   -9.6499   16.3568  -37.6275 H   0  0  0  0  0  0  0  0  0  0  0  0
   -8.3592   15.1604  -37.4124 H   0  0  0  0  0  0  0  0  0  0  0  0
  -14.9132   15.4410  -40.5530 H   0  0  0  0  0  0  0  0  0  0  0  0
  1  8  1  0  0  0  0
  1  9  1  0  0  0  0
  1 10  2  0  0  0  0
  2  5  1  1  0  0  0
  2  6  1  1  0  0  0
  3  5  1  0  0  0  0
  3  7  1  0  0  0  0
  4  6  1  0  0  0  0
  4  7  1  0  0  0  0
  5  9  1  0  0  0  0
  6  9  1  0  0  0  0
  7 11  1  1  0  0  0
  2 12  1  0  0  0  0
  2 13  1  0  0  0  0
  3 14  1  0  0  0  0
  3 15  1  0  0  0  0
  4 16  1  0  0  0  0
  4 17  1  0  0  0  0
  5 18  1  0  0  0  0
  6 19  1  0  0  0  0
  7 20  1  0  0  0  0
  8 21  1  0  0  0  0
  8 22  1  0  0  0  0
  8 23  1  0  0  0  0
 11 24  1  0  0  0  0
M  END
> <id>
EN300-45377141

> <smiles>
CC(=O)N1[C@H]2C[C@@H]1C[C@H](O)C2

> <IUPAC Name>
1-[(1R,3r,5S)-3-hydroxy-6-azabicyclo[3.1.1]heptan-6-yl]ethan-1-one

> <URL>
https://www.enaminestore.com/catalog/EN300-45377141

> <ROCS_ShapeQuery>
_x1247relevant_x1083L0AP1_x1305L0BP1_

> <ROCS_TanimotoCombo>
1.055 

> <ROCS_ShapeTanimoto>
0.503 

> <ROCS_ColorTanimoto>
0.552 

> <ROCS_RefTversky>
0.415 

> <ROCS_RefColorTversky>
0.694 

> <ROCS_RefTverskyCombo>
1.109 

> <ROCS_FitTversky>
1.736 

> <ROCS_FitColorTversky>
0.729 

> <ROCS_FitTverskyCombo>
2.465 

> <ROCS_ColorScore>
-6.692

> <ROCS_Overlap>
1019.132

> <ROCS_Rank>
128                 

$$$$
untitled-dbase-53151_0
  -OEChem-06232314403D

 36 40  0     1  0  0  0  0  0999 V2000
  -15.7382   16.2207  -36.2625 C   0  0  0  0  0  0  0  0  0  0  0  0
   -9.2055   15.1817  -36.4189 C   0  0  0  0  0  0  0  0  0  0  0  0
  -15.9586   14.8425  -36.4121 C   0  0  0  0  0  0  0  0  0  0  0  0
   -9.4319   13.8038  -36.5674 C   0  0  0  0  0  0  0  0  0  0  0  0
  -14.5971   16.8248  -36.7943 C   0  0  0  0  0  0  0  0  0  0  0  0
  -10.1245   16.1153  -36.9027 C   0  0  0  0  0  0  0  0  0  0  0  0
  -15.0424   14.0419  -37.0971 C   0  0  0  0  0  0  0  0  0  0  0  0
  -10.5815   13.3311  -37.2036 C   0  0  0  0  0  0  0  0  0  0  0  0
  -13.6860   16.0328  -37.4775 C   0  0  0  0  0  0  0  0  0  0  0  0
  -11.2666   15.6504  -37.5368 C   0  0  0  0  0  0  0  0  0  0  0  0
  -13.9094   14.6399  -37.6291 C   0  0  0  0  0  0  0  0  0  0  0  0
  -11.4949   14.2550  -37.6889 C   0  0  0  0  0  0  0  0  0  0  0  0
  -13.5572   16.8113  -40.3592 C   0  0  0  0  0  0  0  0  0  0  0  0
  -14.0352   14.6102  -40.5467 C   0  0  0  0  0  0  0  0  0  0  0  0
  -12.3853   16.5142  -38.1169 C   0  0  0  0  0  0  0  0  0  0  0  0
  -12.8037   13.9284  -38.4113 C   0  0  0  0  0  0  0  0  0  0  0  0
  -12.4294   16.1422  -39.6303 C   0  0  1  0  0  0  0  0  0  0  0  0
  -12.7122   14.6238  -39.8163 C   0  0  2  0  0  0  0  0  0  0  0  0
  -11.6749   13.9632  -40.7350 C   0  0  0  0  0  0  0  0  0  0  0  0
  -13.6978   18.0183  -40.4870 O   0  0  0  0  0  0  0  0  0  0  0  0
  -14.6732   13.6109  -40.8442 O   0  0  0  0  0  0  0  0  0  0  0  0
  -14.4212   15.8809  -40.8471 O   0  0  0  0  0  0  0  0  0  0  0  0
  -16.4654   16.8236  -35.7251 H   0  0  0  0  0  0  0  0  0  0  0  0
   -8.3033   15.5250  -35.9194 H   0  0  0  0  0  0  0  0  0  0  0  0
  -16.8536   14.3946  -35.9886 H   0  0  0  0  0  0  0  0  0  0  0  0
   -8.7019   13.0970  -36.1816 H   0  0  0  0  0  0  0  0  0  0  0  0
  -14.4342   17.8905  -36.6730 H   0  0  0  0  0  0  0  0  0  0  0  0
   -9.9430   17.1779  -36.7806 H   0  0  0  0  0  0  0  0  0  0  0  0
  -15.2200   12.9777  -37.2087 H   0  0  0  0  0  0  0  0  0  0  0  0
  -10.7489   12.2651  -37.3144 H   0  0  0  0  0  0  0  0  0  0  0  0
  -12.2199   17.5838  -37.9529 H   0  0  0  0  0  0  0  0  0  0  0  0
  -12.9869   12.8511  -38.4828 H   0  0  0  0  0  0  0  0  0  0  0  0
  -11.4917   16.4269  -40.1251 H   0  0  0  0  0  0  0  0  0  0  0  0
  -10.7077   13.9551  -40.2409 H   0  0  0  0  0  0  0  0  0  0  0  0
  -11.6039   14.5245  -41.6621 H   0  0  0  0  0  0  0  0  0  0  0  0
  -11.9807   12.9434  -40.9507 H   0  0  0  0  0  0  0  0  0  0  0  0
  1  3  2  0  0  0  0
  1  5  1  0  0  0  0
  2  4  2  0  0  0  0
  2  6  1  0  0  0  0
  3  7  1  0  0  0  0
  4  8  1  0  0  0  0
  5  9  2  0  0  0  0
  6 10  2  0  0  0  0
  7 11  2  0  0  0  0
  8 12  2  0  0  0  0
  9 11  1  0  0  0  0
  9 15  1  0  0  0  0
 10 12  1  0  0  0  0
 10 15  1  0  0  0  0
 11 16  1  0  0  0  0
 12 16  1  0  0  0  0
 13 17  1  0  0  0  0
 13 20  2  0  0  0  0
 13 22  1  0  0  0  0
 14 18  1  0  0  0  0
 14 21  2  0  0  0  0
 14 22  1  0  0  0  0
 15 17  1  0  0  0  0
 16 18  1  0  0  0  0
 17 18  1  0  0  0  0
 18 19  1  0  0  0  0
  1 23  1  0  0  0  0
  2 24  1  0  0  0  0
  3 25  1  0  0  0  0
  4 26  1  0  0  0  0
  5 27  1  0  0  0  0
  6 28  1  0  0  0  0
  7 29  1  0  0  0  0
  8 30  1  0  0  0  0
 15 31  1  0  0  0  0
 16 32  1  0  0  0  0
 17 33  1  0  0  0  0
 19 34  1  0  0  0  0
 19 35  1  0  0  0  0
 19 36  1  0  0  0  0
M  END
> <id>
EN300-43352814

> <smiles>
CC1(C2C3C=4C=CC=CC4C1C=5C=CC=CC35)C(=O)OC2=O

> <IUPAC Name>
15-methyl-17-oxapentacyclo[6.6.5.0^{2,7}.0^{9,14}.0^{15,19}]nonadeca-2(7),3,5,9(14),10,12-hexaene-16,18-dione

> <Purity>
95

> <URL>
https://www.enaminestore.com/catalog/EN300-43352814

> <ROCS_ShapeQuery>
_x1247relevant_x1083L0AP1_x1305L0BP1_

> <ROCS_TanimotoCombo>
1.055 

> <ROCS_ShapeTanimoto>
0.564 

> <ROCS_ColorTanimoto>
0.491 

> <ROCS_RefTversky>
0.525 

> <ROCS_RefColorTversky>
0.704 

> <ROCS_RefTverskyCombo>
1.229 

> <ROCS_FitTversky>
1.153 

> <ROCS_FitColorTversky>
0.618 

> <ROCS_FitTverskyCombo>
1.771 

> <ROCS_ColorScore>
-6.859

> <ROCS_Overlap>
1305.122

> <ROCS_Rank>
129                 

$$$$
untitled-dbase-21354_0
  -OEChem-06232314403D

 21 23  0     1  0  0  0  0  0999 V2000
  -10.8040   13.3481  -37.1067 C   0  0  0  0  0  0  0  0  0  0  0  0
   -9.5628   13.7969  -36.6472 C   0  0  0  0  0  0  0  0  0  0  0  0
  -10.1438   16.1207  -37.1308 C   0  0  0  0  0  0  0  0  0  0  0  0
  -11.6898   14.2995  -37.5600 C   0  0  0  0  0  0  0  0  0  0  0  0
  -11.3650   15.6632  -37.5719 C   0  0  0  0  0  0  0  0  0  0  0  0
   -9.2362   15.1683  -36.6591 C   0  0  0  0  0  0  0  0  0  0  0  0
  -13.0185   14.5220  -39.6385 C   0  0  0  0  0  0  0  0  0  0  0  0
  -12.6596   16.0289  -39.6517 C   0  0  0  0  0  0  0  0  0  0  0  0
  -13.0652   14.2058  -38.1402 C   0  0  2  0  0  0  0  0  0  0  0  0
  -12.5529   16.3571  -38.1591 C   0  0  1  0  0  0  0  0  0  0  0  0
  -13.5916   15.4723  -37.6352 O   0  0  0  0  0  0  0  0  0  0  0  0
   -7.5392   15.7255  -36.0336 Br  0  0  0  0  0  0  0  0  0  0  0  0
  -11.0524   12.2934  -37.1060 H   0  0  0  0  0  0  0  0  0  0  0  0
   -8.8459   13.0649  -36.2817 H   0  0  0  0  0  0  0  0  0  0  0  0
   -9.9052   17.1782  -37.1551 H   0  0  0  0  0  0  0  0  0  0  0  0
  -14.0057   14.3833  -40.0934 H   0  0  0  0  0  0  0  0  0  0  0  0
  -12.2919   13.9135  -40.1861 H   0  0  0  0  0  0  0  0  0  0  0  0
  -11.7388   16.2353  -40.2064 H   0  0  0  0  0  0  0  0  0  0  0  0
  -13.4798   16.5902  -40.1129 H   0  0  0  0  0  0  0  0  0  0  0  0
  -13.6704   13.3558  -37.8216 H   0  0  0  0  0  0  0  0  0  0  0  0
  -12.7087   17.3938  -37.8571 H   0  0  0  0  0  0  0  0  0  0  0  0
  1  2  1  0  0  0  0
  1  4  2  0  0  0  0
  2  6  2  0  0  0  0
  3  5  2  0  0  0  0
  3  6  1  0  0  0  0
  4  5  1  0  0  0  0
  4  9  1  0  0  0  0
  5 10  1  0  0  0  0
  6 12  1  0  0  0  0
  7  8  1  0  0  0  0
  7  9  1  0  0  0  0
  8 10  1  0  0  0  0
  9 11  1  0  0  0  0
 10 11  1  0  0  0  0
  1 13  1  0  0  0  0
  2 14  1  0  0  0  0
  3 15  1  0  0  0  0
  7 16  1  0  0  0  0
  7 17  1  0  0  0  0
  8 18  1  0  0  0  0
  8 19  1  0  0  0  0
  9 20  1  0  0  0  0
 10 21  1  0  0  0  0
M  END
> <id>
EN300-182952

> <smiles>
BrC=1C=CC=2C3CCC(O3)C2C1

> <MDLNUMBER>
MFCD28390227

> <IUPAC Name>
4-bromo-11-oxatricyclo[6.2.1.0,2,7]undeca-2,4,6-triene

> <CAS>
1562418-91-0

> <Purity>
95

> <URL>
https://www.enaminestore.com/catalog/EN300-182952

> <ROCS_ShapeQuery>
_x1247relevant_x1083L0AP1_x1305L0BP1_

> <ROCS_TanimotoCombo>
1.055 

> <ROCS_ShapeTanimoto>
0.496 

> <ROCS_ColorTanimoto>
0.558 

> <ROCS_RefTversky>
0.419 

> <ROCS_RefColorTversky>
0.709 

> <ROCS_RefTverskyCombo>
1.129 

> <ROCS_FitTversky>
1.587 

> <ROCS_FitColorTversky>
0.724 

> <ROCS_FitTverskyCombo>
2.311 

> <ROCS_ColorScore>
-6.845

> <ROCS_Overlap>
1032.169

> <ROCS_Rank>
130                 

$$$$
untitled-dbase-41616_0
  -OEChem-06232314403D

 19 20  0     0  0  0  0  0  0999 V2000
  -15.2593   14.1118  -40.5388 C   0  0  0  0  0  0  0  0  0  0  0  0
  -14.3729   14.4930  -39.8246 C   0  0  0  0  0  0  0  0  0  0  0  0
  -13.6545   15.7676  -37.6823 C   0  0  0  0  0  0  0  0  0  0  0  0
  -12.6541   13.9540  -37.9578 C   0  0  0  0  0  0  0  0  0  0  0  0
  -11.3690   15.9608  -38.5755 C   0  0  0  0  0  0  0  0  0  0  0  0
  -13.3180   14.9459  -38.9750 C   0  0  0  0  0  0  0  0  0  0  0  0
  -12.1629   15.3438  -37.4005 C   0  0  0  0  0  0  0  0  0  0  0  0
  -11.5606   15.4679  -36.0339 C   0  0  0  0  0  0  0  0  0  0  0  0
  -12.2500   15.6401  -39.6669 O   0  0  0  0  0  0  0  0  0  0  0  0
  -12.2411   14.7269  -35.1311 F   0  0  0  0  0  0  0  0  0  0  0  0
  -10.2760   15.0477  -36.0263 F   0  0  0  0  0  0  0  0  0  0  0  0
  -11.5762   16.7507  -35.6081 F   0  0  0  0  0  0  0  0  0  0  0  0
  -16.0459   13.7739  -41.1723 H   0  0  0  0  0  0  0  0  0  0  0  0
  -13.8279   16.8390  -37.8222 H   0  0  0  0  0  0  0  0  0  0  0  0
  -14.4186   15.3623  -37.0091 H   0  0  0  0  0  0  0  0  0  0  0  0
  -13.3201   13.3701  -37.3121 H   0  0  0  0  0  0  0  0  0  0  0  0
  -11.8749   13.2991  -38.3594 H   0  0  0  0  0  0  0  0  0  0  0  0
  -11.2633   17.0461  -38.4908 H   0  0  0  0  0  0  0  0  0  0  0  0
  -10.3987   15.4798  -38.7289 H   0  0  0  0  0  0  0  0  0  0  0  0
  1  2  3  0  0  0  0
  2  6  1  0  0  0  0
  3  6  1  0  0  0  0
  3  7  1  0  0  0  0
  4  6  1  0  0  0  0
  4  7  1  0  0  0  0
  5  7  1  0  0  0  0
  5  9  1  0  0  0  0
  6  9  1  0  0  0  0
  7  8  1  0  0  0  0
  8 10  1  0  0  0  0
  8 11  1  0  0  0  0
  8 12  1  0  0  0  0
  1 13  1  0  0  0  0
  3 14  1  0  0  0  0
  3 15  1  0  0  0  0
  4 16  1  0  0  0  0
  4 17  1  0  0  0  0
  5 18  1  0  0  0  0
  5 19  1  0  0  0  0
M  END
> <id>
EN300-27149656

> <smiles>
FC(F)(F)C1(CC2(C1)C#C)CO2

> <MDLNUMBER>
MFCD32859867

> <IUPAC Name>
1-ethynyl-4-(trifluoromethyl)-2-oxabicyclo[2.1.1]hexane

> <CAS>
2503208-69-1

> <Purity>
95

> <URL>
https://www.enaminestore.com/catalog/EN300-27149656

> <ROCS_ShapeQuery>
_x1247relevant_x1083L0AP1_x1305L0BP1_

> <ROCS_TanimotoCombo>
1.055 

> <ROCS_ShapeTanimoto>
0.441 

> <ROCS_ColorTanimoto>
0.614 

> <ROCS_RefTversky>
0.386 

> <ROCS_RefColorTversky>
0.729 

> <ROCS_RefTverskyCombo>
1.116 

> <ROCS_FitTversky>
1.469 

> <ROCS_FitColorTversky>
0.795 

> <ROCS_FitTverskyCombo>
2.264 

> <ROCS_ColorScore>
-7.017

> <ROCS_Overlap>
950.474

> <ROCS_Rank>
131                 

$$$$
untitled-dbase-33348_30
  -OEChem-06232314403D

 36 37  0     1  0  0  0  0  0999 V2000
  -10.7275   13.4118  -37.2782 C   0  0  0  0  0  0  0  0  0  0  0  0
  -11.3968   15.9107  -39.3076 C   0  0  0  0  0  0  0  0  0  0  0  0
  -12.4728   15.2202  -40.1644 C   0  0  0  0  0  0  0  0  0  0  0  0
  -13.0005   16.2512  -37.4169 C   0  0  0  0  0  0  0  0  0  0  0  0
  -13.1996   13.8960  -37.5544 C   0  0  0  0  0  0  0  0  0  0  0  0
  -13.9093   15.1765  -38.0319 C   0  0  2  0  0  0  0  0  0  0  0  0
  -11.6281   15.6970  -37.8002 C   0  0  1  0  0  0  0  0  0  0  0  0
  -13.8745   15.3700  -39.5605 C   0  0  2  0  0  0  0  0  0  0  0  0
   -9.5253   13.2027  -35.0660 C   0  0  0  0  0  0  0  0  0  0  0  0
   -7.4253   13.3336  -36.4379 C   0  0  0  0  0  0  0  0  0  0  0  0
   -8.5166   15.4417  -35.6172 C   0  0  0  0  0  0  0  0  0  0  0  0
   -8.7520   14.0130  -36.1053 C   0  0  0  0  0  0  0  0  0  0  0  0
  -11.7854   14.2694  -37.5177 N   0  0  0  0  0  0  0  0  0  0  0  0
  -10.8484   12.2082  -37.0628 O   0  0  0  0  0  0  0  0  0  0  0  0
   -9.5243   14.0642  -37.3099 O   0  0  0  0  0  0  0  0  0  0  0  0
  -15.1078   14.1305  -40.4325 Br  0  0  0  0  0  0  0  0  0  0  0  0
  -10.4071   15.5396  -39.5985 H   0  0  0  0  0  0  0  0  0  0  0  0
  -11.4065   16.9869  -39.5210 H   0  0  0  0  0  0  0  0  0  0  0  0
  -12.4502   15.6258  -41.1832 H   0  0  0  0  0  0  0  0  0  0  0  0
  -12.2106   14.1583  -40.2623 H   0  0  0  0  0  0  0  0  0  0  0  0
  -13.1891   17.2547  -37.8119 H   0  0  0  0  0  0  0  0  0  0  0  0
  -13.1178   16.2825  -36.3266 H   0  0  0  0  0  0  0  0  0  0  0  0
  -13.4959   13.6361  -36.5318 H   0  0  0  0  0  0  0  0  0  0  0  0
  -13.3502   13.0226  -38.1946 H   0  0  0  0  0  0  0  0  0  0  0  0
  -14.9312   15.2406  -37.6439 H   0  0  0  0  0  0  0  0  0  0  0  0
  -10.8119   16.1281  -37.2126 H   0  0  0  0  0  0  0  0  0  0  0  0
  -14.2704   16.3621  -39.8082 H   0  0  0  0  0  0  0  0  0  0  0  0
  -10.4783   13.6870  -34.8246 H   0  0  0  0  0  0  0  0  0  0  0  0
   -9.7311   12.1866  -35.4183 H   0  0  0  0  0  0  0  0  0  0  0  0
   -8.9654   13.1364  -34.1262 H   0  0  0  0  0  0  0  0  0  0  0  0
   -6.8671   13.9116  -37.1832 H   0  0  0  0  0  0  0  0  0  0  0  0
   -7.5932   12.3437  -36.8774 H   0  0  0  0  0  0  0  0  0  0  0  0
   -6.7974   13.2163  -35.5488 H   0  0  0  0  0  0  0  0  0  0  0  0
   -7.9619   16.0231  -36.3625 H   0  0  0  0  0  0  0  0  0  0  0  0
   -9.4596   15.9572  -35.4087 H   0  0  0  0  0  0  0  0  0  0  0  0
   -7.9080   15.4467  -34.7057 H   0  0  0  0  0  0  0  0  0  0  0  0
  1 13  1  0  0  0  0
  1 14  2  0  0  0  0
  1 15  1  0  0  0  0
  2  3  1  0  0  0  0
  2  7  1  0  0  0  0
  3  8  1  0  0  0  0
  4  6  1  0  0  0  0
  4  7  1  0  0  0  0
  5  6  1  0  0  0  0
  5 13  1  0  0  0  0
  6  8  1  0  0  0  0
  7 13  1  0  0  0  0
  8 16  1  0  0  0  0
  9 12  1  0  0  0  0
 10 12  1  0  0  0  0
 11 12  1  0  0  0  0
 12 15  1  0  0  0  0
  2 17  1  0  0  0  0
  2 18  1  0  0  0  0
  3 19  1  0  0  0  0
  3 20  1  0  0  0  0
  4 21  1  0  0  0  0
  4 22  1  0  0  0  0
  5 23  1  0  0  0  0
  5 24  1  0  0  0  0
  6 25  1  0  0  0  0
  7 26  1  0  0  0  0
  8 27  1  0  0  0  0
  9 28  1  0  0  0  0
  9 29  1  0  0  0  0
  9 30  1  0  0  0  0
 10 31  1  0  0  0  0
 10 32  1  0  0  0  0
 10 33  1  0  0  0  0
 11 34  1  0  0  0  0
 11 35  1  0  0  0  0
 11 36  1  0  0  0  0
M  END
> <id>
EN300-1067850

> <smiles>
CC(C)(C)OC(=O)N1CC2CC1CCC2Br

> <MDLNUMBER>
MFCD32762129

> <IUPAC Name>
tert-butyl 2-bromo-6-azabicyclo[3.2.1]octane-6-carboxylate

> <CAS>
2138025-39-3

> <URL>
https://www.enaminestore.com/catalog/EN300-1067850

> <ROCS_ShapeQuery>
_x1247relevant_x1083L0AP1_x1305L0BP1_

> <ROCS_TanimotoCombo>
1.055 

> <ROCS_ShapeTanimoto>
0.516 

> <ROCS_ColorTanimoto>
0.539 

> <ROCS_RefTversky>
0.448 

> <ROCS_RefColorTversky>
0.673 

> <ROCS_RefTverskyCombo>
1.122 

> <ROCS_FitTversky>
1.410 

> <ROCS_FitColorTversky>
0.730 

> <ROCS_FitTverskyCombo>
2.140 

> <ROCS_ColorScore>
-6.481

> <ROCS_Overlap>
1106.794

> <ROCS_Rank>
132                 

$$$$
untitled-dbase-50984_0
  -OEChem-06232314403D

 19 20  0     0  0  0  0  0  0999 V2000
  -15.2623   14.1099  -40.5364 C   0  0  0  0  0  0  0  0  0  0  0  0
  -14.3761   14.4915  -39.8221 C   0  0  0  0  0  0  0  0  0  0  0  0
  -12.6328   13.9451  -37.9802 C   0  0  0  0  0  0  0  0  0  0  0  0
  -13.6604   15.7366  -37.6618 C   0  0  0  0  0  0  0  0  0  0  0  0
  -11.3859   15.9842  -38.5698 C   0  0  0  0  0  0  0  0  0  0  0  0
  -13.3214   14.9452  -38.9728 C   0  0  0  0  0  0  0  0  0  0  0  0
  -12.1598   15.3322  -37.4004 C   0  0  0  0  0  0  0  0  0  0  0  0
  -11.5486   15.4413  -36.0362 C   0  0  0  0  0  0  0  0  0  0  0  0
  -12.2710   15.6701  -39.6600 O   0  0  0  0  0  0  0  0  0  0  0  0
  -10.4238   14.6973  -35.9442 F   0  0  0  0  0  0  0  0  0  0  0  0
  -11.2204   16.7206  -35.7491 F   0  0  0  0  0  0  0  0  0  0  0  0
  -12.4046   15.0122  -35.0822 F   0  0  0  0  0  0  0  0  0  0  0  0
  -16.0486   13.7715  -41.1699 H   0  0  0  0  0  0  0  0  0  0  0  0
  -13.2833   13.3382  -37.3400 H   0  0  0  0  0  0  0  0  0  0  0  0
  -11.8469   13.3104  -38.4008 H   0  0  0  0  0  0  0  0  0  0  0  0
  -13.8519   16.8075  -37.7797 H   0  0  0  0  0  0  0  0  0  0  0  0
  -14.4120   15.3062  -36.9902 H   0  0  0  0  0  0  0  0  0  0  0  0
  -11.2955   17.0692  -38.4656 H   0  0  0  0  0  0  0  0  0  0  0  0
  -10.4099   15.5208  -38.7403 H   0  0  0  0  0  0  0  0  0  0  0  0
  1  2  3  0  0  0  0
  2  6  1  1  0  0  0
  3  6  1  0  0  0  0
  3  7  1  0  0  0  0
  4  6  1  0  0  0  0
  4  7  1  0  0  0  0
  5  7  1  0  0  0  0
  5  9  1  0  0  0  0
  6  9  1  0  0  0  0
  7  8  1  1  0  0  0
  8 10  1  0  0  0  0
  8 11  1  0  0  0  0
  8 12  1  0  0  0  0
  1 13  1  0  0  0  0
  3 14  1  0  0  0  0
  3 15  1  0  0  0  0
  4 16  1  0  0  0  0
  4 17  1  0  0  0  0
  5 18  1  0  0  0  0
  5 19  1  0  0  0  0
M  END
> <id>
EN300-37375403

> <smiles>
FC(F)(F)[C@]1(C[C@]2(C1)C#C)CO2

> <IUPAC Name>
1-ethynyl-4-(trifluoromethyl)-2-oxabicyclo[2.1.1]hexane

> <CAS>
2503208-69-1

> <URL>
https://www.enaminestore.com/catalog/EN300-37375403

> <ROCS_ShapeQuery>
_x1247relevant_x1083L0AP1_x1305L0BP1_

> <ROCS_TanimotoCombo>
1.055 

> <ROCS_ShapeTanimoto>
0.441 

> <ROCS_ColorTanimoto>
0.614 

> <ROCS_RefTversky>
0.386 

> <ROCS_RefColorTversky>
0.729 

> <ROCS_RefTverskyCombo>
1.116 

> <ROCS_FitTversky>
1.469 

> <ROCS_FitColorTversky>
0.795 

> <ROCS_FitTverskyCombo>
2.264 

> <ROCS_ColorScore>
-7.015

> <ROCS_Overlap>
950.750

> <ROCS_Rank>
133                 

$$$$
untitled-dbase-48890_0
  -OEChem-06232314403D

 21 22  0     1  0  0  0  0  0999 V2000
  -15.4373   14.0061  -40.7037 C   0  0  0  0  0  0  0  0  0  0  0  0
  -14.7163   14.1745  -39.7589 C   0  0  0  0  0  0  0  0  0  0  0  0
  -11.6752   15.6432  -37.0770 C   0  0  0  0  0  0  0  0  0  0  0  0
  -11.4875   14.2679  -37.7354 C   0  0  0  0  0  0  0  0  0  0  0  0
  -14.0070   15.7865  -37.9889 C   0  0  0  0  0  0  0  0  0  0  0  0
  -12.0979   15.8364  -39.4106 C   0  0  0  0  0  0  0  0  0  0  0  0
  -13.8335   14.3809  -38.6011 C   0  0  2  0  0  0  0  0  0  0  0  0
  -12.5880   16.3814  -38.0714 C   0  0  2  0  0  0  0  0  0  0  0  0
  -12.3421   14.3775  -39.0117 C   0  0  2  0  0  0  0  0  0  0  0  0
  -16.0768   13.8567  -41.5421 H   0  0  0  0  0  0  0  0  0  0  0  0
  -12.1178   15.5646  -36.0790 H   0  0  0  0  0  0  0  0  0  0  0  0
  -10.7084   16.1506  -36.9833 H   0  0  0  0  0  0  0  0  0  0  0  0
  -10.4321   14.1114  -37.9865 H   0  0  0  0  0  0  0  0  0  0  0  0
  -11.8068   13.4505  -37.0813 H   0  0  0  0  0  0  0  0  0  0  0  0
  -14.7120   16.4020  -38.5611 H   0  0  0  0  0  0  0  0  0  0  0  0
  -14.3667   15.7357  -36.9555 H   0  0  0  0  0  0  0  0  0  0  0  0
  -12.7036   16.1665  -40.2607 H   0  0  0  0  0  0  0  0  0  0  0  0
  -11.0436   16.0585  -39.6072 H   0  0  0  0  0  0  0  0  0  0  0  0
  -14.0405   13.6052  -37.8550 H   0  0  0  0  0  0  0  0  0  0  0  0
  -12.5634   17.4676  -37.9639 H   0  0  0  0  0  0  0  0  0  0  0  0
  -12.0800   13.6387  -39.7732 H   0  0  0  0  0  0  0  0  0  0  0  0
  1  2  3  0  0  0  0
  2  7  1  0  0  0  0
  3  4  1  0  0  0  0
  3  8  1  0  0  0  0
  4  9  1  0  0  0  0
  5  7  1  0  0  0  0
  5  8  1  0  0  0  0
  6  8  1  0  0  0  0
  6  9  1  0  0  0  0
  7  9  1  0  0  0  0
  1 10  1  0  0  0  0
  3 11  1  0  0  0  0
  3 12  1  0  0  0  0
  4 13  1  0  0  0  0
  4 14  1  0  0  0  0
  5 15  1  0  0  0  0
  5 16  1  0  0  0  0
  6 17  1  0  0  0  0
  6 18  1  0  0  0  0
  7 19  1  0  0  0  0
  8 20  1  0  0  0  0
  9 21  1  0  0  0  0
M  END
> <id>
EN300-787599

> <smiles>
C#CC1CC2CCC1C2

> <MDLNUMBER>
MFCD18826822

> <IUPAC Name>
2-ethynylbicyclo[2.2.1]heptane

> <CAS>
942577-24-4

> <URL>
https://www.enaminestore.com/catalog/EN300-787599

> <ROCS_ShapeQuery>
_x1247relevant_x1083L0AP1_x1305L0BP1_

> <ROCS_TanimotoCombo>
1.054 

> <ROCS_ShapeTanimoto>
0.387 

> <ROCS_ColorTanimoto>
0.667 

> <ROCS_RefTversky>
0.336 

> <ROCS_RefColorTversky>
0.712 

> <ROCS_RefTverskyCombo>
1.048 

> <ROCS_FitTversky>
1.652 

> <ROCS_FitColorTversky>
0.914 

> <ROCS_FitTverskyCombo>
2.567 

> <ROCS_ColorScore>
-6.796

> <ROCS_Overlap>
823.849

> <ROCS_Rank>
134                 

$$$$
untitled-dbase-23595_30
  -OEChem-06232314403D

 38 39  0     1  0  0  0  0  0999 V2000
  -15.4142   13.9860  -40.7149 C   0  0  0  0  0  0  0  0  0  0  0  0
  -14.3339   14.2731  -40.2774 C   0  0  0  0  0  0  0  0  0  0  0  0
  -10.4359   13.3287  -37.6906 C   0  0  0  0  0  0  0  0  0  0  0  0
  -13.4711   16.1341  -37.2292 C   0  0  0  0  0  0  0  0  0  0  0  0
  -13.6963   14.6150  -37.2942 C   0  0  0  0  0  0  0  0  0  0  0  0
  -12.8278   16.1567  -39.6426 C   0  0  0  0  0  0  0  0  0  0  0  0
  -11.0922   15.7519  -37.8841 C   0  0  0  0  0  0  0  0  0  0  0  0
  -13.0080   14.6251  -39.7410 C   0  0  1  0  0  0  0  0  0  0  0  0
  -12.3671   16.5436  -38.2216 C   0  0  2  0  0  0  0  0  0  0  0  0
  -12.7654   13.9884  -38.3519 C   0  0  1  0  0  0  0  0  0  0  0  0
   -9.7387   12.6026  -35.3709 C   0  0  0  0  0  0  0  0  0  0  0  0
   -7.3928   12.7905  -36.2488 C   0  0  0  0  0  0  0  0  0  0  0  0
   -8.5205   14.8019  -35.2532 C   0  0  0  0  0  0  0  0  0  0  0  0
   -8.7223   13.5163  -36.0542 C   0  0  0  0  0  0  0  0  0  0  0  0
  -11.3803   14.3144  -37.9594 N   0  0  0  0  0  0  0  0  0  0  0  0
  -10.6555   12.1209  -37.7476 O   0  0  0  0  0  0  0  0  0  0  0  0
   -9.2197   13.8611  -37.3521 O   0  0  0  0  0  0  0  0  0  0  0  0
  -16.3728   13.7314  -41.1029 H   0  0  0  0  0  0  0  0  0  0  0  0
  -14.4050   16.6601  -37.4601 H   0  0  0  0  0  0  0  0  0  0  0  0
  -13.1900   16.4233  -36.2094 H   0  0  0  0  0  0  0  0  0  0  0  0
  -13.5003   14.1690  -36.3112 H   0  0  0  0  0  0  0  0  0  0  0  0
  -14.7470   14.4029  -37.5228 H   0  0  0  0  0  0  0  0  0  0  0  0
  -12.0734   16.4796  -40.3714 H   0  0  0  0  0  0  0  0  0  0  0  0
  -13.7505   16.6948  -39.8935 H   0  0  0  0  0  0  0  0  0  0  0  0
  -10.2825   15.9784  -38.5870 H   0  0  0  0  0  0  0  0  0  0  0  0
  -10.7362   15.9800  -36.8730 H   0  0  0  0  0  0  0  0  0  0  0  0
  -12.2593   14.2304  -40.4413 H   0  0  0  0  0  0  0  0  0  0  0  0
  -12.1788   17.6206  -38.1615 H   0  0  0  0  0  0  0  0  0  0  0  0
  -12.9083   12.9027  -38.3840 H   0  0  0  0  0  0  0  0  0  0  0  0
  -10.6944   13.1199  -35.2294 H   0  0  0  0  0  0  0  0  0  0  0  0
   -9.9186   11.6929  -35.9530 H   0  0  0  0  0  0  0  0  0  0  0  0
   -9.3938   12.3119  -34.3721 H   0  0  0  0  0  0  0  0  0  0  0  0
   -6.6605   13.4424  -36.7387 H   0  0  0  0  0  0  0  0  0  0  0  0
   -7.5159   11.9190  -36.9019 H   0  0  0  0  0  0  0  0  0  0  0  0
   -6.9735   12.4530  -35.2955 H   0  0  0  0  0  0  0  0  0  0  0  0
   -7.7914   15.4574  -35.7431 H   0  0  0  0  0  0  0  0  0  0  0  0
   -9.4580   15.3549  -35.1352 H   0  0  0  0  0  0  0  0  0  0  0  0
   -8.1183   14.5816  -34.2577 H   0  0  0  0  0  0  0  0  0  0  0  0
  1  2  3  0  0  0  0
  2  8  1  0  0  0  0
  3 15  1  0  0  0  0
  3 16  2  0  0  0  0
  3 17  1  0  0  0  0
  4  5  1  0  0  0  0
  4  9  1  0  0  0  0
  5 10  1  0  0  0  0
  6  8  1  0  0  0  0
  6  9  1  0  0  0  0
  7  9  1  0  0  0  0
  7 15  1  0  0  0  0
  8 10  1  0  0  0  0
 10 15  1  0  0  0  0
 11 14  1  0  0  0  0
 12 14  1  0  0  0  0
 13 14  1  0  0  0  0
 14 17  1  0  0  0  0
  1 18  1  0  0  0  0
  4 19  1  0  0  0  0
  4 20  1  0  0  0  0
  5 21  1  0  0  0  0
  5 22  1  0  0  0  0
  6 23  1  0  0  0  0
  6 24  1  0  0  0  0
  7 25  1  0  0  0  0
  7 26  1  0  0  0  0
  8 27  1  0  0  0  0
  9 28  1  0  0  0  0
 10 29  1  0  0  0  0
 11 30  1  0  0  0  0
 11 31  1  0  0  0  0
 11 32  1  0  0  0  0
 12 33  1  0  0  0  0
 12 34  1  0  0  0  0
 12 35  1  0  0  0  0
 13 36  1  0  0  0  0
 13 37  1  0  0  0  0
 13 38  1  0  0  0  0
M  END
> <id>
EN300-37152379

> <smiles>
CC(C)(C)OC(=O)N1CC2CCC1C(C2)C#C

> <MDLNUMBER>
MFCD34575500

> <IUPAC Name>
tert-butyl 6-ethynyl-2-azabicyclo[2.2.2]octane-2-carboxylate

> <CAS>
2742660-91-7

> <Purity>
95

> <URL>
https://www.enaminestore.com/catalog/EN300-37152379

> <ROCS_ShapeQuery>
_x1247relevant_x1083L0AP1_x1305L0BP1_

> <ROCS_TanimotoCombo>
1.054 

> <ROCS_ShapeTanimoto>
0.501 

> <ROCS_ColorTanimoto>
0.552 

> <ROCS_RefTversky>
0.447 

> <ROCS_RefColorTversky>
0.690 

> <ROCS_RefTverskyCombo>
1.137 

> <ROCS_FitTversky>
1.319 

> <ROCS_FitColorTversky>
0.734 

> <ROCS_FitTverskyCombo>
2.054 

> <ROCS_ColorScore>
-6.650

> <ROCS_Overlap>
1104.708

> <ROCS_Rank>
135                 

$$$$
untitled-dbase-21147_0
  -OEChem-06232314403D

 21 23  0     1  0  0  0  0  0999 V2000
   -9.5688   13.7964  -36.6357 C   0  0  0  0  0  0  0  0  0  0  0  0
  -10.8147   13.3512  -37.0860 C   0  0  0  0  0  0  0  0  0  0  0  0
   -9.2317   15.1651  -36.6671 C   0  0  0  0  0  0  0  0  0  0  0  0
  -11.6942   14.3032  -37.5500 C   0  0  0  0  0  0  0  0  0  0  0  0
  -11.3589   15.6640  -37.5812 C   0  0  0  0  0  0  0  0  0  0  0  0
  -10.1331   16.1179  -37.1495 C   0  0  0  0  0  0  0  0  0  0  0  0
  -13.0265   14.5078  -39.6280 C   0  0  0  0  0  0  0  0  0  0  0  0
  -12.6560   16.0115  -39.6626 C   0  0  0  0  0  0  0  0  0  0  0  0
  -13.0718   14.2123  -38.1255 C   0  0  2  0  0  0  0  0  0  0  0  0
  -12.5429   16.3591  -38.1749 C   0  0  1  0  0  0  0  0  0  0  0  0
  -13.5871   15.4896  -37.6364 O   0  0  0  0  0  0  0  0  0  0  0  0
   -9.6600   17.9392  -37.2076 Br  0  0  0  0  0  0  0  0  0  0  0  0
   -8.8458   13.0773  -36.2593 H   0  0  0  0  0  0  0  0  0  0  0  0
  -11.0712   12.2985  -37.0700 H   0  0  0  0  0  0  0  0  0  0  0  0
   -8.2482   15.4646  -36.3112 H   0  0  0  0  0  0  0  0  0  0  0  0
  -14.0156   14.3701  -40.0791 H   0  0  0  0  0  0  0  0  0  0  0  0
  -12.3057   13.8865  -40.1689 H   0  0  0  0  0  0  0  0  0  0  0  0
  -11.7354   16.2034  -40.2225 H   0  0  0  0  0  0  0  0  0  0  0  0
  -13.4732   16.5729  -40.1292 H   0  0  0  0  0  0  0  0  0  0  0  0
  -13.6828   13.3712  -37.7938 H   0  0  0  0  0  0  0  0  0  0  0  0
  -12.7032   17.3994  -37.8894 H   0  0  0  0  0  0  0  0  0  0  0  0
  1  2  2  0  0  0  0
  1  3  1  0  0  0  0
  2  4  1  0  0  0  0
  3  6  2  0  0  0  0
  4  5  2  0  0  0  0
  4  9  1  0  0  0  0
  5  6  1  0  0  0  0
  5 10  1  0  0  0  0
  6 12  1  0  0  0  0
  7  8  1  0  0  0  0
  7  9  1  0  0  0  0
  8 10  1  0  0  0  0
  9 11  1  0  0  0  0
 10 11  1  0  0  0  0
  1 13  1  0  0  0  0
  2 14  1  0  0  0  0
  3 15  1  0  0  0  0
  7 16  1  0  0  0  0
  7 17  1  0  0  0  0
  8 18  1  0  0  0  0
  8 19  1  0  0  0  0
  9 20  1  0  0  0  0
 10 21  1  0  0  0  0
M  END
> <id>
EN300-26682260

> <smiles>
BrC=1C=CC=C2C3CCC(O3)C21

> <MDLNUMBER>
MFCD32710704

> <IUPAC Name>
3-bromo-11-oxatricyclo[6.2.1.0,2,7]undeca-2(7),3,5-triene

> <CAS>
2470440-02-7

> <Purity>
95

> <URL>
https://www.enaminestore.com/catalog/EN300-26682260

> <ROCS_ShapeQuery>
_x1247relevant_x1083L0AP1_x1305L0BP1_

> <ROCS_TanimotoCombo>
1.053 

> <ROCS_ShapeTanimoto>
0.495 

> <ROCS_ColorTanimoto>
0.558 

> <ROCS_RefTversky>
0.419 

> <ROCS_RefColorTversky>
0.709 

> <ROCS_RefTverskyCombo>
1.128 

> <ROCS_FitTversky>
1.583 

> <ROCS_FitColorTversky>
0.724 

> <ROCS_FitTverskyCombo>
2.308 

> <ROCS_ColorScore>
-6.845

> <ROCS_Overlap>
1030.531

> <ROCS_Rank>
136                 

$$$$
untitled-dbase-19360_12
  -OEChem-06232314403D

 38 39  0     0  0  0  0  0  0999 V2000
  -15.4342   13.9699  -40.7381 C   0  0  0  0  0  0  0  0  0  0  0  0
  -14.5735   14.3689  -40.0025 C   0  0  0  0  0  0  0  0  0  0  0  0
  -10.5933   13.4205  -37.1593 C   0  0  0  0  0  0  0  0  0  0  0  0
  -11.5164   16.3822  -38.8616 C   0  0  0  0  0  0  0  0  0  0  0  0
  -13.0143   15.9883  -36.8964 C   0  0  0  0  0  0  0  0  0  0  0  0
  -12.6327   15.9085  -39.8080 C   0  0  0  0  0  0  0  0  0  0  0  0
  -14.1312   15.5145  -37.8421 C   0  0  0  0  0  0  0  0  0  0  0  0
  -12.6102   13.6982  -38.6403 C   0  0  0  0  0  0  0  0  0  0  0  0
  -11.6389   15.6707  -37.5047 C   0  0  0  0  0  0  0  0  0  0  0  0
  -13.5193   14.8571  -39.1010 C   0  0  0  0  0  0  0  0  0  0  0  0
   -8.2667   13.9370  -38.2511 C   0  0  0  0  0  0  0  0  0  0  0  0
   -7.7437   15.4492  -36.3149 C   0  0  0  0  0  0  0  0  0  0  0  0
   -7.6847   12.9572  -36.0071 C   0  0  0  0  0  0  0  0  0  0  0  0
   -8.3604   14.1173  -36.7367 C   0  0  0  0  0  0  0  0  0  0  0  0
  -11.5712   14.2198  -37.7439 N   0  0  0  0  0  0  0  0  0  0  0  0
  -10.4943   12.2072  -37.3276 O   0  0  0  0  0  0  0  0  0  0  0  0
   -9.7433   14.1455  -36.3659 O   0  0  0  0  0  0  0  0  0  0  0  0
  -16.1977   13.6162  -41.3908 H   0  0  0  0  0  0  0  0  0  0  0  0
  -10.5359   16.1797  -39.3095 H   0  0  0  0  0  0  0  0  0  0  0  0
  -11.5819   17.4685  -38.7272 H   0  0  0  0  0  0  0  0  0  0  0  0
  -13.1112   17.0664  -36.7207 H   0  0  0  0  0  0  0  0  0  0  0  0
  -13.1196   15.5003  -35.9198 H   0  0  0  0  0  0  0  0  0  0  0  0
  -13.2325   16.7695  -40.1311 H   0  0  0  0  0  0  0  0  0  0  0  0
  -12.1863   15.4903  -40.7197 H   0  0  0  0  0  0  0  0  0  0  0  0
  -14.7833   14.8075  -37.3128 H   0  0  0  0  0  0  0  0  0  0  0  0
  -14.7671   16.3660  -38.1177 H   0  0  0  0  0  0  0  0  0  0  0  0
  -13.1742   12.9281  -38.0994 H   0  0  0  0  0  0  0  0  0  0  0  0
  -12.1161   13.2063  -39.4875 H   0  0  0  0  0  0  0  0  0  0  0  0
  -10.8382   15.9902  -36.8303 H   0  0  0  0  0  0  0  0  0  0  0  0
   -8.7083   12.9822  -38.5580 H   0  0  0  0  0  0  0  0  0  0  0  0
   -8.7778   14.7443  -38.7859 H   0  0  0  0  0  0  0  0  0  0  0  0
   -7.2209   13.9132  -38.5781 H   0  0  0  0  0  0  0  0  0  0  0  0
   -7.8088   15.5827  -35.2290 H   0  0  0  0  0  0  0  0  0  0  0  0
   -8.2865   16.2897  -36.7623 H   0  0  0  0  0  0  0  0  0  0  0  0
   -6.6919   15.5190  -36.6103 H   0  0  0  0  0  0  0  0  0  0  0  0
   -7.7518   13.0863  -34.9208 H   0  0  0  0  0  0  0  0  0  0  0  0
   -8.1390   11.9963  -36.2696 H   0  0  0  0  0  0  0  0  0  0  0  0
   -6.6164   12.9148  -36.2480 H   0  0  0  0  0  0  0  0  0  0  0  0
  1  2  3  0  0  0  0
  2 10  1  0  0  0  0
  3 15  1  0  0  0  0
  3 16  2  0  0  0  0
  3 17  1  0  0  0  0
  4  6  1  0  0  0  0
  4  9  1  0  0  0  0
  5  7  1  0  0  0  0
  5  9  1  0  0  0  0
  6 10  1  0  0  0  0
  7 10  1  0  0  0  0
  8 10  1  0  0  0  0
  8 15  1  0  0  0  0
  9 15  1  0  0  0  0
 11 14  1  0  0  0  0
 12 14  1  0  0  0  0
 13 14  1  0  0  0  0
 14 17  1  0  0  0  0
  1 18  1  0  0  0  0
  4 19  1  0  0  0  0
  4 20  1  0  0  0  0
  5 21  1  0  0  0  0
  5 22  1  0  0  0  0
  6 23  1  0  0  0  0
  6 24  1  0  0  0  0
  7 25  1  0  0  0  0
  7 26  1  0  0  0  0
  8 27  1  0  0  0  0
  8 28  1  0  0  0  0
  9 29  1  0  0  0  0
 11 30  1  0  0  0  0
 11 31  1  0  0  0  0
 11 32  1  0  0  0  0
 12 33  1  0  0  0  0
 12 34  1  0  0  0  0
 12 35  1  0  0  0  0
 13 36  1  0  0  0  0
 13 37  1  0  0  0  0
 13 38  1  0  0  0  0
M  END
> <id>
EN300-36970793

> <smiles>
CC(C)(C)OC(=O)N1CC2(CCC1CC2)C#C

> <MDLNUMBER>
MFCD34562834

> <IUPAC Name>
tert-butyl 4-ethynyl-2-azabicyclo[2.2.2]octane-2-carboxylate

> <CAS>
2728463-36-1

> <Purity>
95

> <URL>
https://www.enaminestore.com/catalog/EN300-36970793

> <ROCS_ShapeQuery>
_x1247relevant_x1083L0AP1_x1305L0BP1_

> <ROCS_TanimotoCombo>
1.053 

> <ROCS_ShapeTanimoto>
0.522 

> <ROCS_ColorTanimoto>
0.531 

> <ROCS_RefTversky>
0.459 

> <ROCS_RefColorTversky>
0.674 

> <ROCS_RefTverskyCombo>
1.133 

> <ROCS_FitTversky>
1.351 

> <ROCS_FitColorTversky>
0.716 

> <ROCS_FitTverskyCombo>
2.067 

> <ROCS_ColorScore>
-6.488

> <ROCS_Overlap>
1135.308

> <ROCS_Rank>
137                 

$$$$
untitled-dbase-36132_0
  -OEChem-06232314403D

 22 24  0     1  0  0  0  0  0999 V2000
  -12.3891   16.2277  -39.6613 C   0  0  0  0  0  0  0  0  0  0  0  0
  -12.3501   14.7417  -39.9895 C   0  0  0  0  0  0  0  0  0  0  0  0
  -14.2556   15.9571  -38.1294 C   0  0  0  0  0  0  0  0  0  0  0  0
  -14.2133   14.4241  -38.3580 C   0  0  0  0  0  0  0  0  0  0  0  0
  -12.8309   16.5442  -38.2362 C   0  0  1  0  0  0  0  0  0  0  0  0
  -12.7702   13.9795  -38.7170 C   0  0  2  0  0  0  0  0  0  0  0  0
  -11.9590   15.8236  -37.2283 C   0  0  1  0  0  0  0  0  0  0  0  0
  -11.8956   14.3340  -37.5210 C   0  0  2  0  0  0  0  0  0  0  0  0
  -10.6552   15.1676  -37.5309 C   0  0  0  0  0  0  0  0  0  0  0  0
  -12.0934   17.0949  -40.4774 O   0  0  0  0  0  0  0  0  0  0  0  0
   -9.7248   15.0123  -36.5249 F   0  0  0  0  0  0  0  0  0  0  0  0
   -9.9491   15.4427  -38.6772 F   0  0  0  0  0  0  0  0  0  0  0  0
  -13.0474   14.5427  -40.8097 H   0  0  0  0  0  0  0  0  0  0  0  0
  -11.3391   14.4650  -40.3010 H   0  0  0  0  0  0  0  0  0  0  0  0
  -14.9169   16.4190  -38.8727 H   0  0  0  0  0  0  0  0  0  0  0  0
  -14.6828   16.1666  -37.1415 H   0  0  0  0  0  0  0  0  0  0  0  0
  -14.5507   13.9116  -37.4487 H   0  0  0  0  0  0  0  0  0  0  0  0
  -14.9106   14.1483  -39.1579 H   0  0  0  0  0  0  0  0  0  0  0  0
  -12.8245   17.6250  -38.0691 H   0  0  0  0  0  0  0  0  0  0  0  0
  -12.7381   12.8995  -38.8949 H   0  0  0  0  0  0  0  0  0  0  0  0
  -12.1570   16.1267  -36.2078 H   0  0  0  0  0  0  0  0  0  0  0  0
  -12.0418   13.6562  -36.6881 H   0  0  0  0  0  0  0  0  0  0  0  0
  1  2  1  0  0  0  0
  1  5  1  0  0  0  0
  1 10  2  0  0  0  0
  2  6  1  0  0  0  0
  3  4  1  0  0  0  0
  3  5  1  6  0  0  0
  4  6  1  6  0  0  0
  5  7  1  0  0  0  0
  6  8  1  0  0  0  0
  7  8  1  0  0  0  0
  7  9  1  0  0  0  0
  8  9  1  0  0  0  0
  9 11  1  0  0  0  0
  9 12  1  0  0  0  0
  2 13  1  0  0  0  0
  2 14  1  0  0  0  0
  3 15  1  0  0  0  0
  3 16  1  0  0  0  0
  4 17  1  0  0  0  0
  4 18  1  0  0  0  0
  5 19  1  0  0  0  0
  6 20  1  0  0  0  0
  7 21  1  0  0  0  0
  8 22  1  0  0  0  0
M  END
> <id>
EN300-1725740

> <smiles>
FC1(F)C2C1[C@@H]3CC[C@H]2CC3=O

> <IUPAC Name>
(1S,5S)-3,3-difluorotricyclo[3.2.2.0,2,4]nonan-6-one

> <CAS>
2225132-10-3

> <URL>
https://www.enaminestore.com/catalog/EN300-1725740

> <ROCS_ShapeQuery>
_x1247relevant_x1083L0AP1_x1305L0BP1_

> <ROCS_TanimotoCombo>
1.053 

> <ROCS_ShapeTanimoto>
0.501 

> <ROCS_ColorTanimoto>
0.552 

> <ROCS_RefTversky>
0.422 

> <ROCS_RefColorTversky>
0.953 

> <ROCS_RefTverskyCombo>
1.375 

> <ROCS_FitTversky>
1.602 

> <ROCS_FitColorTversky>
0.567 

> <ROCS_FitTverskyCombo>
2.169 

> <ROCS_ColorScore>
-9.568

> <ROCS_Overlap>
1038.421

> <ROCS_Rank>
138                 

$$$$
untitled-dbase-15826_0
  -OEChem-06232314403D

 30 32  0     1  0  0  0  0  0999 V2000
  -10.0349   15.9683  -37.4717 C   0  0  0  0  0  0  0  0  0  0  0  0
  -10.3544   13.3328  -36.2146 C   0  0  0  0  0  0  0  0  0  0  0  0
  -13.8473   14.4553  -38.9870 C   0  0  0  0  0  0  0  0  0  0  0  0
  -13.5656   14.3176  -37.4839 C   0  0  0  0  0  0  0  0  0  0  0  0
  -10.6340   13.5495  -37.6944 C   0  0  0  0  0  0  0  0  0  0  0  0
  -12.9920   16.5053  -38.1378 C   0  0  0  0  0  0  0  0  0  0  0  0
  -11.4901   15.1879  -39.4453 C   0  0  0  0  0  0  0  0  0  0  0  0
   -9.2765   14.2899  -35.7440 C   0  0  0  0  0  0  0  0  0  0  0  0
  -12.9623   15.6463  -39.3971 C   0  0  1  0  0  0  0  0  0  0  0  0
  -12.4683   15.3714  -37.2425 C   0  0  2  0  0  0  0  0  0  0  0  0
  -11.1235   14.9839  -37.9482 C   0  0  2  0  0  0  0  0  0  0  0  0
   -9.3587   15.6198  -36.3194 N   0  0  0  0  0  0  0  0  0  0  0  0
   -9.8290   17.0495  -38.0262 O   0  0  0  0  0  0  0  0  0  0  0  0
  -11.2662   13.4780  -35.6247 H   0  0  0  0  0  0  0  0  0  0  0  0
  -10.0303   12.3002  -36.0425 H   0  0  0  0  0  0  0  0  0  0  0  0
  -13.6013   13.5420  -39.5379 H   0  0  0  0  0  0  0  0  0  0  0  0
  -14.9074   14.6788  -39.1518 H   0  0  0  0  0  0  0  0  0  0  0  0
  -14.4675   14.5745  -36.9144 H   0  0  0  0  0  0  0  0  0  0  0  0
  -13.2871   13.3012  -37.1980 H   0  0  0  0  0  0  0  0  0  0  0  0
   -9.7123   13.3688  -38.2645 H   0  0  0  0  0  0  0  0  0  0  0  0
  -11.3544   12.8045  -38.0481 H   0  0  0  0  0  0  0  0  0  0  0  0
  -12.3359   17.3778  -38.1903 H   0  0  0  0  0  0  0  0  0  0  0  0
  -14.0004   16.8372  -37.8667 H   0  0  0  0  0  0  0  0  0  0  0  0
  -11.3833   14.2722  -40.0376 H   0  0  0  0  0  0  0  0  0  0  0  0
  -10.8749   15.9568  -39.9244 H   0  0  0  0  0  0  0  0  0  0  0  0
   -9.2905   14.3922  -34.6542 H   0  0  0  0  0  0  0  0  0  0  0  0
   -8.2905   13.9015  -36.0234 H   0  0  0  0  0  0  0  0  0  0  0  0
  -13.2934   16.1388  -40.3135 H   0  0  0  0  0  0  0  0  0  0  0  0
  -12.3637   15.6556  -36.1922 H   0  0  0  0  0  0  0  0  0  0  0  0
   -8.8731   16.3641  -35.8282 H   0  0  0  0  0  0  0  0  0  0  0  0
  1 11  1  0  0  0  0
  1 12  1  0  0  0  0
  1 13  2  0  0  0  0
  2  5  1  0  0  0  0
  2  8  1  0  0  0  0
  3  4  1  0  0  0  0
  3  9  1  0  0  0  0
  4 10  1  0  0  0  0
  5 11  1  0  0  0  0
  6  9  1  0  0  0  0
  6 10  1  0  0  0  0
  7  9  1  0  0  0  0
  7 11  1  0  0  0  0
  8 12  1  0  0  0  0
 10 11  1  0  0  0  0
  2 14  1  0  0  0  0
  2 15  1  0  0  0  0
  3 16  1  0  0  0  0
  3 17  1  0  0  0  0
  4 18  1  0  0  0  0
  4 19  1  0  0  0  0
  5 20  1  0  0  0  0
  5 21  1  0  0  0  0
  6 22  1  0  0  0  0
  6 23  1  0  0  0  0
  7 24  1  0  0  0  0
  7 25  1  0  0  0  0
  8 26  1  0  0  0  0
  8 27  1  0  0  0  0
  9 28  1  0  0  0  0
 10 29  1  0  0  0  0
 12 30  1  0  0  0  0
M  END
> <id>
EN300-1197974

> <smiles>
O=C1NCCCC21CC3CCC2C3

> <IUPAC Name>
spiro[bicyclo[2.2.1]heptane-2,3'-piperidine]-2'-one

> <CAS>
2138098-08-3

> <URL>
https://www.enaminestore.com/catalog/EN300-1197974

> <ROCS_ShapeQuery>
_x1247relevant_x1083L0AP1_x1305L0BP1_

> <ROCS_TanimotoCombo>
1.053 

> <ROCS_ShapeTanimoto>
0.490 

> <ROCS_ColorTanimoto>
0.563 

> <ROCS_RefTversky>
0.420 

> <ROCS_RefColorTversky>
0.707 

> <ROCS_RefTverskyCombo>
1.128 

> <ROCS_FitTversky>
1.513 

> <ROCS_FitColorTversky>
0.733 

> <ROCS_FitTverskyCombo>
2.247 

> <ROCS_ColorScore>
-6.824

> <ROCS_Overlap>
1035.391

> <ROCS_Rank>
139                 

$$$$
untitled-dbase-50947_0
  -OEChem-06232314403D

 22 24  0     0  0  0  0  0  0999 V2000
   -9.9195   15.2280  -37.8658 C   0  0  0  0  0  0  0  0  0  0  0  0
  -13.3364   15.8656  -37.4252 C   0  0  0  0  0  0  0  0  0  0  0  0
  -13.1649   14.0471  -38.4724 C   0  0  0  0  0  0  0  0  0  0  0  0
  -11.8588   15.9539  -39.4526 C   0  0  0  0  0  0  0  0  0  0  0  0
  -11.3764   14.2131  -36.3507 C   0  0  0  0  0  0  0  0  0  0  0  0
  -13.2835   15.5490  -38.9831 C   0  0  0  0  0  0  0  0  0  0  0  0
  -12.2032   14.7736  -37.4601 C   0  0  0  0  0  0  0  0  0  0  0  0
  -14.4156   15.9588  -39.8798 C   0  0  0  0  0  0  0  0  0  0  0  0
  -11.1852   15.3622  -38.3146 N   0  0  0  0  0  0  0  0  0  0  0  0
   -8.8827   15.6229  -38.3751 O   0  0  0  0  0  0  0  0  0  0  0  0
   -9.9885   14.5366  -36.6747 O   0  0  0  0  0  0  0  0  0  0  0  0
  -13.0342   16.8751  -37.1298 H   0  0  0  0  0  0  0  0  0  0  0  0
  -14.2558   15.5960  -36.8939 H   0  0  0  0  0  0  0  0  0  0  0  0
  -14.0671   13.5940  -38.0469 H   0  0  0  0  0  0  0  0  0  0  0  0
  -12.7010   13.3391  -39.1661 H   0  0  0  0  0  0  0  0  0  0  0  0
  -11.5393   15.4668  -40.3770 H   0  0  0  0  0  0  0  0  0  0  0  0
  -11.6868   17.0327  -39.4757 H   0  0  0  0  0  0  0  0  0  0  0  0
  -11.6089   14.6661  -35.3828 H   0  0  0  0  0  0  0  0  0  0  0  0
  -11.4576   13.1251  -36.2738 H   0  0  0  0  0  0  0  0  0  0  0  0
  -14.2215   15.6665  -40.9201 H   0  0  0  0  0  0  0  0  0  0  0  0
  -14.5625   17.0466  -39.8588 H   0  0  0  0  0  0  0  0  0  0  0  0
  -15.3569   15.4869  -39.5687 H   0  0  0  0  0  0  0  0  0  0  0  0
  1  9  1  0  0  0  0
  1 10  2  0  0  0  0
  1 11  1  0  0  0  0
  2  6  1  0  0  0  0
  2  7  1  0  0  0  0
  3  6  1  0  0  0  0
  3  7  1  0  0  0  0
  4  6  1  0  0  0  0
  4  9  1  0  0  0  0
  5  7  1  0  0  0  0
  5 11  1  0  0  0  0
  6  8  1  0  0  0  0
  7  9  1  0  0  0  0
  2 12  1  0  0  0  0
  2 13  1  0  0  0  0
  3 14  1  0  0  0  0
  3 15  1  0  0  0  0
  4 16  1  0  0  0  0
  4 17  1  0  0  0  0
  5 18  1  0  0  0  0
  5 19  1  0  0  0  0
  8 20  1  0  0  0  0
  8 21  1  0  0  0  0
  8 22  1  0  0  0  0
M  END
> <id>
EN300-37351327

> <smiles>
CC1(CC23C1)CN3C(=O)OC2

> <IUPAC Name>
7-methyl-3-oxa-5-azatricyclo[5.1.1.0,1,5]nonan-4-one

> <CAS>
2763776-36-7

> <Purity>
95

> <URL>
https://www.enaminestore.com/catalog/EN300-37351327

> <ROCS_ShapeQuery>
_x1247relevant_x1083L0AP1_x1305L0BP1_

> <ROCS_TanimotoCombo>
1.053 

> <ROCS_ShapeTanimoto>
0.499 

> <ROCS_ColorTanimoto>
0.554 

> <ROCS_RefTversky>
0.416 

> <ROCS_RefColorTversky>
0.688 

> <ROCS_RefTverskyCombo>
1.104 

> <ROCS_FitTversky>
1.661 

> <ROCS_FitColorTversky>
0.740 

> <ROCS_FitTverskyCombo>
2.402 

> <ROCS_ColorScore>
-6.625

> <ROCS_Overlap>
1023.135

> <ROCS_Rank>
140                 

$$$$
untitled-dbase-23197_0
  -OEChem-06232314403D

 24 26  0     1  0  0  0  0  0999 V2000
  -13.6558   14.4496  -37.6614 C   0  0  0  0  0  0  0  0  0  0  0  0
  -13.6641   14.4678  -39.1739 C   0  0  0  0  0  0  0  0  0  0  0  0
   -9.3387   14.3616  -36.8282 C   0  0  0  0  0  0  0  0  0  0  0  0
  -10.7291   13.6971  -36.8549 C   0  0  0  0  0  0  0  0  0  0  0  0
  -10.0595   15.7232  -36.8828 C   0  0  0  0  0  0  0  0  0  0  0  0
  -12.8901   16.4888  -38.3183 C   0  0  0  0  0  0  0  0  0  0  0  0
  -11.2901   14.9971  -39.0960 C   0  0  0  0  0  0  0  0  0  0  0  0
  -12.6564   15.4790  -37.1974 C   0  0  2  0  0  0  0  0  0  0  0  0
  -11.2591   14.9851  -37.5507 C   0  0  0  0  0  0  0  0  0  0  0  0
  -12.6499   15.5324  -39.4432 N   0  0  1  0  0  0  0  0  0  0  0  0
  -14.3026   13.7009  -36.9493 O   0  0  0  0  0  0  0  0  0  0  0  0
  -13.3803   13.5009  -39.5965 H   0  0  0  0  0  0  0  0  0  0  0  0
  -14.6483   14.7775  -39.5367 H   0  0  0  0  0  0  0  0  0  0  0  0
   -8.7402   14.1760  -35.9330 H   0  0  0  0  0  0  0  0  0  0  0  0
   -8.7302   14.1482  -37.7144 H   0  0  0  0  0  0  0  0  0  0  0  0
  -10.7970   12.7688  -37.4283 H   0  0  0  0  0  0  0  0  0  0  0  0
  -11.1481   13.5245  -35.8562 H   0  0  0  0  0  0  0  0  0  0  0  0
  -10.2832   16.1351  -35.8912 H   0  0  0  0  0  0  0  0  0  0  0  0
   -9.5635   16.4960  -37.4760 H   0  0  0  0  0  0  0  0  0  0  0  0
  -13.9051   16.9039  -38.3468 H   0  0  0  0  0  0  0  0  0  0  0  0
  -12.1693   17.3149  -38.3293 H   0  0  0  0  0  0  0  0  0  0  0  0
  -10.5322   15.6757  -39.5044 H   0  0  0  0  0  0  0  0  0  0  0  0
  -11.1237   14.0082  -39.5377 H   0  0  0  0  0  0  0  0  0  0  0  0
  -12.8221   15.8435  -36.1840 H   0  0  0  0  0  0  0  0  0  0  0  0
  1  2  1  0  0  0  0
  1  8  1  0  0  0  0
  1 11  2  0  0  0  0
  2 10  1  0  0  0  0
  3  4  1  0  0  0  0
  3  5  1  0  0  0  0
  4  9  1  0  0  0  0
  5  9  1  0  0  0  0
  6  8  1  0  0  0  0
  6 10  1  0  0  0  0
  7  9  1  0  0  0  0
  7 10  1  0  0  0  0
  8  9  1  0  0  0  0
  2 12  1  0  0  0  0
  2 13  1  0  0  0  0
  3 14  1  0  0  0  0
  3 15  1  0  0  0  0
  4 16  1  0  0  0  0
  4 17  1  0  0  0  0
  5 18  1  0  0  0  0
  5 19  1  0  0  0  0
  6 20  1  0  0  0  0
  6 21  1  0  0  0  0
  7 22  1  0  0  0  0
  7 23  1  0  0  0  0
  8 24  1  0  0  0  0
M  END
> <id>
EN300-37267661

> <smiles>
O=C1CN2CC1C3(CCC3)C2

> <IUPAC Name>
4-azaspiro[bicyclo[2.2.1]heptane-2,1'-cyclobutan]-6-one

> <CAS>
2743434-10-6

> <URL>
https://www.enaminestore.com/catalog/EN300-37267661

> <ROCS_ShapeQuery>
_x1247relevant_x1083L0AP1_x1305L0BP1_

> <ROCS_TanimotoCombo>
1.053 

> <ROCS_ShapeTanimoto>
0.486 

> <ROCS_ColorTanimoto>
0.566 

> <ROCS_RefTversky>
0.408 

> <ROCS_RefColorTversky>
0.715 

> <ROCS_RefTverskyCombo>
1.123 

> <ROCS_FitTversky>
1.657 

> <ROCS_FitColorTversky>
0.731 

> <ROCS_FitTverskyCombo>
2.388 

> <ROCS_ColorScore>
-6.902

> <ROCS_Overlap>
1002.687

> <ROCS_Rank>
141                 

$$$$
untitled-dbase-32978_0
  -OEChem-06232314403D

 22 23  0     0  0  0  0  0  0999 V2000
  -11.5549   16.3126  -38.9354 C   0  0  0  0  0  0  0  0  0  0  0  0
  -11.6291   14.1416  -37.7019 C   0  0  0  0  0  0  0  0  0  0  0  0
  -13.0935   16.0349  -36.9869 C   0  0  0  0  0  0  0  0  0  0  0  0
  -12.6578   15.8165  -39.8825 C   0  0  0  0  0  0  0  0  0  0  0  0
  -12.7330   13.6387  -38.6442 C   0  0  0  0  0  0  0  0  0  0  0  0
  -14.2016   15.5388  -37.9278 C   0  0  0  0  0  0  0  0  0  0  0  0
  -11.7104   15.6687  -37.5484 C   0  0  0  0  0  0  0  0  0  0  0  0
  -13.5848   14.8233  -39.1490 C   0  0  0  0  0  0  0  0  0  0  0  0
  -15.1263   14.1283  -40.4655 I   0  0  0  0  0  0  0  0  0  0  0  0
  -10.5710   16.0723  -39.3555 H   0  0  0  0  0  0  0  0  0  0  0  0
  -11.6021   17.4049  -38.8527 H   0  0  0  0  0  0  0  0  0  0  0  0
  -11.7295   13.6573  -36.7230 H   0  0  0  0  0  0  0  0  0  0  0  0
  -10.6470   13.8522  -38.0949 H   0  0  0  0  0  0  0  0  0  0  0  0
  -13.1745   17.1212  -36.8600 H   0  0  0  0  0  0  0  0  0  0  0  0
  -13.2269   15.5926  -35.9924 H   0  0  0  0  0  0  0  0  0  0  0  0
  -13.2255   16.6768  -40.2598 H   0  0  0  0  0  0  0  0  0  0  0  0
  -12.1966   15.3464  -40.7607 H   0  0  0  0  0  0  0  0  0  0  0  0
  -12.2749   13.1000  -39.4839 H   0  0  0  0  0  0  0  0  0  0  0  0
  -13.3553   12.9061  -38.1142 H   0  0  0  0  0  0  0  0  0  0  0  0
  -14.8708   14.8658  -37.3763 H   0  0  0  0  0  0  0  0  0  0  0  0
  -14.8177   16.3910  -38.2430 H   0  0  0  0  0  0  0  0  0  0  0  0
  -10.9229   16.0238  -36.8752 H   0  0  0  0  0  0  0  0  0  0  0  0
  1  4  1  0  0  0  0
  1  7  1  0  0  0  0
  2  5  1  0  0  0  0
  2  7  1  0  0  0  0
  3  6  1  0  0  0  0
  3  7  1  0  0  0  0
  4  8  1  0  0  0  0
  5  8  1  0  0  0  0
  6  8  1  0  0  0  0
  8  9  1  0  0  0  0
  1 10  1  0  0  0  0
  1 11  1  0  0  0  0
  2 12  1  0  0  0  0
  2 13  1  0  0  0  0
  3 14  1  0  0  0  0
  3 15  1  0  0  0  0
  4 16  1  0  0  0  0
  4 17  1  0  0  0  0
  5 18  1  0  0  0  0
  5 19  1  0  0  0  0
  6 20  1  0  0  0  0
  6 21  1  0  0  0  0
  7 22  1  0  0  0  0
M  END
> <id>
EN300-1270500

> <smiles>
IC1(CCC2CC1)CC2

> <MDLNUMBER>
MFCD32761384

> <IUPAC Name>
1-iodobicyclo[2.2.2]octane

> <CAS>
931-98-6

> <URL>
https://www.enaminestore.com/catalog/EN300-1270500

> <ROCS_ShapeQuery>
_x1247relevant_x1083L0AP1_x1305L0BP1_

> <ROCS_TanimotoCombo>
1.052 

> <ROCS_ShapeTanimoto>
0.393 

> <ROCS_ColorTanimoto>
0.659 

> <ROCS_RefTversky>
0.337 

> <ROCS_RefColorTversky>
0.694 

> <ROCS_RefTverskyCombo>
1.031 

> <ROCS_FitTversky>
1.734 

> <ROCS_FitColorTversky>
0.929 

> <ROCS_FitTverskyCombo>
2.663 

> <ROCS_ColorScore>
-6.617

> <ROCS_Overlap>
826.839

> <ROCS_Rank>
142                 

$$$$
untitled-dbase-18397_0
  -OEChem-06232314403D

 26 29  0     0  0  0  0  0  0999 V2000
  -14.0518   15.7412  -39.3481 C   0  0  0  0  0  0  0  0  0  0  0  0
  -13.2734   16.2596  -37.0162 C   0  0  0  0  0  0  0  0  0  0  0  0
  -13.5683   13.8690  -37.7439 C   0  0  0  0  0  0  0  0  0  0  0  0
  -11.7465   16.6664  -38.9715 C   0  0  0  0  0  0  0  0  0  0  0  0
  -12.0415   14.2757  -39.6993 C   0  0  0  0  0  0  0  0  0  0  0  0
  -14.1261   15.3021  -37.8754 C   0  0  0  0  0  0  0  0  0  0  0  0
  -12.5937   15.7104  -39.8379 C   0  0  0  0  0  0  0  0  0  0  0  0
  -11.8089   16.2321  -37.4945 C   0  0  0  0  0  0  0  0  0  0  0  0
  -12.1055   13.8277  -38.2265 C   0  0  0  0  0  0  0  0  0  0  0  0
  -11.3136   14.8114  -37.4035 C   0  0  0  0  0  0  0  0  0  0  0  0
  -10.6589   14.3602  -36.1872 N   0  0  0  0  0  0  0  0  0  0  0  0
   -9.9037   14.5619  -37.1555 N   0  0  0  0  0  0  0  0  0  0  0  0
  -14.6687   15.0787  -39.9677 H   0  0  0  0  0  0  0  0  0  0  0  0
  -14.4622   16.7526  -39.4581 H   0  0  0  0  0  0  0  0  0  0  0  0
  -13.6715   17.2793  -37.0825 H   0  0  0  0  0  0  0  0  0  0  0  0
  -13.3296   15.9573  -35.9630 H   0  0  0  0  0  0  0  0  0  0  0  0
  -13.6270   13.5461  -36.6971 H   0  0  0  0  0  0  0  0  0  0  0  0
  -14.1781   13.1730  -38.3326 H   0  0  0  0  0  0  0  0  0  0  0  0
  -10.7068   16.6562  -39.3217 H   0  0  0  0  0  0  0  0  0  0  0  0
  -12.1141   17.6943  -39.0770 H   0  0  0  0  0  0  0  0  0  0  0  0
  -12.6208   13.5879  -40.3270 H   0  0  0  0  0  0  0  0  0  0  0  0
  -11.0044   14.2448  -40.0559 H   0  0  0  0  0  0  0  0  0  0  0  0
  -15.1665   15.3261  -37.5327 H   0  0  0  0  0  0  0  0  0  0  0  0
  -12.5474   16.0240  -40.8867 H   0  0  0  0  0  0  0  0  0  0  0  0
  -11.2034   16.9090  -36.8808 H   0  0  0  0  0  0  0  0  0  0  0  0
  -11.7091   12.8106  -38.1285 H   0  0  0  0  0  0  0  0  0  0  0  0
  1  6  1  0  0  0  0
  1  7  1  6  0  0  0
  2  6  1  1  0  0  0
  2  8  1  0  0  0  0
  3  6  1  0  0  0  0
  3  9  1  6  0  0  0
  4  7  1  0  0  0  0
  4  8  1  1  0  0  0
  5  7  1  0  0  0  0
  5  9  1  0  0  0  0
  8 10  1  0  0  0  0
  9 10  1  0  0  0  0
 10 11  1  0  0  0  0
 10 12  1  0  0  0  0
 11 12  2  0  0  0  0
  1 13  1  0  0  0  0
  1 14  1  0  0  0  0
  2 15  1  0  0  0  0
  2 16  1  0  0  0  0
  3 17  1  0  0  0  0
  3 18  1  0  0  0  0
  4 19  1  0  0  0  0
  4 20  1  0  0  0  0
  5 21  1  0  0  0  0
  5 22  1  0  0  0  0
  6 23  1  0  0  0  0
  7 24  1  0  0  0  0
  8 25  1  0  0  0  0
  9 26  1  0  0  0  0
M  END
> <id>
EN300-22882763

> <smiles>
C1[C@H]2C[C@H]3C[C@@H]1C[C@@H](C2)C43N=N4

> <MDLNUMBER>
MFCD00870544

> <IUPAC Name>
(1r,3r,5r,7r)-spiro[adamantane-2,2'-diazirine]

> <CAS>
41736-95-2

> <URL>
https://www.enaminestore.com/catalog/EN300-22882763

> <ROCS_ShapeQuery>
_x1247relevant_x1083L0AP1_x1305L0BP1_

> <ROCS_TanimotoCombo>
1.052 

> <ROCS_ShapeTanimoto>
0.508 

> <ROCS_ColorTanimoto>
0.545 

> <ROCS_RefTversky>
0.426 

> <ROCS_RefColorTversky>
0.599 

> <ROCS_RefTverskyCombo>
1.026 

> <ROCS_FitTversky>
1.601 

> <ROCS_FitColorTversky>
0.857 

> <ROCS_FitTverskyCombo>
2.458 

> <ROCS_ColorScore>
-5.697

> <ROCS_Overlap>
1049.118

> <ROCS_Rank>
143                 

$$$$
untitled-dbase-15094_0
  -OEChem-06232314403D

 22 24  0     1  0  0  0  0  0999 V2000
  -12.1512   14.6474  -39.5370 C   0  0  0  0  0  0  0  0  0  0  0  0
  -14.2348   14.5924  -38.4151 C   0  0  0  0  0  0  0  0  0  0  0  0
  -12.7878   14.0560  -38.2704 C   0  0  2  0  0  0  0  0  0  0  0  0
  -12.4701   16.0940  -39.1217 C   0  0  2  0  0  0  0  0  0  0  0  0
  -12.1312   14.8251  -37.1284 C   0  0  2  0  0  0  0  0  0  0  0  0
  -11.9023   16.2012  -37.7056 C   0  0  1  0  0  0  0  0  0  0  0  0
  -14.0187   16.0338  -38.9683 C   0  0  1  0  0  0  0  0  0  0  0  0
  -10.7615   15.4109  -37.1600 C   0  0  0  0  0  0  0  0  0  0  0  0
  -14.7252   16.2315  -40.2291 N   0  0  0  0  0  0  0  0  0  0  0  0
   -9.7649   14.9091  -37.9619 F   0  0  0  0  0  0  0  0  0  0  0  0
  -10.1609   15.8060  -35.9836 F   0  0  0  0  0  0  0  0  0  0  0  0
  -11.0838   14.4411  -39.6341 H   0  0  0  0  0  0  0  0  0  0  0  0
  -12.6445   14.3274  -40.4605 H   0  0  0  0  0  0  0  0  0  0  0  0
  -14.8039   13.9678  -39.1141 H   0  0  0  0  0  0  0  0  0  0  0  0
  -14.7723   14.6109  -37.4610 H   0  0  0  0  0  0  0  0  0  0  0  0
  -12.7160   12.9715  -38.1716 H   0  0  0  0  0  0  0  0  0  0  0  0
  -12.0984   16.8684  -39.7964 H   0  0  0  0  0  0  0  0  0  0  0  0
  -12.6335   14.7281  -36.1763 H   0  0  0  0  0  0  0  0  0  0  0  0
  -12.2381   17.0686  -37.1552 H   0  0  0  0  0  0  0  0  0  0  0  0
  -14.3797   16.7753  -38.2466 H   0  0  0  0  0  0  0  0  0  0  0  0
  -15.6972   16.1123  -40.0645 H   0  0  0  0  0  0  0  0  0  0  0  0
  -14.5356   17.1513  -40.5519 H   0  0  0  0  0  0  0  0  0  0  0  0
  1  3  1  0  0  0  0
  1  4  1  0  0  0  0
  2  3  1  0  0  0  0
  2  7  1  0  0  0  0
  3  5  1  0  0  0  0
  4  6  1  0  0  0  0
  4  7  1  0  0  0  0
  5  6  1  0  0  0  0
  5  8  1  0  0  0  0
  6  8  1  0  0  0  0
  7  9  1  0  0  0  0
  8 10  1  0  0  0  0
  8 11  1  0  0  0  0
  1 12  1  0  0  0  0
  1 13  1  0  0  0  0
  2 14  1  0  0  0  0
  2 15  1  0  0  0  0
  3 16  1  0  0  0  0
  4 17  1  0  0  0  0
  5 18  1  0  0  0  0
  6 19  1  0  0  0  0
  7 20  1  0  0  0  0
  9 21  1  0  0  0  0
  9 22  1  0  0  0  0
M  END
> <id>
EN300-840449

> <smiles>
NC1CC2CC1C3C2C3(F)F

> <IUPAC Name>
3,3-difluorotricyclo[3.2.1.0,2,4]octan-6-amine

> <CAS>
2138374-11-3

> <URL>
https://www.enaminestore.com/catalog/EN300-840449

> <ROCS_ShapeQuery>
_x1247relevant_x1083L0AP1_x1305L0BP1_

> <ROCS_TanimotoCombo>
1.052 

> <ROCS_ShapeTanimoto>
0.479 

> <ROCS_ColorTanimoto>
0.573 

> <ROCS_RefTversky>
0.403 

> <ROCS_RefColorTversky>
1.032 

> <ROCS_RefTverskyCombo>
1.435 

> <ROCS_FitTversky>
1.643 

> <ROCS_FitColorTversky>
0.563 

> <ROCS_FitTverskyCombo>
2.206 

> <ROCS_ColorScore>
-10.461

> <ROCS_Overlap>
991.210

> <ROCS_Rank>
144                 

$$$$
untitled-dbase-33768_0
  -OEChem-06232314403D

 21 23  0     1  0  0  0  0  0999 V2000
  -10.7287   13.3942  -37.1918 C   0  0  0  0  0  0  0  0  0  0  0  0
  -11.6814   14.2749  -37.6081 C   0  0  0  0  0  0  0  0  0  0  0  0
  -11.3796   15.6290  -37.5168 C   0  0  0  0  0  0  0  0  0  0  0  0
   -9.3705   15.1776  -36.6619 C   0  0  0  0  0  0  0  0  0  0  0  0
  -12.9299   14.5896  -39.6982 C   0  0  0  0  0  0  0  0  0  0  0  0
  -12.6011   16.1090  -39.6043 C   0  0  0  0  0  0  0  0  0  0  0  0
  -13.6803   15.4172  -37.6023 C   0  0  0  0  0  0  0  0  0  0  0  0
  -13.0444   14.1542  -38.2218 C   0  0  2  0  0  0  0  0  0  0  0  0
  -12.5740   16.3761  -38.0854 C   0  0  1  0  0  0  0  0  0  0  0  0
   -9.5459   13.8274  -36.7004 N   0  0  0  0  0  0  0  0  0  0  0  0
  -10.2356   16.1379  -37.0559 N   0  0  0  0  0  0  0  0  0  0  0  0
   -7.8704   15.7198  -36.0424 Cl  0  0  0  0  0  0  0  0  0  0  0  0
  -10.8648   12.3214  -37.2347 H   0  0  0  0  0  0  0  0  0  0  0  0
  -13.8821   14.4479  -40.2217 H   0  0  0  0  0  0  0  0  0  0  0  0
  -12.1507   14.0441  -40.2417 H   0  0  0  0  0  0  0  0  0  0  0  0
  -11.6491   16.3440  -40.0924 H   0  0  0  0  0  0  0  0  0  0  0  0
  -13.3936   16.6902  -40.0890 H   0  0  0  0  0  0  0  0  0  0  0  0
  -14.6650   15.6518  -38.0222 H   0  0  0  0  0  0  0  0  0  0  0  0
  -13.7592   15.3670  -36.5084 H   0  0  0  0  0  0  0  0  0  0  0  0
  -13.5664   13.2162  -38.0303 H   0  0  0  0  0  0  0  0  0  0  0  0
  -12.6611   17.4165  -37.7716 H   0  0  0  0  0  0  0  0  0  0  0  0
  1  2  2  0  0  0  0
  1 10  1  0  0  0  0
  2  3  1  0  0  0  0
  2  8  1  0  0  0  0
  3  9  1  0  0  0  0
  3 11  2  0  0  0  0
  4 10  2  0  0  0  0
  4 11  1  0  0  0  0
  4 12  1  0  0  0  0
  5  6  1  0  0  0  0
  5  8  1  0  0  0  0
  6  9  1  0  0  0  0
  7  8  1  0  0  0  0
  7  9  1  0  0  0  0
  1 13  1  0  0  0  0
  5 14  1  0  0  0  0
  5 15  1  0  0  0  0
  6 16  1  0  0  0  0
  6 17  1  0  0  0  0
  7 18  1  0  0  0  0
  7 19  1  0  0  0  0
  8 20  1  0  0  0  0
  9 21  1  0  0  0  0
M  END
> <id>
EN300-716116

> <smiles>
ClC=1N=CC=2C3CCC(C3)C2N1

> <MDLNUMBER>
MFCD28364120

> <IUPAC Name>
4-chloro-3,5-diazatricyclo[6.2.1.0,2,7]undeca-2,4,6-triene

> <CAS>
1037776-03-6

> <Purity>
95

> <URL>
https://www.enaminestore.com/catalog/EN300-716116

> <ROCS_ShapeQuery>
_x1247relevant_x1083L0AP1_x1305L0BP1_

> <ROCS_TanimotoCombo>
1.052 

> <ROCS_ShapeTanimoto>
0.496 

> <ROCS_ColorTanimoto>
0.556 

> <ROCS_RefTversky>
0.420 

> <ROCS_RefColorTversky>
0.707 

> <ROCS_RefTverskyCombo>
1.126 

> <ROCS_FitTversky>
1.575 

> <ROCS_FitColorTversky>
0.723 

> <ROCS_FitTverskyCombo>
2.299 

> <ROCS_ColorScore>
-6.820

> <ROCS_Overlap>
1032.948

> <ROCS_Rank>
145                 

$$$$
untitled-dbase-49332_7
  -OEChem-06232314403D

 41 44  0     1  0  0  0  0  0999 V2000
  -10.3646   13.9392  -38.1109 C   0  0  0  0  0  0  0  0  0  0  0  0
  -10.8985   15.6330  -36.2975 C   0  0  0  0  0  0  0  0  0  0  0  0
  -13.8096   13.1742  -39.6555 C   0  0  0  0  0  0  0  0  0  0  0  0
  -14.7088   15.4723  -40.2496 C   0  0  0  0  0  0  0  0  0  0  0  0
   -9.5753   13.3460  -36.9490 C   0  0  0  0  0  0  0  0  0  0  0  0
   -9.3778   15.6388  -36.2307 C   0  0  0  0  0  0  0  0  0  0  0  0
  -14.2927   12.9137  -41.0780 C   0  0  0  0  0  0  0  0  0  0  0  0
  -15.9243   14.6160  -40.5761 C   0  0  0  0  0  0  0  0  0  0  0  0
  -11.3919   14.9574  -37.5953 C   0  0  0  0  0  0  0  0  0  0  0  0
  -13.6897   14.6834  -39.3990 C   0  0  0  0  0  0  0  0  0  0  0  0
  -11.9160   15.9287  -38.6693 C   0  0  1  0  0  0  0  0  0  0  0  0
  -13.6540   15.0727  -37.9095 C   0  0  1  0  0  0  0  0  0  0  0  0
  -11.0155   17.0553  -39.1169 C   0  0  0  0  0  0  0  0  0  0  0  0
  -14.9461   15.0371  -37.1287 C   0  0  0  0  0  0  0  0  0  0  0  0
   -8.8212   14.3244  -36.2336 O   0  0  0  0  0  0  0  0  0  0  0  0
  -15.5910   13.4508  -41.3301 O   0  0  0  0  0  0  0  0  0  0  0  0
  -12.6368   14.2712  -37.2594 O   0  0  0  0  0  0  0  0  0  0  0  0
  -12.3645   15.1460  -39.8033 O   0  0  0  0  0  0  0  0  0  0  0  0
  -13.1066   16.3967  -38.0157 O   0  0  0  0  0  0  0  0  0  0  0  0
   -9.6714   14.4462  -38.7874 H   0  0  0  0  0  0  0  0  0  0  0  0
  -10.8422   13.1246  -38.6561 H   0  0  0  0  0  0  0  0  0  0  0  0
  -11.2879   15.1218  -35.4106 H   0  0  0  0  0  0  0  0  0  0  0  0
  -11.2505   16.6706  -36.2772 H   0  0  0  0  0  0  0  0  0  0  0  0
  -14.5329   12.7515  -38.9530 H   0  0  0  0  0  0  0  0  0  0  0  0
  -12.8563   12.6639  -39.5152 H   0  0  0  0  0  0  0  0  0  0  0  0
  -14.2604   15.8189  -41.1867 H   0  0  0  0  0  0  0  0  0  0  0  0
  -15.0442   16.3495  -39.6849 H   0  0  0  0  0  0  0  0  0  0  0  0
  -10.2382   12.8125  -36.2438 H   0  0  0  0  0  0  0  0  0  0  0  0
   -8.8632   12.5952  -37.3303 H   0  0  0  0  0  0  0  0  0  0  0  0
   -8.9694   16.1709  -37.1066 H   0  0  0  0  0  0  0  0  0  0  0  0
   -9.0132   16.1849  -35.3412 H   0  0  0  0  0  0  0  0  0  0  0  0
  -13.5830   13.3161  -41.8234 H   0  0  0  0  0  0  0  0  0  0  0  0
  -14.3451   11.8269  -41.2579 H   0  0  0  0  0  0  0  0  0  0  0  0
  -16.4021   14.2773  -39.6412 H   0  0  0  0  0  0  0  0  0  0  0  0
  -16.6922   15.1940  -41.1225 H   0  0  0  0  0  0  0  0  0  0  0  0
  -11.5099   17.6661  -39.8794 H   0  0  0  0  0  0  0  0  0  0  0  0
  -10.0865   16.6622  -39.5425 H   0  0  0  0  0  0  0  0  0  0  0  0
  -10.7582   17.7035  -38.2727 H   0  0  0  0  0  0  0  0  0  0  0  0
  -14.7780   15.3351  -36.0886 H   0  0  0  0  0  0  0  0  0  0  0  0
  -15.3720   14.0284  -37.1312 H   0  0  0  0  0  0  0  0  0  0  0  0
  -15.6814   15.7204  -37.5661 H   0  0  0  0  0  0  0  0  0  0  0  0
  1  5  1  0  0  0  0
  1  9  1  0  0  0  0
  2  6  1  0  0  0  0
  2  9  1  0  0  0  0
  3  7  1  0  0  0  0
  3 10  1  0  0  0  0
  4  8  1  0  0  0  0
  4 10  1  0  0  0  0
  5 15  1  0  0  0  0
  6 15  1  0  0  0  0
  7 16  1  0  0  0  0
  8 16  1  0  0  0  0
  9 11  1  0  0  0  0
  9 17  1  0  0  0  0
 10 12  1  0  0  0  0
 10 18  1  0  0  0  0
 11 13  1  0  0  0  0
 11 18  1  0  0  0  0
 11 19  1  0  0  0  0
 12 14  1  0  0  0  0
 12 17  1  0  0  0  0
 12 19  1  0  0  0  0
  1 20  1  0  0  0  0
  1 21  1  0  0  0  0
  2 22  1  0  0  0  0
  2 23  1  0  0  0  0
  3 24  1  0  0  0  0
  3 25  1  0  0  0  0
  4 26  1  0  0  0  0
  4 27  1  0  0  0  0
  5 28  1  0  0  0  0
  5 29  1  0  0  0  0
  6 30  1  0  0  0  0
  6 31  1  0  0  0  0
  7 32  1  0  0  0  0
  7 33  1  0  0  0  0
  8 34  1  0  0  0  0
  8 35  1  0  0  0  0
 13 36  1  0  0  0  0
 13 37  1  0  0  0  0
 13 38  1  0  0  0  0
 14 39  1  0  0  0  0
 14 40  1  0  0  0  0
 14 41  1  0  0  0  0
M  END
> <id>
EN300-39855654

> <smiles>
CC1(OC2(C)OC31CCOCC3)OC42CCOCC4

> <IUPAC Name>
1',4'-dimethyldispiro[oxane-4,2'-[3,6,7]trioxabicyclo[2.2.1]heptane-5',4''-oxane]

> <Purity>
95

> <URL>
https://www.enaminestore.com/catalog/EN300-39855654

> <ROCS_ShapeQuery>
_x1247relevant_x1083L0AP1_x1305L0BP1_

> <ROCS_TanimotoCombo>
1.052 

> <ROCS_ShapeTanimoto>
0.632 

> <ROCS_ColorTanimoto>
0.420 

> <ROCS_RefTversky>
0.539 

> <ROCS_RefColorTversky>
0.694 

> <ROCS_RefTverskyCombo>
1.234 

> <ROCS_FitTversky>
1.374 

> <ROCS_FitColorTversky>
0.515 

> <ROCS_FitTverskyCombo>
1.889 

> <ROCS_ColorScore>
-6.845

> <ROCS_Overlap>
1336.055

> <ROCS_Rank>
146                 

$$$$
untitled-dbase-34681_0
  -OEChem-06232314403D

 19 21  0     1  0  0  0  0  0999 V2000
   -9.2700   15.1480  -36.6161 C   0  0  0  0  0  0  0  0  0  0  0  0
  -10.1761   16.1254  -37.0274 C   0  0  0  0  0  0  0  0  0  0  0  0
   -9.6256   13.7981  -36.7322 C   0  0  0  0  0  0  0  0  0  0  0  0
  -11.3830   15.6913  -37.5159 C   0  0  0  0  0  0  0  0  0  0  0  0
  -11.6419   14.3227  -37.5938 C   0  0  0  0  0  0  0  0  0  0  0  0
  -12.7027   16.0191  -39.5508 C   0  0  0  0  0  0  0  0  0  0  0  0
  -13.0113   14.5360  -39.6941 C   0  0  0  0  0  0  0  0  0  0  0  0
  -12.5665   16.3787  -38.0875 C   0  0  1  0  0  0  0  0  0  0  0  0
  -13.0123   14.1819  -38.2065 C   0  0  2  0  0  0  0  0  0  0  0  0
  -10.8063   13.3465  -37.2238 N   0  0  0  0  0  0  0  0  0  0  0  0
  -12.5494   16.7954  -40.4816 O   0  0  0  0  0  0  0  0  0  0  0  0
  -13.6062   15.4080  -37.6810 O   0  0  0  0  0  0  0  0  0  0  0  0
   -8.3002   15.4275  -36.2177 H   0  0  0  0  0  0  0  0  0  0  0  0
   -9.9309   17.1787  -36.9658 H   0  0  0  0  0  0  0  0  0  0  0  0
   -8.9328   13.0218  -36.4216 H   0  0  0  0  0  0  0  0  0  0  0  0
  -14.0047   14.4283  -40.1374 H   0  0  0  0  0  0  0  0  0  0  0  0
  -12.2440   14.0111  -40.2660 H   0  0  0  0  0  0  0  0  0  0  0  0
  -12.8368   17.3850  -37.7768 H   0  0  0  0  0  0  0  0  0  0  0  0
  -13.5734   13.2944  -37.9097 H   0  0  0  0  0  0  0  0  0  0  0  0
  1  2  1  0  0  0  0
  1  3  2  0  0  0  0
  2  4  2  0  0  0  0
  3 10  1  0  0  0  0
  4  5  1  0  0  0  0
  4  8  1  0  0  0  0
  5  9  1  0  0  0  0
  5 10  2  0  0  0  0
  6  7  1  0  0  0  0
  6  8  1  0  0  0  0
  6 11  2  0  0  0  0
  7  9  1  0  0  0  0
  8 12  1  0  0  0  0
  9 12  1  0  0  0  0
  1 13  1  0  0  0  0
  2 14  1  0  0  0  0
  3 15  1  0  0  0  0
  7 16  1  0  0  0  0
  7 17  1  0  0  0  0
  8 18  1  0  0  0  0
  9 19  1  0  0  0  0
M  END
> <id>
EN300-37468729

> <smiles>
O=C1CC2OC1C=3C=CC=NC23

> <IUPAC Name>
11-oxa-3-azatricyclo[6.2.1.0,2,7]undeca-2,4,6-trien-9-one

> <URL>
https://www.enaminestore.com/catalog/EN300-37468729

> <ROCS_ShapeQuery>
_x1247relevant_x1083L0AP1_x1305L0BP1_

> <ROCS_TanimotoCombo>
1.052 

> <ROCS_ShapeTanimoto>
0.537 

> <ROCS_ColorTanimoto>
0.515 

> <ROCS_RefTversky>
0.445 

> <ROCS_RefColorTversky>
0.705 

> <ROCS_RefTverskyCombo>
1.150 

> <ROCS_FitTversky>
1.627 

> <ROCS_FitColorTversky>
0.657 

> <ROCS_FitTverskyCombo>
2.283 

> <ROCS_ColorScore>
-6.841

> <ROCS_Overlap>
1094.995

> <ROCS_Rank>
147                 

$$$$
untitled-dbase-33476_0
  -OEChem-06232314403D

 32 35  0     1  0  0  0  0  0999 V2000
   -9.3049   15.1569  -36.2823 C   0  0  0  0  0  0  0  0  0  0  0  0
  -12.5817   16.8717  -41.8148 C   0  0  0  0  0  0  0  0  0  0  0  0
   -9.4158   13.8030  -36.6357 C   0  0  0  0  0  0  0  0  0  0  0  0
  -12.6857   15.5175  -42.1695 C   0  0  0  0  0  0  0  0  0  0  0  0
  -10.2654   16.0841  -36.6918 C   0  0  0  0  0  0  0  0  0  0  0  0
  -12.5106   17.2570  -40.4745 C   0  0  0  0  0  0  0  0  0  0  0  0
  -10.4894   13.3504  -37.4052 C   0  0  0  0  0  0  0  0  0  0  0  0
  -12.7211   14.5222  -41.1908 C   0  0  0  0  0  0  0  0  0  0  0  0
  -11.3344   15.6377  -37.4548 C   0  0  0  0  0  0  0  0  0  0  0  0
  -12.5472   16.2715  -39.4990 C   0  0  0  0  0  0  0  0  0  0  0  0
  -11.4467   14.2686  -37.8119 C   0  0  0  0  0  0  0  0  0  0  0  0
  -12.6522   14.9017  -39.8583 C   0  0  0  0  0  0  0  0  0  0  0  0
  -13.7719   15.9015  -37.3928 C   0  0  0  0  0  0  0  0  0  0  0  0
  -12.4689   16.5023  -37.9941 C   0  0  0  0  0  0  0  0  0  0  0  0
  -12.6798   13.9575  -38.6567 C   0  0  0  0  0  0  0  0  0  0  0  0
  -13.9303   14.4012  -37.8308 C   0  0  1  0  0  0  0  0  0  0  0  0
  -14.1734   13.5417  -36.6720 N   0  0  0  0  0  0  0  0  0  0  0  0
   -8.4601   15.4866  -35.6834 H   0  0  0  0  0  0  0  0  0  0  0  0
  -12.5551   17.6284  -42.5944 H   0  0  0  0  0  0  0  0  0  0  0  0
   -8.6557   13.0997  -36.3062 H   0  0  0  0  0  0  0  0  0  0  0  0
  -12.7389   15.2415  -43.2194 H   0  0  0  0  0  0  0  0  0  0  0  0
  -10.1711   17.1291  -36.4157 H   0  0  0  0  0  0  0  0  0  0  0  0
  -12.4275   18.3056  -40.2091 H   0  0  0  0  0  0  0  0  0  0  0  0
  -10.5679   12.3025  -37.6750 H   0  0  0  0  0  0  0  0  0  0  0  0
  -12.8020   13.4780  -41.4736 H   0  0  0  0  0  0  0  0  0  0  0  0
  -13.7515   15.9940  -36.2985 H   0  0  0  0  0  0  0  0  0  0  0  0
  -14.6475   16.4683  -37.7361 H   0  0  0  0  0  0  0  0  0  0  0  0
  -12.3467   17.5588  -37.7375 H   0  0  0  0  0  0  0  0  0  0  0  0
  -12.7246   12.9068  -38.9616 H   0  0  0  0  0  0  0  0  0  0  0  0
  -14.8219   14.3291  -38.4682 H   0  0  0  0  0  0  0  0  0  0  0  0
  -14.9823   13.8754  -36.2054 H   0  0  0  0  0  0  0  0  0  0  0  0
  -14.3119   12.6160  -36.9996 H   0  0  0  0  0  0  0  0  0  0  0  0
  1  3  2  0  0  0  0
  1  5  1  0  0  0  0
  2  4  2  0  0  0  0
  2  6  1  0  0  0  0
  3  7  1  0  0  0  0
  4  8  1  0  0  0  0
  5  9  2  0  0  0  0
  6 10  2  0  0  0  0
  7 11  2  0  0  0  0
  8 12  2  0  0  0  0
  9 11  1  0  0  0  0
  9 14  1  0  0  0  0
 10 12  1  0  0  0  0
 10 14  1  0  0  0  0
 11 15  1  0  0  0  0
 12 15  1  0  0  0  0
 13 14  1  0  0  0  0
 13 16  1  0  0  0  0
 15 16  1  0  0  0  0
 16 17  1  0  0  0  0
  1 18  1  0  0  0  0
  2 19  1  0  0  0  0
  3 20  1  0  0  0  0
  4 21  1  0  0  0  0
  5 22  1  0  0  0  0
  6 23  1  0  0  0  0
  7 24  1  0  0  0  0
  8 25  1  0  0  0  0
 13 26  1  0  0  0  0
 13 27  1  0  0  0  0
 14 28  1  0  0  0  0
 15 29  1  0  0  0  0
 16 30  1  0  0  0  0
 17 31  1  0  0  0  0
 17 32  1  0  0  0  0
M  END
> <id>
EN300-37451245

> <smiles>
NC1CC2C=3C=CC=CC3C1C=4C=CC=CC24

> <IUPAC Name>
tetracyclo[6.6.2.0^{2,7}.0^{9,14}]hexadeca-2,4,6,9,11,13-hexaen-15-amine

> <CAS>
6372-65-2

> <Purity>
95

> <URL>
https://www.enaminestore.com/catalog/EN300-37451245

> <MP>
104-105

> <ROCS_ShapeQuery>
_x1247relevant_x1083L0AP1_x1305L0BP1_

> <ROCS_TanimotoCombo>
1.052 

> <ROCS_ShapeTanimoto>
0.526 

> <ROCS_ColorTanimoto>
0.526 

> <ROCS_RefTversky>
0.468 

> <ROCS_RefColorTversky>
0.703 

> <ROCS_RefTverskyCombo>
1.170 

> <ROCS_FitTversky>
1.312 

> <ROCS_FitColorTversky>
0.676 

> <ROCS_FitTverskyCombo>
1.988 

> <ROCS_ColorScore>
-6.805

> <ROCS_Overlap>
1156.446

> <ROCS_Rank>
148                 

$$$$
untitled-dbase-30565_0
  -OEChem-06232314403D

 24 27  0     1  0  0  0  0  0999 V2000
  -12.9641   16.0718  -39.3971 C   0  0  0  0  0  0  0  0  0  0  0  0
  -13.4598   14.6417  -39.4269 C   0  0  0  0  0  0  0  0  0  0  0  0
  -13.2181   15.4443  -37.1903 C   0  0  0  0  0  0  0  0  0  0  0  0
  -10.8028   13.4794  -36.7744 C   0  0  0  0  0  0  0  0  0  0  0  0
  -12.3292   16.3487  -38.0487 C   0  0  1  0  0  0  0  0  0  0  0  0
  -12.9601   14.1918  -38.0335 C   0  0  2  0  0  0  0  0  0  0  0  0
  -11.4098   14.1081  -38.0475 C   0  0  1  0  0  0  0  0  0  0  0  0
  -10.9797   15.6152  -38.0783 C   0  0  2  0  0  0  0  0  0  0  0  0
  -10.0571   14.5705  -36.0800 C   0  0  2  0  0  0  0  0  0  0  0  0
  -10.1611   15.8335  -36.8482 C   0  0  1  0  0  0  0  0  0  0  0  0
  -13.0326   16.8628  -40.3244 O   0  0  0  0  0  0  0  0  0  0  0  0
   -8.9337   15.0951  -36.7972 O   0  0  0  0  0  0  0  0  0  0  0  0
  -14.5513   14.6335  -39.4875 H   0  0  0  0  0  0  0  0  0  0  0  0
  -13.0055   14.0770  -40.2433 H   0  0  0  0  0  0  0  0  0  0  0  0
  -12.8788   15.3549  -36.1543 H   0  0  0  0  0  0  0  0  0  0  0  0
  -14.2723   15.7449  -37.1960 H   0  0  0  0  0  0  0  0  0  0  0  0
  -11.5748   13.0587  -36.1218 H   0  0  0  0  0  0  0  0  0  0  0  0
  -10.1167   12.6677  -37.0402 H   0  0  0  0  0  0  0  0  0  0  0  0
  -12.3215   17.4018  -37.7686 H   0  0  0  0  0  0  0  0  0  0  0  0
  -13.4507   13.2824  -37.6795 H   0  0  0  0  0  0  0  0  0  0  0  0
  -11.0574   13.5692  -38.9347 H   0  0  0  0  0  0  0  0  0  0  0  0
  -10.4015   15.8477  -38.9800 H   0  0  0  0  0  0  0  0  0  0  0  0
  -10.0446   14.5556  -35.0038 H   0  0  0  0  0  0  0  0  0  0  0  0
  -10.2145   16.7961  -36.3692 H   0  0  0  0  0  0  0  0  0  0  0  0
  1  2  1  0  0  0  0
  1  5  1  0  0  0  0
  1 11  2  0  0  0  0
  2  6  1  0  0  0  0
  3  5  1  0  0  0  0
  3  6  1  0  0  0  0
  4  7  1  0  0  0  0
  4  9  1  0  0  0  0
  5  8  1  0  0  0  0
  6  7  1  0  0  0  0
  7  8  1  0  0  0  0
  8 10  1  0  0  0  0
  9 10  1  0  0  0  0
  9 12  1  0  0  0  0
 10 12  1  0  0  0  0
  2 13  1  0  0  0  0
  2 14  1  0  0  0  0
  3 15  1  0  0  0  0
  3 16  1  0  0  0  0
  4 17  1  0  0  0  0
  4 18  1  0  0  0  0
  5 19  1  0  0  0  0
  6 20  1  0  0  0  0
  7 21  1  0  0  0  0
  8 22  1  0  0  0  0
  9 23  1  0  0  0  0
 10 24  1  0  0  0  0
M  END
> <id>
EN300-23613550

> <smiles>
O=C1CC2CC1C3C4OC4CC23

> <MDLNUMBER>
MFCD24698301

> <IUPAC Name>
4-oxatetracyclo[6.2.1.0^{2,7}.0^{3,5}]undecan-10-one

> <CAS>
85652-76-2

> <URL>
https://www.enaminestore.com/catalog/EN300-23613550

> <ROCS_ShapeQuery>
_x1247relevant_x1083L0AP1_x1305L0BP1_

> <ROCS_TanimotoCombo>
1.051 

> <ROCS_ShapeTanimoto>
0.527 

> <ROCS_ColorTanimoto>
0.524 

> <ROCS_RefTversky>
0.438 

> <ROCS_RefColorTversky>
0.772 

> <ROCS_RefTverskyCombo>
1.210 

> <ROCS_FitTversky>
1.629 

> <ROCS_FitColorTversky>
0.620 

> <ROCS_FitTverskyCombo>
2.249 

> <ROCS_ColorScore>
-7.568

> <ROCS_Overlap>
1077.731

> <ROCS_Rank>
149                 

$$$$
untitled-dbase-21613_0
  -OEChem-06232314403D

 31 33  0     1  0  0  0  0  0999 V2000
   -9.2524   13.6416  -36.5794 C   0  0  0  0  0  0  0  0  0  0  0  0
   -8.9922   14.9677  -36.2667 C   0  0  0  0  0  0  0  0  0  0  0  0
  -10.4250   13.3084  -37.2540 C   0  0  0  0  0  0  0  0  0  0  0  0
   -9.9081   15.9552  -36.6262 C   0  0  0  0  0  0  0  0  0  0  0  0
  -11.3633   14.2937  -37.6225 C   0  0  0  0  0  0  0  0  0  0  0  0
  -11.1090   15.6419  -37.3003 C   0  0  0  0  0  0  0  0  0  0  0  0
  -13.8875   14.2849  -37.6700 C   0  0  0  0  0  0  0  0  0  0  0  0
  -12.5517   14.3398  -39.8309 C   0  0  0  0  0  0  0  0  0  0  0  0
  -14.3363   15.6829  -38.0827 C   0  0  0  0  0  0  0  0  0  0  0  0
  -12.6637   15.8625  -39.9482 C   0  0  0  0  0  0  0  0  0  0  0  0
  -12.5999   13.8444  -38.3799 C   0  0  0  0  0  0  0  0  0  0  0  0
  -12.0355   16.7989  -37.6522 C   0  0  1  0  0  0  0  0  0  0  0  0
  -13.1868   16.5208  -38.6597 C   0  0  0  0  0  0  0  0  0  0  0  0
  -12.5495   17.4399  -36.4326 N   0  0  0  0  0  0  0  0  0  0  0  0
   -8.5433   12.8665  -36.3050 H   0  0  0  0  0  0  0  0  0  0  0  0
   -8.0777   15.2372  -35.7467 H   0  0  0  0  0  0  0  0  0  0  0  0
  -10.6025   12.2629  -37.4971 H   0  0  0  0  0  0  0  0  0  0  0  0
   -9.6786   16.9892  -36.3751 H   0  0  0  0  0  0  0  0  0  0  0  0
  -13.7648   14.2359  -36.5807 H   0  0  0  0  0  0  0  0  0  0  0  0
  -14.6957   13.5833  -37.9138 H   0  0  0  0  0  0  0  0  0  0  0  0
  -13.3851   13.8846  -40.3824 H   0  0  0  0  0  0  0  0  0  0  0  0
  -11.6355   14.0006  -40.3302 H   0  0  0  0  0  0  0  0  0  0  0  0
  -15.1153   15.5892  -38.8516 H   0  0  0  0  0  0  0  0  0  0  0  0
  -14.8222   16.1853  -37.2390 H   0  0  0  0  0  0  0  0  0  0  0  0
  -11.6941   16.2914  -40.2297 H   0  0  0  0  0  0  0  0  0  0  0  0
  -13.3435   16.0958  -40.7778 H   0  0  0  0  0  0  0  0  0  0  0  0
  -12.6105   12.7463  -38.4023 H   0  0  0  0  0  0  0  0  0  0  0  0
  -11.3944   17.5454  -38.1432 H   0  0  0  0  0  0  0  0  0  0  0  0
  -13.6063   17.4969  -38.9428 H   0  0  0  0  0  0  0  0  0  0  0  0
  -11.7722   17.6856  -35.8719 H   0  0  0  0  0  0  0  0  0  0  0  0
  -13.0604   18.2413  -36.7075 H   0  0  0  0  0  0  0  0  0  0  0  0
  1  2  2  0  0  0  0
  1  3  1  0  0  0  0
  2  4  1  0  0  0  0
  3  5  2  0  0  0  0
  4  6  2  0  0  0  0
  5  6  1  0  0  0  0
  5 11  1  0  0  0  0
  6 12  1  0  0  0  0
  7  9  1  0  0  0  0
  7 11  1  0  0  0  0
  8 10  1  0  0  0  0
  8 11  1  0  0  0  0
  9 13  1  0  0  0  0
 10 13  1  0  0  0  0
 12 13  1  0  0  0  0
 12 14  1  0  0  0  0
  1 15  1  0  0  0  0
  2 16  1  0  0  0  0
  3 17  1  0  0  0  0
  4 18  1  0  0  0  0
  7 19  1  0  0  0  0
  7 20  1  0  0  0  0
  8 21  1  0  0  0  0
  8 22  1  0  0  0  0
  9 23  1  0  0  0  0
  9 24  1  0  0  0  0
 10 25  1  0  0  0  0
 10 26  1  0  0  0  0
 11 27  1  0  0  0  0
 12 28  1  0  0  0  0
 13 29  1  0  0  0  0
 14 30  1  0  0  0  0
 14 31  1  0  0  0  0
M  END
> <id>
EN300-27103387

> <smiles>
NC1C2CCC(CC2)C=3C=CC=CC13

> <MDLNUMBER>
MFCD32711076

> <IUPAC Name>
tricyclo[7.2.2.0,2,7]trideca-2,4,6-trien-8-amine

> <CAS>
2470435-74-4

> <URL>
https://www.enaminestore.com/catalog/EN300-27103387

> <ROCS_ShapeQuery>
_x1247relevant_x1083L0AP1_x1305L0BP1_

> <ROCS_TanimotoCombo>
1.051 

> <ROCS_ShapeTanimoto>
0.490 

> <ROCS_ColorTanimoto>
0.561 

> <ROCS_RefTversky>
0.425 

> <ROCS_RefColorTversky>
0.681 

> <ROCS_RefTverskyCombo>
1.105 

> <ROCS_FitTversky>
1.452 

> <ROCS_FitColorTversky>
0.761 

> <ROCS_FitTverskyCombo>
2.214 

> <ROCS_ColorScore>
-6.539

> <ROCS_Overlap>
1047.133

> <ROCS_Rank>
150                 

$$$$
untitled-dbase-21682_0
  -OEChem-06232314403D

 31 33  0     1  0  0  0  0  0999 V2000
   -9.2524   13.6416  -36.5794 C   0  0  0  0  0  0  0  0  0  0  0  0
   -8.9922   14.9677  -36.2667 C   0  0  0  0  0  0  0  0  0  0  0  0
  -10.4250   13.3084  -37.2540 C   0  0  0  0  0  0  0  0  0  0  0  0
   -9.9081   15.9552  -36.6262 C   0  0  0  0  0  0  0  0  0  0  0  0
  -11.3633   14.2937  -37.6225 C   0  0  0  0  0  0  0  0  0  0  0  0
  -11.1090   15.6419  -37.3003 C   0  0  0  0  0  0  0  0  0  0  0  0
  -13.8875   14.2849  -37.6700 C   0  0  0  0  0  0  0  0  0  0  0  0
  -12.5517   14.3398  -39.8309 C   0  0  0  0  0  0  0  0  0  0  0  0
  -14.3363   15.6829  -38.0827 C   0  0  0  0  0  0  0  0  0  0  0  0
  -12.6637   15.8625  -39.9482 C   0  0  0  0  0  0  0  0  0  0  0  0
  -12.5999   13.8444  -38.3799 C   0  0  0  0  0  0  0  0  0  0  0  0
  -12.0355   16.7989  -37.6522 C   0  0  1  0  0  0  0  0  0  0  0  0
  -13.1868   16.5208  -38.6597 C   0  0  0  0  0  0  0  0  0  0  0  0
  -12.5495   17.4399  -36.4326 N   0  0  0  0  0  0  0  0  0  0  0  0
   -8.5433   12.8665  -36.3050 H   0  0  0  0  0  0  0  0  0  0  0  0
   -8.0777   15.2372  -35.7467 H   0  0  0  0  0  0  0  0  0  0  0  0
  -10.6025   12.2629  -37.4971 H   0  0  0  0  0  0  0  0  0  0  0  0
   -9.6786   16.9892  -36.3751 H   0  0  0  0  0  0  0  0  0  0  0  0
  -13.7648   14.2359  -36.5807 H   0  0  0  0  0  0  0  0  0  0  0  0
  -14.6957   13.5833  -37.9138 H   0  0  0  0  0  0  0  0  0  0  0  0
  -13.3851   13.8846  -40.3824 H   0  0  0  0  0  0  0  0  0  0  0  0
  -11.6355   14.0006  -40.3302 H   0  0  0  0  0  0  0  0  0  0  0  0
  -15.1153   15.5892  -38.8516 H   0  0  0  0  0  0  0  0  0  0  0  0
  -14.8222   16.1853  -37.2390 H   0  0  0  0  0  0  0  0  0  0  0  0
  -11.6941   16.2914  -40.2297 H   0  0  0  0  0  0  0  0  0  0  0  0
  -13.3435   16.0958  -40.7778 H   0  0  0  0  0  0  0  0  0  0  0  0
  -12.6105   12.7463  -38.4023 H   0  0  0  0  0  0  0  0  0  0  0  0
  -11.3944   17.5454  -38.1432 H   0  0  0  0  0  0  0  0  0  0  0  0
  -13.6063   17.4969  -38.9428 H   0  0  0  0  0  0  0  0  0  0  0  0
  -11.7722   17.6856  -35.8719 H   0  0  0  0  0  0  0  0  0  0  0  0
  -13.0604   18.2413  -36.7075 H   0  0  0  0  0  0  0  0  0  0  0  0
  1  2  2  0  0  0  0
  1  3  1  0  0  0  0
  2  4  1  0  0  0  0
  3  5  2  0  0  0  0
  4  6  2  0  0  0  0
  5  6  1  0  0  0  0
  5 11  1  0  0  0  0
  6 12  1  0  0  0  0
  7  9  1  0  0  0  0
  7 11  1  0  0  0  0
  8 10  1  0  0  0  0
  8 11  1  0  0  0  0
  9 13  1  0  0  0  0
 10 13  1  0  0  0  0
 12 13  1  0  0  0  0
 12 14  1  0  0  0  0
  1 15  1  0  0  0  0
  2 16  1  0  0  0  0
  3 17  1  0  0  0  0
  4 18  1  0  0  0  0
  7 19  1  0  0  0  0
  7 20  1  0  0  0  0
  8 21  1  0  0  0  0
  8 22  1  0  0  0  0
  9 23  1  0  0  0  0
  9 24  1  0  0  0  0
 10 25  1  0  0  0  0
 10 26  1  0  0  0  0
 11 27  1  0  0  0  0
 12 28  1  0  0  0  0
 13 29  1  0  0  0  0
 14 30  1  0  0  0  0
 14 31  1  0  0  0  0
M  END
> <id>
EN300-27103386

> <smiles>
Cl.NC1C2CCC(CC2)C=3C=CC=CC13

> <MDLNUMBER>
MFCD32711145

> <IUPAC Name>
tricyclo[7.2.2.0,2,7]trideca-2,4,6-trien-8-amine hydrochloride

> <CAS>
2470436-70-3

> <Purity>
95

> <URL>
https://www.enaminestore.com/catalog/EN300-27103386

> <Saltdate>
Cl

> <ROCS_ShapeQuery>
_x1247relevant_x1083L0AP1_x1305L0BP1_

> <ROCS_TanimotoCombo>
1.051 

> <ROCS_ShapeTanimoto>
0.490 

> <ROCS_ColorTanimoto>
0.561 

> <ROCS_RefTversky>
0.425 

> <ROCS_RefColorTversky>
0.681 

> <ROCS_RefTverskyCombo>
1.105 

> <ROCS_FitTversky>
1.452 

> <ROCS_FitColorTversky>
0.761 

> <ROCS_FitTverskyCombo>
2.214 

> <ROCS_ColorScore>
-6.539

> <ROCS_Overlap>
1047.133

> <ROCS_Rank>
151                 

$$$$
untitled-dbase-10398_0
  -OEChem-06232314403D

 16 17  0     0  0  0  0  0  0999 V2000
  -12.0786   15.6591  -39.3444 C   0  0  0  0  0  0  0  0  0  0  0  0
  -12.5092   14.0645  -38.0279 C   0  0  0  0  0  0  0  0  0  0  0  0
  -13.4943   15.9188  -37.7986 C   0  0  0  0  0  0  0  0  0  0  0  0
  -11.9721   15.5223  -37.7809 C   0  0  0  0  0  0  0  0  0  0  0  0
  -13.3955   14.9147  -38.9825 C   0  0  0  0  0  0  0  0  0  0  0  0
  -10.8981   15.9808  -36.8743 C   0  0  0  0  0  0  0  0  0  0  0  0
  -10.7197   17.3268  -36.9369 F   0  0  0  0  0  0  0  0  0  0  0  0
  -11.1645   15.6785  -35.5763 F   0  0  0  0  0  0  0  0  0  0  0  0
   -9.7014   15.4104  -37.1743 F   0  0  0  0  0  0  0  0  0  0  0  0
  -14.9239   14.2622  -40.2726 I   0  0  0  0  0  0  0  0  0  0  0  0
  -12.1711   16.6748  -39.7449 H   0  0  0  0  0  0  0  0  0  0  0  0
  -11.3396   15.1099  -39.9384 H   0  0  0  0  0  0  0  0  0  0  0  0
  -11.8135   13.3549  -38.4895 H   0  0  0  0  0  0  0  0  0  0  0  0
  -13.0084   13.5740  -37.1848 H   0  0  0  0  0  0  0  0  0  0  0  0
  -14.0926   15.6147  -36.9324 H   0  0  0  0  0  0  0  0  0  0  0  0
  -13.7292   16.9606  -38.0435 H   0  0  0  0  0  0  0  0  0  0  0  0
  1  4  1  0  0  0  0
  1  5  1  0  0  0  0
  2  4  1  0  0  0  0
  2  5  1  0  0  0  0
  3  4  1  0  0  0  0
  3  5  1  0  0  0  0
  4  6  1  0  0  0  0
  5 10  1  0  0  0  0
  6  7  1  0  0  0  0
  6  8  1  0  0  0  0
  6  9  1  0  0  0  0
  1 11  1  0  0  0  0
  1 12  1  0  0  0  0
  2 13  1  0  0  0  0
  2 14  1  0  0  0  0
  3 15  1  0  0  0  0
  3 16  1  0  0  0  0
M  END
> <id>
EN300-173147

> <smiles>
FC(F)(F)C1(CC2(I)C1)C2

> <MDLNUMBER>
MFCD30723932

> <IUPAC Name>
1-iodo-3-(trifluoromethyl)bicyclo[1.1.1]pentane

> <CAS>
119934-12-2

> <Purity>
95

> <URL>
https://www.enaminestore.com/catalog/EN300-173147

> <ROCS_ShapeQuery>
_x1247relevant_x1083L0AP1_x1305L0BP1_

> <ROCS_TanimotoCombo>
1.051 

> <ROCS_ShapeTanimoto>
0.400 

> <ROCS_ColorTanimoto>
0.650 

> <ROCS_RefTversky>
0.348 

> <ROCS_RefColorTversky>
0.747 

> <ROCS_RefTverskyCombo>
1.095 

> <ROCS_FitTversky>
1.593 

> <ROCS_FitColorTversky>
0.834 

> <ROCS_FitTverskyCombo>
2.427 

> <ROCS_ColorScore>
-7.173

> <ROCS_Overlap>
855.383

> <ROCS_Rank>
152                 

$$$$
untitled-dbase-42210_0
  -OEChem-06232314403D

 24 26  0     1  0  0  0  0  0999 V2000
   -9.6936   13.8856  -36.0195 C   0  0  0  0  0  0  0  0  0  0  0  0
   -8.9402   14.8456  -36.6951 C   0  0  0  0  0  0  0  0  0  0  0  0
  -11.0457   13.7115  -36.3207 C   0  0  0  0  0  0  0  0  0  0  0  0
   -9.5338   15.6389  -37.6748 C   0  0  0  0  0  0  0  0  0  0  0  0
  -11.6655   14.4955  -37.3008 C   0  0  0  0  0  0  0  0  0  0  0  0
  -10.8886   15.4707  -37.9755 C   0  0  0  0  0  0  0  0  0  0  0  0
  -13.3498   14.3886  -39.3032 C   0  0  0  0  0  0  0  0  0  0  0  0
  -13.8702   15.8057  -37.8343 C   0  0  0  0  0  0  0  0  0  0  0  0
  -13.1826   14.3961  -37.7404 C   0  0  0  0  0  0  0  0  0  0  0  0
  -11.5836   16.3074  -39.0418 C   0  0  1  0  0  0  0  0  0  0  0  0
  -13.0783   15.9260  -39.1810 C   0  0  0  0  0  0  0  0  0  0  0  0
  -11.4992   17.6822  -38.6813 O   0  0  0  0  0  0  0  0  0  0  0  0
   -9.2259   13.2693  -35.2568 H   0  0  0  0  0  0  0  0  0  0  0  0
   -7.8882   14.9741  -36.4573 H   0  0  0  0  0  0  0  0  0  0  0  0
  -11.6198   12.9577  -35.7884 H   0  0  0  0  0  0  0  0  0  0  0  0
   -8.9397   16.3825  -38.1984 H   0  0  0  0  0  0  0  0  0  0  0  0
  -12.6192   13.8081  -39.8738 H   0  0  0  0  0  0  0  0  0  0  0  0
  -14.3553   14.1248  -39.6527 H   0  0  0  0  0  0  0  0  0  0  0  0
  -14.9612   15.7741  -37.9435 H   0  0  0  0  0  0  0  0  0  0  0  0
  -13.6194   16.5279  -37.0522 H   0  0  0  0  0  0  0  0  0  0  0  0
  -13.7612   13.6336  -37.2098 H   0  0  0  0  0  0  0  0  0  0  0  0
  -11.0722   16.1613  -40.0005 H   0  0  0  0  0  0  0  0  0  0  0  0
  -13.5785   16.5279  -39.9481 H   0  0  0  0  0  0  0  0  0  0  0  0
  -11.9504   18.1808  -39.3806 H   0  0  0  0  0  0  0  0  0  0  0  0
  1  2  2  0  0  0  0
  1  3  1  0  0  0  0
  2  4  1  0  0  0  0
  3  5  2  0  0  0  0
  4  6  2  0  0  0  0
  5  6  1  0  0  0  0
  5  9  1  0  0  0  0
  6 10  1  0  0  0  0
  7  9  1  1  0  0  0
  7 11  1  1  0  0  0
  8  9  1  0  0  0  0
  8 11  1  0  0  0  0
 10 11  1  0  0  0  0
 10 12  1  0  0  0  0
  1 13  1  0  0  0  0
  2 14  1  0  0  0  0
  3 15  1  0  0  0  0
  4 16  1  0  0  0  0
  7 17  1  0  0  0  0
  7 18  1  0  0  0  0
  8 19  1  0  0  0  0
  8 20  1  0  0  0  0
  9 21  1  0  0  0  0
 10 22  1  0  0  0  0
 11 23  1  0  0  0  0
 12 24  1  0  0  0  0
M  END
> <id>
EN300-39870082

> <smiles>
OC1[C@H]2C[C@H](C2)C=3C=CC=CC13

> <IUPAC Name>
(1s,9s)-tricyclo[7.1.1.0,2,7]undeca-2,4,6-trien-8-ol

> <URL>
https://www.enaminestore.com/catalog/EN300-39870082

> <ROCS_ShapeQuery>
_x1247relevant_x1083L0AP1_x1305L0BP1_

> <ROCS_TanimotoCombo>
1.050 

> <ROCS_ShapeTanimoto>
0.493 

> <ROCS_ColorTanimoto>
0.558 

> <ROCS_RefTversky>
0.416 

> <ROCS_RefColorTversky>
0.694 

> <ROCS_RefTverskyCombo>
1.110 

> <ROCS_FitTversky>
1.595 

> <ROCS_FitColorTversky>
0.739 

> <ROCS_FitTverskyCombo>
2.334 

> <ROCS_ColorScore>
-6.687

> <ROCS_Overlap>
1024.060

> <ROCS_Rank>
153                 

$$$$
untitled-dbase-26700_0
  -OEChem-06232314403D

 24 26  0     1  0  0  0  0  0999 V2000
   -9.6936   13.8849  -36.0197 C   0  0  0  0  0  0  0  0  0  0  0  0
   -8.9405   14.8459  -36.6941 C   0  0  0  0  0  0  0  0  0  0  0  0
  -11.0455   13.7101  -36.3218 C   0  0  0  0  0  0  0  0  0  0  0  0
   -9.5341   15.6399  -37.6733 C   0  0  0  0  0  0  0  0  0  0  0  0
  -11.6653   14.4947  -37.3014 C   0  0  0  0  0  0  0  0  0  0  0  0
  -10.8887   15.4712  -37.9748 C   0  0  0  0  0  0  0  0  0  0  0  0
  -13.3489   14.3893  -39.3046 C   0  0  0  0  0  0  0  0  0  0  0  0
  -13.8706   15.8043  -37.8340 C   0  0  0  0  0  0  0  0  0  0  0  0
  -13.1821   14.3950  -37.7417 C   0  0  0  0  0  0  0  0  0  0  0  0
  -11.5838   16.3086  -39.0404 C   0  0  1  0  0  0  0  0  0  0  0  0
  -13.0783   15.9267  -39.1804 C   0  0  0  0  0  0  0  0  0  0  0  0
  -11.5001   17.6830  -38.6786 O   0  0  0  0  0  0  0  0  0  0  0  0
   -9.2260   13.2681  -35.2574 H   0  0  0  0  0  0  0  0  0  0  0  0
   -7.8886   14.9748  -36.4557 H   0  0  0  0  0  0  0  0  0  0  0  0
  -11.6196   12.9557  -35.7904 H   0  0  0  0  0  0  0  0  0  0  0  0
   -8.9403   16.3845  -38.1958 H   0  0  0  0  0  0  0  0  0  0  0  0
  -12.6178   13.8099  -39.8755 H   0  0  0  0  0  0  0  0  0  0  0  0
  -14.3543   14.1255  -39.6549 H   0  0  0  0  0  0  0  0  0  0  0  0
  -14.9615   15.7720  -37.9435 H   0  0  0  0  0  0  0  0  0  0  0  0
  -13.6206   16.5256  -37.0509 H   0  0  0  0  0  0  0  0  0  0  0  0
  -13.7601   13.6313  -37.2120 H   0  0  0  0  0  0  0  0  0  0  0  0
  -11.0721   16.1638  -39.9991 H   0  0  0  0  0  0  0  0  0  0  0  0
  -13.5788   16.5295  -39.9466 H   0  0  0  0  0  0  0  0  0  0  0  0
  -11.9513   18.1822  -39.3775 H   0  0  0  0  0  0  0  0  0  0  0  0
  1  2  2  0  0  0  0
  1  3  1  0  0  0  0
  2  4  1  0  0  0  0
  3  5  2  0  0  0  0
  4  6  2  0  0  0  0
  5  6  1  0  0  0  0
  5  9  1  0  0  0  0
  6 10  1  0  0  0  0
  7  9  1  0  0  0  0
  7 11  1  0  0  0  0
  8  9  1  0  0  0  0
  8 11  1  0  0  0  0
 10 11  1  0  0  0  0
 10 12  1  0  0  0  0
  1 13  1  0  0  0  0
  2 14  1  0  0  0  0
  3 15  1  0  0  0  0
  4 16  1  0  0  0  0
  7 17  1  0  0  0  0
  7 18  1  0  0  0  0
  8 19  1  0  0  0  0
  8 20  1  0  0  0  0
  9 21  1  0  0  0  0
 10 22  1  0  0  0  0
 11 23  1  0  0  0  0
 12 24  1  0  0  0  0
M  END
> <id>
EN300-7426764

> <smiles>
OC1C2CC(C2)C=3C=CC=CC13

> <MDLNUMBER>
MFCD31924524

> <IUPAC Name>
tricyclo[7.1.1.0,2,7]undeca-2,4,6-trien-8-ol

> <CAS>
81569-16-6

> <Purity>
95

> <URL>
https://www.enaminestore.com/catalog/EN300-7426764

> <ROCS_ShapeQuery>
_x1247relevant_x1083L0AP1_x1305L0BP1_

> <ROCS_TanimotoCombo>
1.050 

> <ROCS_ShapeTanimoto>
0.493 

> <ROCS_ColorTanimoto>
0.558 

> <ROCS_RefTversky>
0.416 

> <ROCS_RefColorTversky>
0.694 

> <ROCS_RefTverskyCombo>
1.110 

> <ROCS_FitTversky>
1.595 

> <ROCS_FitColorTversky>
0.739 

> <ROCS_FitTverskyCombo>
2.334 

> <ROCS_ColorScore>
-6.687

> <ROCS_Overlap>
1023.997

> <ROCS_Rank>
154                 

$$$$
untitled-dbase-18296_1
  -OEChem-06232314403D

 33 35  0     1  0  0  0  0  0999 V2000
   -9.0689   14.1242  -38.0957 C   0  0  0  0  0  0  0  0  0  0  0  0
   -9.1230   13.3074  -36.8291 C   0  0  0  0  0  0  0  0  0  0  0  0
   -9.0089   14.1872  -35.5949 C   0  0  0  0  0  0  0  0  0  0  0  0
  -10.3398   14.7884  -35.1637 C   0  0  0  0  0  0  0  0  0  0  0  0
  -13.3138   14.6715  -39.7239 C   0  0  0  0  0  0  0  0  0  0  0  0
  -12.4631   15.9451  -39.7838 C   0  0  0  0  0  0  0  0  0  0  0  0
  -10.9564   15.7762  -36.1554 C   0  0  0  0  0  0  0  0  0  0  0  0
  -13.6386   15.9518  -37.7451 C   0  0  0  0  0  0  0  0  0  0  0  0
  -12.2755   14.0050  -37.5418 C   0  0  0  0  0  0  0  0  0  0  0  0
  -13.5678   14.5050  -38.2187 C   0  0  2  0  0  0  0  0  0  0  0  0
  -12.2446   16.2921  -38.2930 C   0  0  1  0  0  0  0  0  0  0  0  0
  -11.3257   15.2393  -37.5638 C   0  0  1  0  0  0  0  0  0  0  0  0
  -10.0968   15.0006  -38.3395 N   0  0  0  0  0  0  0  0  0  0  0  0
   -8.1190   14.0067  -38.8740 O   0  0  0  0  0  0  0  0  0  0  0  0
  -10.0993   12.8138  -36.8118 H   0  0  0  0  0  0  0  0  0  0  0  0
   -8.3742   12.5179  -36.8524 H   0  0  0  0  0  0  0  0  0  0  0  0
   -8.5652   13.6293  -34.7629 H   0  0  0  0  0  0  0  0  0  0  0  0
   -8.3267   15.0141  -35.8230 H   0  0  0  0  0  0  0  0  0  0  0  0
  -11.0536   13.9632  -35.0283 H   0  0  0  0  0  0  0  0  0  0  0  0
  -10.2398   15.2530  -34.1744 H   0  0  0  0  0  0  0  0  0  0  0  0
  -14.2533   14.8204  -40.2668 H   0  0  0  0  0  0  0  0  0  0  0  0
  -12.7984   13.8108  -40.1608 H   0  0  0  0  0  0  0  0  0  0  0  0
  -11.5367   15.8035  -40.3467 H   0  0  0  0  0  0  0  0  0  0  0  0
  -13.0262   16.7454  -40.2796 H   0  0  0  0  0  0  0  0  0  0  0  0
  -11.8519   16.2258  -35.6998 H   0  0  0  0  0  0  0  0  0  0  0  0
  -10.2444   16.6079  -36.2527 H   0  0  0  0  0  0  0  0  0  0  0  0
  -14.4394   16.5228  -38.2259 H   0  0  0  0  0  0  0  0  0  0  0  0
  -13.7266   16.0534  -36.6609 H   0  0  0  0  0  0  0  0  0  0  0  0
  -12.4994   13.6791  -36.5153 H   0  0  0  0  0  0  0  0  0  0  0  0
  -11.8747   13.1251  -38.0646 H   0  0  0  0  0  0  0  0  0  0  0  0
  -14.4418   13.8903  -37.9896 H   0  0  0  0  0  0  0  0  0  0  0  0
  -11.9651   17.3352  -38.1450 H   0  0  0  0  0  0  0  0  0  0  0  0
   -9.9634   15.5842  -39.1580 H   0  0  0  0  0  0  0  0  0  0  0  0
  1  2  1  0  0  0  0
  1 13  1  0  0  0  0
  1 14  2  0  0  0  0
  2  3  1  0  0  0  0
  3  4  1  0  0  0  0
  4  7  1  0  0  0  0
  5  6  1  0  0  0  0
  5 10  1  0  0  0  0
  6 11  1  0  0  0  0
  7 12  1  0  0  0  0
  8 10  1  0  0  0  0
  8 11  1  0  0  0  0
  9 10  1  0  0  0  0
  9 12  1  0  0  0  0
 11 12  1  0  0  0  0
 12 13  1  0  0  0  0
  2 15  1  0  0  0  0
  2 16  1  0  0  0  0
  3 17  1  0  0  0  0
  3 18  1  0  0  0  0
  4 19  1  0  0  0  0
  4 20  1  0  0  0  0
  5 21  1  0  0  0  0
  5 22  1  0  0  0  0
  6 23  1  0  0  0  0
  6 24  1  0  0  0  0
  7 25  1  0  0  0  0
  7 26  1  0  0  0  0
  8 27  1  0  0  0  0
  8 28  1  0  0  0  0
  9 29  1  0  0  0  0
  9 30  1  0  0  0  0
 10 31  1  0  0  0  0
 11 32  1  0  0  0  0
 13 33  1  0  0  0  0
M  END
> <id>
EN300-1628995

> <smiles>
O=C1CCCCC2(CC3CCC2C3)N1

> <IUPAC Name>
spiro[azepane-2,2'-bicyclo[2.2.1]heptane]-7-one

> <CAS>
2172570-89-5

> <URL>
https://www.enaminestore.com/catalog/EN300-1628995

> <ROCS_ShapeQuery>
_x1247relevant_x1083L0AP1_x1305L0BP1_

> <ROCS_TanimotoCombo>
1.050 

> <ROCS_ShapeTanimoto>
0.500 

> <ROCS_ColorTanimoto>
0.550 

> <ROCS_RefTversky>
0.430 

> <ROCS_RefColorTversky>
0.697 

> <ROCS_RefTverskyCombo>
1.128 

> <ROCS_FitTversky>
1.476 

> <ROCS_FitColorTversky>
0.723 

> <ROCS_FitTverskyCombo>
2.199 

> <ROCS_ColorScore>
-6.728

> <ROCS_Overlap>
1060.650

> <ROCS_Rank>
155                 

$$$$
untitled-dbase-35011_1
  -OEChem-06232314403D

 31 33  0     1  0  0  0  0  0999 V2000
  -10.2403   13.3446  -36.2186 C   0  0  0  0  0  0  0  0  0  0  0  0
  -13.8635   14.4634  -38.9749 C   0  0  0  0  0  0  0  0  0  0  0  0
  -13.5873   14.3481  -37.4697 C   0  0  0  0  0  0  0  0  0  0  0  0
  -10.6713   13.5155  -37.6732 C   0  0  0  0  0  0  0  0  0  0  0  0
  -12.9725   16.5132  -38.1530 C   0  0  0  0  0  0  0  0  0  0  0  0
  -11.4983   15.1584  -39.4486 C   0  0  0  0  0  0  0  0  0  0  0  0
   -9.1664   14.3637  -35.8445 C   0  0  0  0  0  0  0  0  0  0  0  0
   -9.9597   15.8964  -37.5427 C   0  0  0  0  0  0  0  0  0  0  0  0
  -12.9632   15.6360  -39.4017 C   0  0  1  0  0  0  0  0  0  0  0  0
  -12.4676   15.3822  -37.2449 C   0  0  2  0  0  0  0  0  0  0  0  0
  -11.1307   14.9621  -37.9505 C   0  0  2  0  0  0  0  0  0  0  0  0
   -9.5920   15.7329  -36.1326 N   0  0  0  0  0  0  0  0  0  0  0  0
  -11.1053   13.4678  -35.5623 H   0  0  0  0  0  0  0  0  0  0  0  0
   -9.8572   12.3327  -36.0594 H   0  0  0  0  0  0  0  0  0  0  0  0
  -13.6272   13.5382  -39.5102 H   0  0  0  0  0  0  0  0  0  0  0  0
  -14.9203   14.6965  -39.1466 H   0  0  0  0  0  0  0  0  0  0  0  0
  -14.4846   14.6352  -36.9068 H   0  0  0  0  0  0  0  0  0  0  0  0
  -13.3299   13.3320  -37.1617 H   0  0  0  0  0  0  0  0  0  0  0  0
   -9.8322   13.2305  -38.3094 H   0  0  0  0  0  0  0  0  0  0  0  0
  -11.4940   12.8272  -37.8848 H   0  0  0  0  0  0  0  0  0  0  0  0
  -12.3003   17.3726  -38.2211 H   0  0  0  0  0  0  0  0  0  0  0  0
  -13.9739   16.8673  -37.8838 H   0  0  0  0  0  0  0  0  0  0  0  0
  -11.3999   14.2436  -40.0443 H   0  0  0  0  0  0  0  0  0  0  0  0
  -10.8759   15.9295  -39.9196 H   0  0  0  0  0  0  0  0  0  0  0  0
   -8.9029   14.2647  -34.7814 H   0  0  0  0  0  0  0  0  0  0  0  0
   -8.2529   14.1478  -36.4148 H   0  0  0  0  0  0  0  0  0  0  0  0
   -9.0705   15.6887  -38.1401 H   0  0  0  0  0  0  0  0  0  0  0  0
  -10.2290   16.9399  -37.7325 H   0  0  0  0  0  0  0  0  0  0  0  0
  -13.2898   16.1229  -40.3227 H   0  0  0  0  0  0  0  0  0  0  0  0
  -12.3468   15.6592  -36.1966 H   0  0  0  0  0  0  0  0  0  0  0  0
  -10.3968   15.9628  -35.5480 H   0  0  0  0  0  0  0  0  0  0  0  0
  1  4  1  0  0  0  0
  1  7  1  0  0  0  0
  2  3  1  0  0  0  0
  2  9  1  0  0  0  0
  3 10  1  0  0  0  0
  4 11  1  0  0  0  0
  5  9  1  0  0  0  0
  5 10  1  0  0  0  0
  6  9  1  0  0  0  0
  6 11  1  0  0  0  0
  7 12  1  0  0  0  0
  8 11  1  0  0  0  0
  8 12  1  0  0  0  0
 10 11  1  0  0  0  0
  1 13  1  0  0  0  0
  1 14  1  0  0  0  0
  2 15  1  0  0  0  0
  2 16  1  0  0  0  0
  3 17  1  0  0  0  0
  3 18  1  0  0  0  0
  4 19  1  0  0  0  0
  4 20  1  0  0  0  0
  5 21  1  0  0  0  0
  5 22  1  0  0  0  0
  6 23  1  0  0  0  0
  6 24  1  0  0  0  0
  7 25  1  0  0  0  0
  7 26  1  0  0  0  0
  8 27  1  0  0  0  0
  8 28  1  0  0  0  0
  9 29  1  0  0  0  0
 10 30  1  0  0  0  0
 12 31  1  0  0  0  0
M  END
> <id>
EN300-1197992

> <smiles>
C1CC2CC1CC32CCCNC3

> <MDLNUMBER>
MFCD20685597

> <IUPAC Name>
spiro[bicyclo[2.2.1]heptane-2,3'-piperidine]

> <CAS>
52918-72-6

> <URL>
https://www.enaminestore.com/catalog/EN300-1197992

> <ROCS_ShapeQuery>
_x1247relevant_x1083L0AP1_x1305L0BP1_

> <ROCS_TanimotoCombo>
1.050 

> <ROCS_ShapeTanimoto>
0.487 

> <ROCS_ColorTanimoto>
0.563 

> <ROCS_RefTversky>
0.412 

> <ROCS_RefColorTversky>
0.707 

> <ROCS_RefTverskyCombo>
1.119 

> <ROCS_FitTversky>
1.603 

> <ROCS_FitColorTversky>
0.733 

> <ROCS_FitTverskyCombo>
2.337 

> <ROCS_ColorScore>
-6.824

> <ROCS_Overlap>
1012.617

> <ROCS_Rank>
156                 

$$$$
untitled-dbase-50019_0
  -OEChem-06232314403D

 16 17  0     0  0  0  0  0  0999 V2000
  -12.1269   15.7437  -39.3317 C   0  0  0  0  0  0  0  0  0  0  0  0
  -12.4450   14.0573  -38.1001 C   0  0  0  0  0  0  0  0  0  0  0  0
  -13.5137   15.8435  -37.7415 C   0  0  0  0  0  0  0  0  0  0  0  0
  -11.9739   15.5241  -37.7814 C   0  0  0  0  0  0  0  0  0  0  0  0
  -13.3961   14.9144  -38.9836 C   0  0  0  0  0  0  0  0  0  0  0  0
  -10.9011   15.9841  -36.8744 C   0  0  0  0  0  0  0  0  0  0  0  0
  -10.7906   17.3388  -36.8630 F   0  0  0  0  0  0  0  0  0  0  0  0
  -11.1191   15.5956  -35.5903 F   0  0  0  0  0  0  0  0  0  0  0  0
   -9.6858   15.4929  -37.2339 F   0  0  0  0  0  0  0  0  0  0  0  0
  -14.9231   14.2601  -40.2744 I   0  0  0  0  0  0  0  0  0  0  0  0
  -12.2793   16.7745  -39.6705 H   0  0  0  0  0  0  0  0  0  0  0  0
  -11.3773   15.2669  -39.9730 H   0  0  0  0  0  0  0  0  0  0  0  0
  -11.7273   13.4109  -38.6176 H   0  0  0  0  0  0  0  0  0  0  0  0
  -12.8979   13.4953  -37.2757 H   0  0  0  0  0  0  0  0  0  0  0  0
  -14.0740   15.4609  -36.8811 H   0  0  0  0  0  0  0  0  0  0  0  0
  -13.8058   16.8844  -37.9202 H   0  0  0  0  0  0  0  0  0  0  0  0
  1  4  1  0  0  0  0
  1  5  1  0  0  0  0
  2  4  1  0  0  0  0
  2  5  1  0  0  0  0
  3  4  1  0  0  0  0
  3  5  1  0  0  0  0
  4  6  1  6  0  0  0
  5 10  1  6  0  0  0
  6  7  1  0  0  0  0
  6  8  1  0  0  0  0
  6  9  1  0  0  0  0
  1 11  1  0  0  0  0
  1 12  1  0  0  0  0
  2 13  1  0  0  0  0
  2 14  1  0  0  0  0
  3 15  1  0  0  0  0
  3 16  1  0  0  0  0
M  END
> <id>
EN300-27108101

> <smiles>
FC(F)(F)[C@]1(C[C@@]2(I)C1)C2

> <IUPAC Name>
1-iodo-3-(trifluoromethyl)bicyclo[1.1.1]pentane

> <CAS>
119934-12-2

> <URL>
https://www.enaminestore.com/catalog/EN300-27108101

> <ROCS_ShapeQuery>
_x1247relevant_x1083L0AP1_x1305L0BP1_

> <ROCS_TanimotoCombo>
1.050 

> <ROCS_ShapeTanimoto>
0.399 

> <ROCS_ColorTanimoto>
0.650 

> <ROCS_RefTversky>
0.348 

> <ROCS_RefColorTversky>
0.747 

> <ROCS_RefTverskyCombo>
1.094 

> <ROCS_FitTversky>
1.591 

> <ROCS_FitColorTversky>
0.834 

> <ROCS_FitTverskyCombo>
2.425 

> <ROCS_ColorScore>
-7.173

> <ROCS_Overlap>
854.042

> <ROCS_Rank>
157                 

$$$$
untitled-dbase-44158_0
  -OEChem-06232314403D

 24 26  0     1  0  0  0  0  0999 V2000
  -13.3416   14.7368  -39.5442 C   0  0  0  0  0  0  0  0  0  0  0  0
  -12.1323   15.6033  -39.8172 C   0  0  0  0  0  0  0  0  0  0  0  0
  -13.2672   16.2810  -37.8208 C   0  0  0  0  0  0  0  0  0  0  0  0
  -12.6473   14.0161  -37.3247 C   0  0  0  0  0  0  0  0  0  0  0  0
   -9.1608   14.4530  -37.3313 C   0  0  0  0  0  0  0  0  0  0  0  0
   -9.7198   14.6853  -35.9549 C   0  0  0  0  0  0  0  0  0  0  0  0
  -13.7051   14.8383  -38.0755 C   0  0  2  0  0  0  0  0  0  0  0  0
  -11.8514   16.0618  -38.3691 C   0  0  1  0  0  0  0  0  0  0  0  0
  -11.3726   14.8784  -37.4888 C   0  0  0  0  0  0  0  0  0  0  0  0
  -13.9129   14.0416  -40.3692 O   0  0  0  0  0  0  0  0  0  0  0  0
  -10.3180   14.1343  -38.1010 O   0  0  0  0  0  0  0  0  0  0  0  0
  -10.9419   15.3745  -36.2118 O   0  0  0  0  0  0  0  0  0  0  0  0
  -11.3166   15.0287  -40.2587 H   0  0  0  0  0  0  0  0  0  0  0  0
  -12.4211   16.4422  -40.4562 H   0  0  0  0  0  0  0  0  0  0  0  0
  -13.8351   17.0169  -38.4014 H   0  0  0  0  0  0  0  0  0  0  0  0
  -13.2893   16.5559  -36.7611 H   0  0  0  0  0  0  0  0  0  0  0  0
  -12.9264   13.9197  -36.2696 H   0  0  0  0  0  0  0  0  0  0  0  0
  -12.5311   13.0163  -37.7565 H   0  0  0  0  0  0  0  0  0  0  0  0
   -8.7153   15.3638  -37.7459 H   0  0  0  0  0  0  0  0  0  0  0  0
   -8.4312   13.6407  -37.3723 H   0  0  0  0  0  0  0  0  0  0  0  0
   -9.9601   13.7420  -35.4527 H   0  0  0  0  0  0  0  0  0  0  0  0
   -9.0653   15.2815  -35.3146 H   0  0  0  0  0  0  0  0  0  0  0  0
  -14.7480   14.6076  -37.8623 H   0  0  0  0  0  0  0  0  0  0  0  0
  -11.2063   16.9419  -38.3119 H   0  0  0  0  0  0  0  0  0  0  0  0
  1  2  1  0  0  0  0
  1  7  1  0  0  0  0
  1 10  2  0  0  0  0
  2  8  1  0  0  0  0
  3  7  1  0  0  0  0
  3  8  1  0  0  0  0
  4  7  1  0  0  0  0
  4  9  1  0  0  0  0
  5  6  1  0  0  0  0
  5 11  1  0  0  0  0
  6 12  1  0  0  0  0
  8  9  1  0  0  0  0
  9 11  1  0  0  0  0
  9 12  1  0  0  0  0
  2 13  1  0  0  0  0
  2 14  1  0  0  0  0
  3 15  1  0  0  0  0
  3 16  1  0  0  0  0
  4 17  1  0  0  0  0
  4 18  1  0  0  0  0
  5 19  1  0  0  0  0
  5 20  1  0  0  0  0
  6 21  1  0  0  0  0
  6 22  1  0  0  0  0
  7 23  1  0  0  0  0
  8 24  1  0  0  0  0
M  END
> <id>
EN300-399860

> <smiles>
O=C1CC2CC1CC32OCCO3

> <MDLNUMBER>
MFCD24505561

> <IUPAC Name>
spiro[bicyclo[2.2.1]heptane-2,2'-[1,3]dioxolane]-5-one

> <CAS>
67594-61-0

> <URL>
https://www.enaminestore.com/catalog/EN300-399860

> <ROCS_ShapeQuery>
_x1247relevant_x1083L0AP1_x1305L0BP1_

> <ROCS_TanimotoCombo>
1.050 

> <ROCS_ShapeTanimoto>
0.534 

> <ROCS_ColorTanimoto>
0.516 

> <ROCS_RefTversky>
0.441 

> <ROCS_RefColorTversky>
0.702 

> <ROCS_RefTverskyCombo>
1.143 

> <ROCS_FitTversky>
1.648 

> <ROCS_FitColorTversky>
0.660 

> <ROCS_FitTverskyCombo>
2.309 

> <ROCS_ColorScore>
-6.812

> <ROCS_Overlap>
1085.533

> <ROCS_Rank>
158                 

$$$$
untitled-dbase-32465_0
  -OEChem-06232314403D

 23 25  0     1  0  0  0  0  0999 V2000
   -8.5477   12.9078  -36.2638 C   0  0  0  0  0  0  0  0  0  0  0  0
  -10.7478   13.3454  -37.2031 C   0  0  0  0  0  0  0  0  0  0  0  0
   -9.5424   13.8376  -36.7032 C   0  0  0  0  0  0  0  0  0  0  0  0
  -11.6776   14.2703  -37.6103 C   0  0  0  0  0  0  0  0  0  0  0  0
  -11.3812   15.6329  -37.5183 C   0  0  0  0  0  0  0  0  0  0  0  0
   -9.3406   15.2234  -36.6520 C   0  0  0  0  0  0  0  0  0  0  0  0
  -12.9326   14.5932  -39.7002 C   0  0  0  0  0  0  0  0  0  0  0  0
  -12.6067   16.1124  -39.6034 C   0  0  0  0  0  0  0  0  0  0  0  0
  -13.6820   15.4150  -37.6010 C   0  0  0  0  0  0  0  0  0  0  0  0
  -13.0466   14.1550  -38.2249 C   0  0  2  0  0  0  0  0  0  0  0  0
  -12.5793   16.3764  -38.0843 C   0  0  1  0  0  0  0  0  0  0  0  0
   -7.7408   12.1536  -35.9075 N   0  0  0  0  0  0  0  0  0  0  0  0
  -10.2395   16.1548  -37.0573 N   0  0  0  0  0  0  0  0  0  0  0  0
   -7.8803   15.9222  -36.0544 Cl  0  0  0  0  0  0  0  0  0  0  0  0
  -10.9513   12.2823  -37.2737 H   0  0  0  0  0  0  0  0  0  0  0  0
  -13.8848   14.4514  -40.2235 H   0  0  0  0  0  0  0  0  0  0  0  0
  -12.1531   14.0498  -40.2454 H   0  0  0  0  0  0  0  0  0  0  0  0
  -11.6553   16.3499  -40.0916 H   0  0  0  0  0  0  0  0  0  0  0  0
  -13.4000   16.6933  -40.0870 H   0  0  0  0  0  0  0  0  0  0  0  0
  -14.6681   15.6487  -38.0180 H   0  0  0  0  0  0  0  0  0  0  0  0
  -13.7581   15.3620  -36.5070 H   0  0  0  0  0  0  0  0  0  0  0  0
  -13.5682   13.2164  -38.0353 H   0  0  0  0  0  0  0  0  0  0  0  0
  -12.6678   17.4161  -37.7690 H   0  0  0  0  0  0  0  0  0  0  0  0
  1  3  1  0  0  0  0
  1 12  3  0  0  0  0
  2  3  2  0  0  0  0
  2  4  1  0  0  0  0
  3  6  1  0  0  0  0
  4  5  2  0  0  0  0
  4 10  1  0  0  0  0
  5 11  1  0  0  0  0
  5 13  1  0  0  0  0
  6 13  2  0  0  0  0
  6 14  1  0  0  0  0
  7  8  1  0  0  0  0
  7 10  1  0  0  0  0
  8 11  1  0  0  0  0
  9 10  1  0  0  0  0
  9 11  1  0  0  0  0
  2 15  1  0  0  0  0
  7 16  1  0  0  0  0
  7 17  1  0  0  0  0
  8 18  1  0  0  0  0
  8 19  1  0  0  0  0
  9 20  1  0  0  0  0
  9 21  1  0  0  0  0
 10 22  1  0  0  0  0
 11 23  1  0  0  0  0
M  END
> <id>
EN300-258371

> <smiles>
ClC=1N=C2C3CCC(C3)C2=CC1C#N

> <MDLNUMBER>
MFCD24121721

> <IUPAC Name>
4-chloro-3-azatricyclo[6.2.1.0,2,7]undeca-2(7),3,5-triene-5-carbonitrile

> <CAS>
1510965-06-6

> <Purity>
95

> <URL>
https://www.enaminestore.com/catalog/EN300-258371

> <ROCS_ShapeQuery>
_x1247relevant_x1083L0AP1_x1305L0BP1_

> <ROCS_TanimotoCombo>
1.049 

> <ROCS_ShapeTanimoto>
0.493 

> <ROCS_ColorTanimoto>
0.557 

> <ROCS_RefTversky>
0.429 

> <ROCS_RefColorTversky>
0.707 

> <ROCS_RefTverskyCombo>
1.135 

> <ROCS_FitTversky>
1.435 

> <ROCS_FitColorTversky>
0.724 

> <ROCS_FitTverskyCombo>
2.159 

> <ROCS_ColorScore>
-6.820

> <ROCS_Overlap>
1057.088

> <ROCS_Rank>
159                 

$$$$
untitled-dbase-16045_0
  -OEChem-06232314403D

 24 26  0     1  0  0  0  0  0999 V2000
   -9.3896   13.9686  -36.3506 C   0  0  0  0  0  0  0  0  0  0  0  0
   -8.9413   15.0434  -37.1275 C   0  0  0  0  0  0  0  0  0  0  0  0
  -10.7446   13.6434  -36.3105 C   0  0  0  0  0  0  0  0  0  0  0  0
   -9.8437   15.8035  -37.8760 C   0  0  0  0  0  0  0  0  0  0  0  0
  -11.6353   14.4090  -37.0534 C   0  0  0  0  0  0  0  0  0  0  0  0
  -11.1996   15.4897  -37.8459 C   0  0  0  0  0  0  0  0  0  0  0  0
  -13.7265   14.8949  -39.6188 C   0  0  0  0  0  0  0  0  0  0  0  0
  -13.1407   14.2137  -37.1392 C   0  0  2  0  0  0  0  0  0  0  0  0
  -12.3945   16.1429  -38.5743 C   0  0  2  0  0  0  0  0  0  0  0  0
  -13.6431   15.3013  -38.1298 C   0  0  1  0  0  0  0  0  0  0  0  0
  -13.8131   14.4001  -35.7830 C   0  0  0  0  0  0  0  0  0  0  0  0
  -12.6805   15.7057  -39.9353 N   0  0  0  0  0  0  0  0  0  0  0  0
  -14.4154   14.1588  -40.2873 O   0  0  0  0  0  0  0  0  0  0  0  0
   -8.6760   13.3845  -35.7761 H   0  0  0  0  0  0  0  0  0  0  0  0
   -7.8825   15.2863  -37.1504 H   0  0  0  0  0  0  0  0  0  0  0  0
  -11.0894   12.8087  -35.7092 H   0  0  0  0  0  0  0  0  0  0  0  0
   -9.4867   16.6320  -38.4802 H   0  0  0  0  0  0  0  0  0  0  0  0
  -13.3599   13.2139  -37.5321 H   0  0  0  0  0  0  0  0  0  0  0  0
  -12.5036   17.2246  -38.4456 H   0  0  0  0  0  0  0  0  0  0  0  0
  -14.5096   15.8862  -37.8021 H   0  0  0  0  0  0  0  0  0  0  0  0
  -13.5946   15.3940  -35.3938 H   0  0  0  0  0  0  0  0  0  0  0  0
  -13.4436   13.6544  -35.0799 H   0  0  0  0  0  0  0  0  0  0  0  0
  -14.8920   14.2881  -35.8851 H   0  0  0  0  0  0  0  0  0  0  0  0
  -12.2241   15.8595  -40.8240 H   0  0  0  0  0  0  0  0  0  0  0  0
  1  2  2  0  0  0  0
  1  3  1  0  0  0  0
  2  4  1  0  0  0  0
  3  5  2  0  0  0  0
  4  6  2  0  0  0  0
  5  6  1  0  0  0  0
  5  8  1  0  0  0  0
  6  9  1  0  0  0  0
  7 10  1  0  0  0  0
  7 12  1  0  0  0  0
  7 13  2  0  0  0  0
  8 10  1  0  0  0  0
  8 11  1  0  0  0  0
  9 10  1  0  0  0  0
  9 12  1  0  0  0  0
  1 14  1  0  0  0  0
  2 15  1  0  0  0  0
  3 16  1  0  0  0  0
  4 17  1  0  0  0  0
  8 18  1  0  0  0  0
  9 19  1  0  0  0  0
 10 20  1  0  0  0  0
 11 21  1  0  0  0  0
 11 22  1  0  0  0  0
 11 23  1  0  0  0  0
 12 24  1  0  0  0  0
M  END
> <id>
EN300-1278330

> <smiles>
CC1C2C(NC2=O)C=3C=CC=CC13

> <IUPAC Name>
3-methyl-1H,2H,2aH,3H,7bH-indeno[1,2-b]azet-2-one

> <CAS>
1872211-60-3

> <URL>
https://www.enaminestore.com/catalog/EN300-1278330

> <ROCS_ShapeQuery>
_x1247relevant_x1083L0AP1_x1305L0BP1_

> <ROCS_TanimotoCombo>
1.049 

> <ROCS_ShapeTanimoto>
0.527 

> <ROCS_ColorTanimoto>
0.522 

> <ROCS_RefTversky>
0.442 

> <ROCS_RefColorTversky>
0.645 

> <ROCS_RefTverskyCombo>
1.087 

> <ROCS_FitTversky>
1.573 

> <ROCS_FitColorTversky>
0.734 

> <ROCS_FitTverskyCombo>
2.306 

> <ROCS_ColorScore>
-6.188

> <ROCS_Overlap>
1088.819

> <ROCS_Rank>
160                 

$$$$
untitled-dbase-25276_0
  -OEChem-06232314403D

 27 29  0     0  0  0  0  0  0999 V2000
   -8.8874   14.3899  -37.3560 C   0  5  0  0  0  0  0  0  0  0  0  0
  -13.8422   15.8578  -39.5518 C   0  0  0  0  0  0  0  0  0  0  0  0
  -11.5782   16.6107  -38.7807 C   0  0  0  0  0  0  0  0  0  0  0  0
  -11.9053   14.2666  -39.6102 C   0  0  0  0  0  0  0  0  0  0  0  0
  -13.4221   16.2828  -37.1166 C   0  0  0  0  0  0  0  0  0  0  0  0
  -13.7499   13.9323  -37.9483 C   0  0  0  0  0  0  0  0  0  0  0  0
  -12.3284   15.7334  -39.7973 C   0  0  0  0  0  0  0  0  0  0  0  0
  -14.1834   15.3999  -38.1232 C   0  0  0  0  0  0  0  0  0  0  0  0
  -11.9034   16.1560  -37.3444 C   0  0  0  0  0  0  0  0  0  0  0  0
  -12.2323   13.7977  -38.1788 C   0  0  0  0  0  0  0  0  0  0  0  0
  -11.5031   14.6811  -37.1483 C   0  0  0  0  0  0  0  0  0  0  0  0
  -10.0845   14.5231  -37.2610 N   0  3  0  0  0  0  0  0  0  0  0  0
  -14.1615   16.8969  -39.6987 H   0  0  0  0  0  0  0  0  0  0  0  0
  -14.3913   15.2499  -40.2814 H   0  0  0  0  0  0  0  0  0  0  0  0
  -10.4982   16.5551  -38.9625 H   0  0  0  0  0  0  0  0  0  0  0  0
  -11.8650   17.6616  -38.9120 H   0  0  0  0  0  0  0  0  0  0  0  0
  -12.4272   13.6324  -40.3377 H   0  0  0  0  0  0  0  0  0  0  0  0
  -10.8327   14.1572  -39.8110 H   0  0  0  0  0  0  0  0  0  0  0  0
  -13.7315   17.3293  -37.2274 H   0  0  0  0  0  0  0  0  0  0  0  0
  -13.6738   15.9836  -36.0917 H   0  0  0  0  0  0  0  0  0  0  0  0
  -14.0085   13.5837  -36.9408 H   0  0  0  0  0  0  0  0  0  0  0  0
  -14.2944   13.2941  -38.6551 H   0  0  0  0  0  0  0  0  0  0  0  0
  -12.0911   16.0607  -40.8157 H   0  0  0  0  0  0  0  0  0  0  0  0
  -15.2620   15.4902  -37.9531 H   0  0  0  0  0  0  0  0  0  0  0  0
  -11.3654   16.7912  -36.6311 H   0  0  0  0  0  0  0  0  0  0  0  0
  -11.9289   12.7510  -38.0606 H   0  0  0  0  0  0  0  0  0  0  0  0
  -11.7746   14.3602  -36.1345 H   0  0  0  0  0  0  0  0  0  0  0  0
  1 12  3  0  0  0  0
  2  7  1  0  0  0  0
  2  8  1  0  0  0  0
  3  7  1  0  0  0  0
  3  9  1  0  0  0  0
  4  7  1  0  0  0  0
  4 10  1  0  0  0  0
  5  8  1  0  0  0  0
  5  9  1  0  0  0  0
  6  8  1  0  0  0  0
  6 10  1  0  0  0  0
  9 11  1  0  0  0  0
 10 11  1  0  0  0  0
 11 12  1  0  0  0  0
  2 13  1  0  0  0  0
  2 14  1  0  0  0  0
  3 15  1  0  0  0  0
  3 16  1  0  0  0  0
  4 17  1  0  0  0  0
  4 18  1  0  0  0  0
  5 19  1  0  0  0  0
  5 20  1  0  0  0  0
  6 21  1  0  0  0  0
  6 22  1  0  0  0  0
  7 23  1  0  0  0  0
  8 24  1  0  0  0  0
  9 25  1  0  0  0  0
 10 26  1  0  0  0  0
 11 27  1  0  0  0  0
M  CHG  2   1  -1  12   1
M  END
> <id>
EN300-6512544

> <smiles>
[C-]#[N+]C1C2CC3CC(C2)CC1C3

> <IUPAC Name>
2-isocyanoadamantane

> <CAS>
50987-41-2

> <URL>
https://www.enaminestore.com/catalog/EN300-6512544

> <ROCS_ShapeQuery>
_x1247relevant_x1083L0AP1_x1305L0BP1_

> <ROCS_TanimotoCombo>
1.049 

> <ROCS_ShapeTanimoto>
0.505 

> <ROCS_ColorTanimoto>
0.544 

> <ROCS_RefTversky>
0.422 

> <ROCS_RefColorTversky>
0.598 

> <ROCS_RefTverskyCombo>
1.020 

> <ROCS_FitTversky>
1.629 

> <ROCS_FitColorTversky>
0.858 

> <ROCS_FitTverskyCombo>
2.487 

> <ROCS_ColorScore>
-5.686

> <ROCS_Overlap>
1038.856

> <ROCS_Rank>
161                 

$$$$
untitled-dbase-40271_1
  -OEChem-06232314403D

 29 32  0     1  0  0  0  0  0999 V2000
  -13.3267   15.6096  -40.3300 C   0  0  0  0  0  0  0  0  0  0  0  0
  -13.7703   15.3550  -37.5618 C   0  0  0  0  0  0  0  0  0  0  0  0
  -10.0542   15.9227  -37.2217 C   0  0  0  0  0  0  0  0  0  0  0  0
  -10.3939   13.6612  -37.6788 C   0  0  0  0  0  0  0  0  0  0  0  0
  -12.2935   16.0447  -39.3229 C   0  0  2  0  0  0  0  0  0  0  0  0
  -12.5874   14.5878  -39.4995 C   0  0  1  0  0  0  0  0  0  0  0  0
  -12.6000   16.3218  -37.8507 C   0  0  2  0  0  0  0  0  0  0  0  0
  -12.9937   14.1253  -38.1007 C   0  0  1  0  0  0  0  0  0  0  0  0
  -11.5277   15.6742  -36.9305 C   0  0  1  0  0  0  0  0  0  0  0  0
  -11.7495   14.1444  -37.1465 C   0  0  2  0  0  0  0  0  0  0  0  0
  -12.0625   13.4272  -35.8179 C   0  0  0  0  0  0  0  0  0  0  0  0
   -9.4207   14.6013  -37.0941 N   0  0  0  0  0  0  0  0  0  0  0  0
  -14.3751   15.7993  -40.1530 H   0  0  0  0  0  0  0  0  0  0  0  0
  -13.0584   15.6820  -41.3788 H   0  0  0  0  0  0  0  0  0  0  0  0
  -14.0349   15.3009  -36.5022 H   0  0  0  0  0  0  0  0  0  0  0  0
  -14.6807   15.5813  -38.1218 H   0  0  0  0  0  0  0  0  0  0  0  0
   -9.8788   16.3655  -38.2046 H   0  0  0  0  0  0  0  0  0  0  0  0
   -9.6255   16.5930  -36.4694 H   0  0  0  0  0  0  0  0  0  0  0  0
  -10.1493   12.6589  -37.3226 H   0  0  0  0  0  0  0  0  0  0  0  0
  -10.3396   13.6502  -38.7659 H   0  0  0  0  0  0  0  0  0  0  0  0
  -11.3988   16.5067  -39.7044 H   0  0  0  0  0  0  0  0  0  0  0  0
  -11.9047   13.9337  -40.0235 H   0  0  0  0  0  0  0  0  0  0  0  0
  -12.8072   17.3680  -37.6362 H   0  0  0  0  0  0  0  0  0  0  0  0
  -13.5594   13.1947  -38.0991 H   0  0  0  0  0  0  0  0  0  0  0  0
  -11.7505   15.9569  -35.8764 H   0  0  0  0  0  0  0  0  0  0  0  0
  -13.0218   13.7688  -35.4407 H   0  0  0  0  0  0  0  0  0  0  0  0
  -11.2858   13.6543  -35.0937 H   0  0  0  0  0  0  0  0  0  0  0  0
  -12.0995   12.3550  -35.9867 H   0  0  0  0  0  0  0  0  0  0  0  0
   -8.5507   14.5693  -37.6049 H   0  0  0  0  0  0  0  0  0  0  0  0
  1  5  1  0  0  0  0
  1  6  1  0  0  0  0
  2  7  1  0  0  0  0
  2  8  1  0  0  0  0
  3  9  1  6  0  0  0
  3 12  1  0  0  0  0
  4 10  1  0  0  0  0
  4 12  1  0  0  0  0
  5  6  1  0  0  0  0
  5  7  1  6  0  0  0
  6  8  1  6  0  0  0
  7  9  1  0  0  0  0
  8 10  1  0  0  0  0
  9 10  1  0  0  0  0
 10 11  1  1  0  0  0
  1 13  1  0  0  0  0
  1 14  1  0  0  0  0
  2 15  1  0  0  0  0
  2 16  1  0  0  0  0
  3 17  1  0  0  0  0
  3 18  1  0  0  0  0
  4 19  1  0  0  0  0
  4 20  1  0  0  0  0
  5 21  1  0  0  0  0
  6 22  1  0  0  0  0
  7 23  1  0  0  0  0
  8 24  1  0  0  0  0
  9 25  1  0  0  0  0
 11 26  1  0  0  0  0
 11 27  1  0  0  0  0
 11 28  1  0  0  0  0
 12 29  1  0  0  0  0
M  END
> <id>
EN300-803731

> <smiles>
C[C@@]12CNC[C@H]2[C@@H]3C[C@H]1C4CC43 |&1:1,5,6,8,r|

> <IUPAC Name>
rac-(1R,2S,6R,7S)-2-methyl-4-azatetracyclo[5.3.1.0^{2,6}.0^{8,10}]undecane

> <CAS>
2137433-72-6

> <URL>
https://www.enaminestore.com/catalog/EN300-803731

> <ROCS_ShapeQuery>
_x1247relevant_x1083L0AP1_x1305L0BP1_

> <ROCS_TanimotoCombo>
1.049 

> <ROCS_ShapeTanimoto>
0.512 

> <ROCS_ColorTanimoto>
0.536 

> <ROCS_RefTversky>
0.429 

> <ROCS_RefColorTversky>
1.020 

> <ROCS_RefTverskyCombo>
1.449 

> <ROCS_FitTversky>
1.612 

> <ROCS_FitColorTversky>
0.531 

> <ROCS_FitTverskyCombo>
2.143 

> <ROCS_ColorScore>
-10.395

> <ROCS_Overlap>
1055.515

> <ROCS_Rank>
162                 

$$$$
untitled-dbase-25682_0
  -OEChem-06232314403D

 24 26  0     1  0  0  0  0  0999 V2000
   -9.5157   14.6508  -36.5110 C   0  0  0  0  0  0  0  0  0  0  0  0
   -9.9471   14.2410  -37.9280 C   0  0  0  0  0  0  0  0  0  0  0  0
  -13.3664   14.7942  -39.6235 C   0  0  0  0  0  0  0  0  0  0  0  0
  -12.1392   15.7148  -39.7377 C   0  0  0  0  0  0  0  0  0  0  0  0
  -13.2815   16.2001  -37.7059 C   0  0  0  0  0  0  0  0  0  0  0  0
  -12.5526   13.9381  -37.4032 C   0  0  0  0  0  0  0  0  0  0  0  0
  -13.6485   14.7712  -38.1106 C   0  0  2  0  0  0  0  0  0  0  0  0
  -11.8600   16.1016  -38.2745 C   0  0  1  0  0  0  0  0  0  0  0  0
  -11.3275   14.8519  -37.5578 C   0  0  2  0  0  0  0  0  0  0  0  0
  -10.7396   15.1838  -36.2593 N   0  0  0  0  0  0  0  0  0  0  0  0
   -8.5116   14.5628  -35.8427 O   0  0  0  0  0  0  0  0  0  0  0  0
   -9.3893   14.7550  -38.7151 H   0  0  0  0  0  0  0  0  0  0  0  0
   -9.9319   13.1613  -38.0975 H   0  0  0  0  0  0  0  0  0  0  0  0
  -14.2115   15.2264  -40.1710 H   0  0  0  0  0  0  0  0  0  0  0  0
  -13.1711   13.7967  -40.0292 H   0  0  0  0  0  0  0  0  0  0  0  0
  -11.2973   15.2066  -40.2169 H   0  0  0  0  0  0  0  0  0  0  0  0
  -12.3895   16.6000  -40.3330 H   0  0  0  0  0  0  0  0  0  0  0  0
  -13.8919   16.9617  -38.2025 H   0  0  0  0  0  0  0  0  0  0  0  0
  -13.3086   16.3548  -36.6222 H   0  0  0  0  0  0  0  0  0  0  0  0
  -12.8164   13.7758  -36.3516 H   0  0  0  0  0  0  0  0  0  0  0  0
  -12.4140   12.9650  -37.8851 H   0  0  0  0  0  0  0  0  0  0  0  0
  -14.6630   14.4537  -37.8615 H   0  0  0  0  0  0  0  0  0  0  0  0
  -11.2417   16.9952  -38.1619 H   0  0  0  0  0  0  0  0  0  0  0  0
  -11.0964   15.6360  -35.4284 H   0  0  0  0  0  0  0  0  0  0  0  0
  1  2  1  0  0  0  0
  1 10  1  0  0  0  0
  1 11  2  0  0  0  0
  2  9  1  0  0  0  0
  3  4  1  0  0  0  0
  3  7  1  0  0  0  0
  4  8  1  0  0  0  0
  5  7  1  0  0  0  0
  5  8  1  0  0  0  0
  6  7  1  0  0  0  0
  6  9  1  0  0  0  0
  8  9  1  0  0  0  0
  9 10  1  0  0  0  0
  2 12  1  0  0  0  0
  2 13  1  0  0  0  0
  3 14  1  0  0  0  0
  3 15  1  0  0  0  0
  4 16  1  0  0  0  0
  4 17  1  0  0  0  0
  5 18  1  0  0  0  0
  5 19  1  0  0  0  0
  6 20  1  0  0  0  0
  6 21  1  0  0  0  0
  7 22  1  0  0  0  0
  8 23  1  0  0  0  0
 10 24  1  0  0  0  0
M  END
> <id>
EN300-1241517

> <smiles>
O=C1CC2(CC3CCC2C3)N1

> <MDLNUMBER>
MFCD24121824

> <IUPAC Name>
spiro[azetidine-2,2'-bicyclo[2.2.1]heptane]-4-one

> <CAS>
1559978-45-8

> <Purity>
95

> <URL>
https://www.enaminestore.com/catalog/EN300-1241517

> <ROCS_ShapeQuery>
_x1247relevant_x1083L0AP1_x1305L0BP1_

> <ROCS_TanimotoCombo>
1.049 

> <ROCS_ShapeTanimoto>
0.494 

> <ROCS_ColorTanimoto>
0.554 

> <ROCS_RefTversky>
0.412 

> <ROCS_RefColorTversky>
0.702 

> <ROCS_RefTverskyCombo>
1.115 

> <ROCS_FitTversky>
1.673 

> <ROCS_FitColorTversky>
0.725 

> <ROCS_FitTverskyCombo>
2.398 

> <ROCS_ColorScore>
-6.778

> <ROCS_Overlap>
1013.285

> <ROCS_Rank>
163                 

$$$$
untitled-dbase-53537_0
  -OEChem-06232314403D

 25 27  0     1  0  0  0  0  0999 V2000
   -9.6946   13.8810  -36.0191 C   0  0  0  0  0  0  0  0  0  0  0  0
   -8.9379   14.8375  -36.6949 C   0  0  0  0  0  0  0  0  0  0  0  0
  -11.0469   13.7119  -36.3215 C   0  0  0  0  0  0  0  0  0  0  0  0
   -9.5292   15.6345  -37.6733 C   0  0  0  0  0  0  0  0  0  0  0  0
  -11.6651   14.4992  -37.3006 C   0  0  0  0  0  0  0  0  0  0  0  0
  -10.8873   15.4772  -37.9719 C   0  0  0  0  0  0  0  0  0  0  0  0
  -13.3407   14.3873  -39.3068 C   0  0  0  0  0  0  0  0  0  0  0  0
  -13.8809   15.7923  -37.8344 C   0  0  0  0  0  0  0  0  0  0  0  0
  -13.1796   14.3909  -37.7443 C   0  0  0  0  0  0  0  0  0  0  0  0
  -11.5827   16.3194  -39.0436 C   0  0  1  0  0  0  0  0  0  0  0  0
  -13.0828   15.9274  -39.1781 C   0  0  0  0  0  0  0  0  0  0  0  0
  -11.4734   17.7523  -38.7604 N   0  0  0  0  0  0  0  0  0  0  0  0
   -9.2289   13.2616  -35.2579 H   0  0  0  0  0  0  0  0  0  0  0  0
   -7.8849   14.9607  -36.4586 H   0  0  0  0  0  0  0  0  0  0  0  0
  -11.6229   12.9576  -35.7917 H   0  0  0  0  0  0  0  0  0  0  0  0
   -8.9284   16.3723  -38.1976 H   0  0  0  0  0  0  0  0  0  0  0  0
  -12.6037   13.8147  -39.8772 H   0  0  0  0  0  0  0  0  0  0  0  0
  -14.3429   14.1166  -39.6610 H   0  0  0  0  0  0  0  0  0  0  0  0
  -14.9709   15.7502  -37.9501 H   0  0  0  0  0  0  0  0  0  0  0  0
  -13.6441   16.5100  -37.0442 H   0  0  0  0  0  0  0  0  0  0  0  0
  -13.7524   13.6203  -37.2189 H   0  0  0  0  0  0  0  0  0  0  0  0
  -11.0865   16.1144  -40.0003 H   0  0  0  0  0  0  0  0  0  0  0  0
  -13.5904   16.5198  -39.9488 H   0  0  0  0  0  0  0  0  0  0  0  0
  -10.5105   17.9823  -38.7116 H   0  0  0  0  0  0  0  0  0  0  0  0
  -11.9180   18.2443  -39.4970 H   0  0  0  0  0  0  0  0  0  0  0  0
  1  2  2  0  0  0  0
  1  3  1  0  0  0  0
  2  4  1  0  0  0  0
  3  5  2  0  0  0  0
  4  6  2  0  0  0  0
  5  6  1  0  0  0  0
  5  9  1  0  0  0  0
  6 10  1  0  0  0  0
  7  9  1  1  0  0  0
  7 11  1  1  0  0  0
  8  9  1  0  0  0  0
  8 11  1  0  0  0  0
 10 11  1  0  0  0  0
 10 12  1  0  0  0  0
  1 13  1  0  0  0  0
  2 14  1  0  0  0  0
  3 15  1  0  0  0  0
  4 16  1  0  0  0  0
  7 17  1  0  0  0  0
  7 18  1  0  0  0  0
  8 19  1  0  0  0  0
  8 20  1  0  0  0  0
  9 21  1  0  0  0  0
 10 22  1  0  0  0  0
 11 23  1  0  0  0  0
 12 24  1  0  0  0  0
 12 25  1  0  0  0  0
M  END
> <id>
EN300-39870068

> <smiles>
NC1[C@H]2C[C@H](C2)C=3C=CC=CC13

> <IUPAC Name>
(1s,9s)-tricyclo[7.1.1.0,2,7]undeca-2,4,6-trien-8-amine

> <URL>
https://www.enaminestore.com/catalog/EN300-39870068

> <ROCS_ShapeQuery>
_x1247relevant_x1083L0AP1_x1305L0BP1_

> <ROCS_TanimotoCombo>
1.048 

> <ROCS_ShapeTanimoto>
0.491 

> <ROCS_ColorTanimoto>
0.557 

> <ROCS_RefTversky>
0.415 

> <ROCS_RefColorTversky>
0.694 

> <ROCS_RefTverskyCombo>
1.109 

> <ROCS_FitTversky>
1.596 

> <ROCS_FitColorTversky>
0.739 

> <ROCS_FitTverskyCombo>
2.336 

> <ROCS_ColorScore>
-6.683

> <ROCS_Overlap>
1020.585

> <ROCS_Rank>
164                 

$$$$
untitled-dbase-23745_0
  -OEChem-06232314403D

 27 29  0     1  0  0  0  0  0999 V2000
  -12.8155   15.9130  -39.7656 C   0  0  0  0  0  0  0  0  0  0  0  0
  -12.2899   14.4899  -39.7791 C   0  0  0  0  0  0  0  0  0  0  0  0
  -14.1175   15.5386  -37.7205 C   0  0  0  0  0  0  0  0  0  0  0  0
  -13.5871   14.0960  -37.6753 C   0  0  0  0  0  0  0  0  0  0  0  0
  -11.7576   16.4289  -37.6136 C   0  0  0  0  0  0  0  0  0  0  0  0
   -9.0375   14.7730  -36.9963 C   0  0  0  0  0  0  0  0  0  0  0  0
   -9.8646   14.0103  -36.0010 C   0  0  0  0  0  0  0  0  0  0  0  0
  -13.0906   16.4697  -38.3776 C   0  0  1  0  0  0  0  0  0  0  0  0
  -12.1834   14.0299  -38.3103 C   0  0  2  0  0  0  0  0  0  0  0  0
  -11.2339   14.9773  -37.5347 C   0  0  0  0  0  0  0  0  0  0  0  0
  -13.0023   16.5589  -40.7923 O   0  0  0  0  0  0  0  0  0  0  0  0
   -9.9168   14.9083  -38.1106 O   0  0  0  0  0  0  0  0  0  0  0  0
  -11.1626   14.5805  -36.1529 O   0  0  0  0  0  0  0  0  0  0  0  0
  -12.9915   13.8591  -40.3338 H   0  0  0  0  0  0  0  0  0  0  0  0
  -11.3149   14.4729  -40.2747 H   0  0  0  0  0  0  0  0  0  0  0  0
  -15.0602   15.5604  -38.2809 H   0  0  0  0  0  0  0  0  0  0  0  0
  -14.3437   15.8826  -36.7044 H   0  0  0  0  0  0  0  0  0  0  0  0
  -13.5634   13.7387  -36.6393 H   0  0  0  0  0  0  0  0  0  0  0  0
  -14.2750   13.4326  -38.2133 H   0  0  0  0  0  0  0  0  0  0  0  0
  -11.0283   17.0691  -38.1262 H   0  0  0  0  0  0  0  0  0  0  0  0
  -11.9042   16.8440  -36.6089 H   0  0  0  0  0  0  0  0  0  0  0  0
   -8.7902   15.7762  -36.6329 H   0  0  0  0  0  0  0  0  0  0  0  0
   -8.1201   14.2554  -37.2868 H   0  0  0  0  0  0  0  0  0  0  0  0
   -9.9272   12.9472  -36.2571 H   0  0  0  0  0  0  0  0  0  0  0  0
   -9.5129   14.1157  -34.9718 H   0  0  0  0  0  0  0  0  0  0  0  0
  -13.4727   17.4922  -38.4524 H   0  0  0  0  0  0  0  0  0  0  0  0
  -11.8099   13.0000  -38.2736 H   0  0  0  0  0  0  0  0  0  0  0  0
  1  2  1  0  0  0  0
  1  8  1  0  0  0  0
  1 11  2  0  0  0  0
  2  9  1  0  0  0  0
  3  4  1  0  0  0  0
  3  8  1  0  0  0  0
  4  9  1  0  0  0  0
  5  8  1  0  0  0  0
  5 10  1  0  0  0  0
  6  7  1  0  0  0  0
  6 12  1  0  0  0  0
  7 13  1  0  0  0  0
  9 10  1  0  0  0  0
 10 12  1  0  0  0  0
 10 13  1  0  0  0  0
  2 14  1  0  0  0  0
  2 15  1  0  0  0  0
  3 16  1  0  0  0  0
  3 17  1  0  0  0  0
  4 18  1  0  0  0  0
  4 19  1  0  0  0  0
  5 20  1  0  0  0  0
  5 21  1  0  0  0  0
  6 22  1  0  0  0  0
  6 23  1  0  0  0  0
  7 24  1  0  0  0  0
  7 25  1  0  0  0  0
  8 26  1  0  0  0  0
  9 27  1  0  0  0  0
M  END
> <id>
EN300-7537269

> <smiles>
O=C1CC2CCC1CC32OCCO3

> <MDLNUMBER>
MFCD26967872

> <IUPAC Name>
spiro[bicyclo[2.2.2]octane-2,2'-[1,3]dioxolane]-5-one

> <CAS>
132435-30-4

> <Purity>
95

> <URL>
https://www.enaminestore.com/catalog/EN300-7537269

> <MP>
35.2999999999999971578290569595992565155-35.5

> <ROCS_ShapeQuery>
_x1247relevant_x1083L0AP1_x1305L0BP1_

> <ROCS_TanimotoCombo>
1.048 

> <ROCS_ShapeTanimoto>
0.521 

> <ROCS_ColorTanimoto>
0.527 

> <ROCS_RefTversky>
0.439 

> <ROCS_RefColorTversky>
0.702 

> <ROCS_RefTverskyCombo>
1.140 

> <ROCS_FitTversky>
1.560 

> <ROCS_FitColorTversky>
0.680 

> <ROCS_FitTverskyCombo>
2.239 

> <ROCS_ColorScore>
-6.794

> <ROCS_Overlap>
1080.584

> <ROCS_Rank>
165                 

$$$$
untitled-dbase-2960_0
  -OEChem-06232314403D

 21 22  0     1  0  0  0  0  0999 V2000
  -13.1448   14.1990  -37.2396 C   0  0  0  0  0  0  0  0  0  0  0  0
  -13.6380   15.6559  -37.1911 C   0  0  0  0  0  0  0  0  0  0  0  0
  -12.6119   14.4456  -39.6719 C   0  0  0  0  0  0  0  0  0  0  0  0
  -12.0017   14.2556  -38.2683 C   0  0  1  0  0  0  0  0  0  0  0  0
  -12.7284   16.3675  -38.2131 C   0  0  2  0  0  0  0  0  0  0  0  0
  -13.0558   15.9257  -39.6591 C   0  0  2  0  0  0  0  0  0  0  0  0
  -11.4129   15.6309  -37.9901 C   0  0  0  0  0  0  0  0  0  0  0  0
  -14.4450   16.1098  -40.0429 N   0  0  0  0  0  0  0  0  0  0  0  0
  -10.4497   15.9815  -38.8564 F   0  0  0  0  0  0  0  0  0  0  0  0
  -10.9342   15.7611  -36.7429 F   0  0  0  0  0  0  0  0  0  0  0  0
  -12.7712   13.8954  -36.2551 H   0  0  0  0  0  0  0  0  0  0  0  0
  -13.9392   13.5050  -37.5316 H   0  0  0  0  0  0  0  0  0  0  0  0
  -14.7033   15.7387  -37.4249 H   0  0  0  0  0  0  0  0  0  0  0  0
  -13.4841   16.0677  -36.1868 H   0  0  0  0  0  0  0  0  0  0  0  0
  -11.8560   14.2917  -40.4509 H   0  0  0  0  0  0  0  0  0  0  0  0
  -13.4323   13.7442  -39.8600 H   0  0  0  0  0  0  0  0  0  0  0  0
  -11.3079   13.4158  -38.2013 H   0  0  0  0  0  0  0  0  0  0  0  0
  -12.6887   17.4511  -38.0827 H   0  0  0  0  0  0  0  0  0  0  0  0
  -12.4274   16.4898  -40.3605 H   0  0  0  0  0  0  0  0  0  0  0  0
  -14.6607   17.0801  -40.0009 H   0  0  0  0  0  0  0  0  0  0  0  0
  -14.5662   15.7690  -40.9697 H   0  0  0  0  0  0  0  0  0  0  0  0
  1  2  1  0  0  0  0
  1  4  1  0  0  0  0
  2  5  1  0  0  0  0
  3  4  1  0  0  0  0
  3  6  1  0  0  0  0
  4  7  1  0  0  0  0
  5  6  1  0  0  0  0
  5  7  1  0  0  0  0
  6  8  1  0  0  0  0
  7  9  1  0  0  0  0
  7 10  1  0  0  0  0
  1 11  1  0  0  0  0
  1 12  1  0  0  0  0
  2 13  1  0  0  0  0
  2 14  1  0  0  0  0
  3 15  1  0  0  0  0
  3 16  1  0  0  0  0
  4 17  1  0  0  0  0
  5 18  1  0  0  0  0
  6 19  1  0  0  0  0
  8 20  1  0  0  0  0
  8 21  1  0  0  0  0
M  END
> <id>
EN300-128875

> <smiles>
NC1CC2CCC1C2(F)F

> <MDLNUMBER>
MFCD24369316

> <IUPAC Name>
7,7-difluorobicyclo[2.2.1]heptan-2-amine

> <CAS>
1432679-64-5

> <URL>
https://www.enaminestore.com/catalog/EN300-128875

> <ROCS_ShapeQuery>
_x1247relevant_x1083L0AP1_x1305L0BP1_

> <ROCS_TanimotoCombo>
1.048 

> <ROCS_ShapeTanimoto>
0.436 

> <ROCS_ColorTanimoto>
0.612 

> <ROCS_RefTversky>
0.373 

> <ROCS_RefColorTversky>
0.711 

> <ROCS_RefTverskyCombo>
1.084 

> <ROCS_FitTversky>
1.639 

> <ROCS_FitColorTversky>
0.815 

> <ROCS_FitTverskyCombo>
2.454 

> <ROCS_ColorScore>
-6.825

> <ROCS_Overlap>
914.922

> <ROCS_Rank>
166                 

$$$$
untitled-dbase-25908_0
  -OEChem-06232314403D

 22 24  0     0  0  0  0  0  0999 V2000
  -11.0271   13.6453  -36.4135 C   0  0  0  0  0  0  0  0  0  0  0  0
   -9.6838   13.8352  -36.0756 C   0  0  0  0  0  0  0  0  0  0  0  0
   -9.5365   15.7023  -37.6056 C   0  0  0  0  0  0  0  0  0  0  0  0
  -10.8760   15.5027  -37.9338 C   0  0  0  0  0  0  0  0  0  0  0  0
  -11.6554   14.4742  -37.3504 C   0  0  0  0  0  0  0  0  0  0  0  0
   -8.9429   14.8592  -36.6695 C   0  0  0  0  0  0  0  0  0  0  0  0
  -11.5924   16.3598  -38.9273 C   0  0  0  0  0  0  0  0  0  0  0  0
  -13.9255   15.7315  -37.8277 C   0  0  0  0  0  0  0  0  0  0  0  0
  -13.3523   14.4224  -39.3702 C   0  0  0  0  0  0  0  0  0  0  0  0
  -13.1782   14.3481  -37.8092 C   0  0  0  0  0  0  0  0  0  0  0  0
  -13.1149   15.9588  -39.1527 C   0  0  0  0  0  0  0  0  0  0  0  0
  -10.9954   17.2772  -39.4839 O   0  0  0  0  0  0  0  0  0  0  0  0
   -7.1271   15.1002  -36.2002 Br  0  0  0  0  0  0  0  0  0  0  0  0
  -11.5878   12.8431  -35.9405 H   0  0  0  0  0  0  0  0  0  0  0  0
   -9.2284   13.1725  -35.3437 H   0  0  0  0  0  0  0  0  0  0  0  0
   -8.9655   16.5004  -38.0713 H   0  0  0  0  0  0  0  0  0  0  0  0
  -15.0129   15.6696  -37.9537 H   0  0  0  0  0  0  0  0  0  0  0  0
  -13.7054   16.4144  -37.0022 H   0  0  0  0  0  0  0  0  0  0  0  0
  -12.6031   13.8966  -39.9689 H   0  0  0  0  0  0  0  0  0  0  0  0
  -14.3496   14.1545  -39.7389 H   0  0  0  0  0  0  0  0  0  0  0  0
  -13.7256   13.5348  -37.3223 H   0  0  0  0  0  0  0  0  0  0  0  0
  -13.6153   16.6012  -39.8839 H   0  0  0  0  0  0  0  0  0  0  0  0
  1  2  2  0  0  0  0
  1  5  1  0  0  0  0
  2  6  1  0  0  0  0
  3  4  1  0  0  0  0
  3  6  2  0  0  0  0
  4  5  2  0  0  0  0
  4  7  1  0  0  0  0
  5 10  1  0  0  0  0
  6 13  1  0  0  0  0
  7 11  1  0  0  0  0
  7 12  2  0  0  0  0
  8 10  1  0  0  0  0
  8 11  1  0  0  0  0
  9 10  1  0  0  0  0
  9 11  1  0  0  0  0
  1 14  1  0  0  0  0
  2 15  1  0  0  0  0
  3 16  1  0  0  0  0
  8 17  1  0  0  0  0
  8 18  1  0  0  0  0
  9 19  1  0  0  0  0
  9 20  1  0  0  0  0
 10 21  1  0  0  0  0
 11 22  1  0  0  0  0
M  END
> <id>
EN300-6734323

> <smiles>
BrC=1C=CC=2C3CC(C3)C(=O)C2C1

> <MDLNUMBER>
MFCD29059230

> <IUPAC Name>
5-bromotricyclo[7.1.1.0,2,7]undeca-2,4,6-trien-8-one

> <CAS>
1451085-10-1

> <Purity>
95

> <URL>
https://www.enaminestore.com/catalog/EN300-6734323

> <ROCS_ShapeQuery>
_x1247relevant_x1083L0AP1_x1305L0BP1_

> <ROCS_TanimotoCombo>
1.048 

> <ROCS_ShapeTanimoto>
0.492 

> <ROCS_ColorTanimoto>
0.556 

> <ROCS_RefTversky>
0.420 

> <ROCS_RefColorTversky>
0.691 

> <ROCS_RefTverskyCombo>
1.111 

> <ROCS_FitTversky>
1.534 

> <ROCS_FitColorTversky>
0.740 

> <ROCS_FitTverskyCombo>
2.274 

> <ROCS_ColorScore>
-6.650

> <ROCS_Overlap>
1034.452

> <ROCS_Rank>
167                 

$$$$
untitled-dbase-42631_1
  -OEChem-06232314403D

 27 29  0     1  0  0  0  0  0999 V2000
   -8.1363   14.4419  -37.5321 C   0  0  0  0  0  0  0  0  0  0  0  0
  -13.7609   16.2240  -38.3400 C   0  0  0  0  0  0  0  0  0  0  0  0
  -14.0308   14.7155  -38.4566 C   0  0  0  0  0  0  0  0  0  0  0  0
  -11.9547   15.2086  -39.4945 C   0  0  0  0  0  0  0  0  0  0  0  0
  -10.0880   15.9130  -37.0871 C   0  0  0  0  0  0  0  0  0  0  0  0
  -10.5029   13.5499  -37.2881 C   0  0  0  0  0  0  0  0  0  0  0  0
  -12.2283   16.3107  -38.4702 C   0  0  2  0  0  0  0  0  0  0  0  0
  -12.6197   14.1262  -38.6428 C   0  0  1  0  0  0  0  0  0  0  0  0
  -11.6000   15.7497  -37.1728 C   0  0  1  0  0  0  0  0  0  0  0  0
  -11.8679   14.2301  -37.2946 C   0  0  2  0  0  0  0  0  0  0  0  0
   -9.5097   14.6095  -37.3504 N   0  0  0  0  0  0  0  0  0  0  0  0
   -7.6441   13.3343  -37.7559 O   0  0  0  0  0  0  0  0  0  0  0  0
   -7.1617   15.8955  -37.4298 Cl  0  0  0  0  0  0  0  0  0  0  0  0
  -14.2521   16.7588  -39.1608 H   0  0  0  0  0  0  0  0  0  0  0  0
  -14.1291   16.6369  -37.3956 H   0  0  0  0  0  0  0  0  0  0  0  0
  -14.5412   14.3186  -37.5734 H   0  0  0  0  0  0  0  0  0  0  0  0
  -14.6566   14.5118  -39.3328 H   0  0  0  0  0  0  0  0  0  0  0  0
  -12.4635   15.3752  -40.4506 H   0  0  0  0  0  0  0  0  0  0  0  0
  -10.8923   15.0336  -39.6847 H   0  0  0  0  0  0  0  0  0  0  0  0
   -9.6824   16.6591  -37.7781 H   0  0  0  0  0  0  0  0  0  0  0  0
   -9.7887   16.1988  -36.0720 H   0  0  0  0  0  0  0  0  0  0  0  0
  -10.3457   13.0122  -36.3463 H   0  0  0  0  0  0  0  0  0  0  0  0
  -10.3698   12.8427  -38.1121 H   0  0  0  0  0  0  0  0  0  0  0  0
  -11.8733   17.3062  -38.7452 H   0  0  0  0  0  0  0  0  0  0  0  0
  -12.6234   13.1240  -39.0763 H   0  0  0  0  0  0  0  0  0  0  0  0
  -12.0773   16.1776  -36.2840 H   0  0  0  0  0  0  0  0  0  0  0  0
  -12.4815   13.8563  -36.4670 H   0  0  0  0  0  0  0  0  0  0  0  0
  1 11  1  0  0  0  0
  1 12  2  0  0  0  0
  1 13  1  0  0  0  0
  2  3  1  0  0  0  0
  2  7  1  1  0  0  0
  3  8  1  1  0  0  0
  4  7  1  0  0  0  0
  4  8  1  0  0  0  0
  5  9  1  6  0  0  0
  5 11  1  0  0  0  0
  6 10  1  6  0  0  0
  6 11  1  0  0  0  0
  7  9  1  0  0  0  0
  8 10  1  0  0  0  0
  9 10  1  0  0  0  0
  2 14  1  0  0  0  0
  2 15  1  0  0  0  0
  3 16  1  0  0  0  0
  3 17  1  0  0  0  0
  4 18  1  0  0  0  0
  4 19  1  0  0  0  0
  5 20  1  0  0  0  0
  5 21  1  0  0  0  0
  6 22  1  0  0  0  0
  6 23  1  0  0  0  0
  7 24  1  0  0  0  0
  8 25  1  0  0  0  0
  9 26  1  0  0  0  0
 10 27  1  0  0  0  0
M  END
> <id>
EN300-27716763

> <smiles>
ClC(=O)N1C[C@H]2[C@@H]3CC[C@@H](C3)[C@H]2C1

> <MDLNUMBER>
MFCD33020320

> <IUPAC Name>
(1R,2S,6R,7S)-4-azatricyclo[5.2.1.0,2,6]decane-4-carbonyl chloride

> <CAS>
2580102-09-4

> <Purity>
95

> <URL>
https://www.enaminestore.com/catalog/EN300-27716763

> <ROCS_ShapeQuery>
_x1247relevant_x1083L0AP1_x1305L0BP1_

> <ROCS_TanimotoCombo>
1.047 

> <ROCS_ShapeTanimoto>
0.468 

> <ROCS_ColorTanimoto>
0.579 

> <ROCS_RefTversky>
0.407 

> <ROCS_RefColorTversky>
0.691 

> <ROCS_RefTverskyCombo>
1.098 

> <ROCS_FitTversky>
1.476 

> <ROCS_FitColorTversky>
0.780 

> <ROCS_FitTverskyCombo>
2.256 

> <ROCS_ColorScore>
-6.641

> <ROCS_Overlap>
1001.621

> <ROCS_Rank>
168                 

$$$$
untitled-dbase-51123_0
  -OEChem-06232314403D

 19 21  0     0  0  0  0  0  0999 V2000
   -9.9210   15.2096  -37.8927 C   0  0  0  0  0  0  0  0  0  0  0  0
  -13.3287   15.8863  -37.4304 C   0  0  0  0  0  0  0  0  0  0  0  0
  -13.1817   14.0488  -38.4406 C   0  0  0  0  0  0  0  0  0  0  0  0
  -11.8709   15.9222  -39.4713 C   0  0  0  0  0  0  0  0  0  0  0  0
  -11.3711   14.2412  -36.3417 C   0  0  0  0  0  0  0  0  0  0  0  0
  -12.2036   14.7871  -37.4543 C   0  0  0  0  0  0  0  0  0  0  0  0
  -13.2977   15.5396  -38.9825 C   0  0  0  0  0  0  0  0  0  0  0  0
  -11.1902   15.3490  -38.3292 N   0  0  0  0  0  0  0  0  0  0  0  0
   -8.8860   15.5820  -38.4222 O   0  0  0  0  0  0  0  0  0  0  0  0
   -9.9835   14.5423  -36.6875 O   0  0  0  0  0  0  0  0  0  0  0  0
  -14.6133   16.0086  -40.0278 Cl  0  0  0  0  0  0  0  0  0  0  0  0
  -14.2413   15.6309  -36.8804 H   0  0  0  0  0  0  0  0  0  0  0  0
  -13.0182   16.8999  -37.1581 H   0  0  0  0  0  0  0  0  0  0  0  0
  -12.7321   13.3223  -39.1246 H   0  0  0  0  0  0  0  0  0  0  0  0
  -14.0797   13.6101  -37.9913 H   0  0  0  0  0  0  0  0  0  0  0  0
  -11.5631   15.4142  -40.3885 H   0  0  0  0  0  0  0  0  0  0  0  0
  -11.6897   16.9988  -39.5181 H   0  0  0  0  0  0  0  0  0  0  0  0
  -11.5884   14.7162  -35.3809 H   0  0  0  0  0  0  0  0  0  0  0  0
  -11.4632   13.1559  -36.2419 H   0  0  0  0  0  0  0  0  0  0  0  0
  1  8  1  0  0  0  0
  1  9  2  0  0  0  0
  1 10  1  0  0  0  0
  2  6  1  0  0  0  0
  2  7  1  0  0  0  0
  3  6  1  0  0  0  0
  3  7  1  0  0  0  0
  4  7  1  0  0  0  0
  4  8  1  0  0  0  0
  5  6  1  0  0  0  0
  5 10  1  0  0  0  0
  6  8  1  0  0  0  0
  7 11  1  0  0  0  0
  2 12  1  0  0  0  0
  2 13  1  0  0  0  0
  3 14  1  0  0  0  0
  3 15  1  0  0  0  0
  4 16  1  0  0  0  0
  4 17  1  0  0  0  0
  5 18  1  0  0  0  0
  5 19  1  0  0  0  0
M  END
> <id>
EN300-37351302

> <smiles>
ClC1(CC23C1)CN3C(=O)OC2

> <IUPAC Name>
7-chloro-3-oxa-5-azatricyclo[5.1.1.0,1,5]nonan-4-one

> <CAS>
2763755-58-2

> <Purity>
95

> <URL>
https://www.enaminestore.com/catalog/EN300-37351302

> <ROCS_ShapeQuery>
_x1247relevant_x1083L0AP1_x1305L0BP1_

> <ROCS_TanimotoCombo>
1.047 

> <ROCS_ShapeTanimoto>
0.492 

> <ROCS_ColorTanimoto>
0.555 

> <ROCS_RefTversky>
0.412 

> <ROCS_RefColorTversky>
0.688 

> <ROCS_RefTverskyCombo>
1.100 

> <ROCS_FitTversky>
1.661 

> <ROCS_FitColorTversky>
0.740 

> <ROCS_FitTverskyCombo>
2.402 

> <ROCS_ColorScore>
-6.628

> <ROCS_Overlap>
1012.047

> <ROCS_Rank>
169                 

$$$$
untitled-dbase-49973_0
  -OEChem-06232314403D

 22 24  0     0  0  0  0  0  0999 V2000
  -11.0361   13.6708  -36.3788 C   0  0  0  0  0  0  0  0  0  0  0  0
   -9.6927   13.8589  -36.0404 C   0  0  0  0  0  0  0  0  0  0  0  0
   -9.5294   15.6961  -37.6045 C   0  0  0  0  0  0  0  0  0  0  0  0
  -10.8691   15.4986  -37.9330 C   0  0  0  0  0  0  0  0  0  0  0  0
  -11.6566   14.4859  -37.3330 C   0  0  0  0  0  0  0  0  0  0  0  0
   -8.9438   14.8671  -36.6510 C   0  0  0  0  0  0  0  0  0  0  0  0
  -11.5773   16.3412  -38.9447 C   0  0  0  0  0  0  0  0  0  0  0  0
  -13.9173   15.7479  -37.8406 C   0  0  0  0  0  0  0  0  0  0  0  0
  -13.3478   14.4066  -39.3566 C   0  0  0  0  0  0  0  0  0  0  0  0
  -13.1787   14.3605  -37.7940 C   0  0  0  0  0  0  0  0  0  0  0  0
  -13.1016   15.9454  -39.1671 C   0  0  0  0  0  0  0  0  0  0  0  0
  -10.9729   17.2442  -39.5166 O   0  0  0  0  0  0  0  0  0  0  0  0
   -7.1280   15.1063  -36.1800 Br  0  0  0  0  0  0  0  0  0  0  0  0
  -11.6031   12.8811  -35.8926 H   0  0  0  0  0  0  0  0  0  0  0  0
   -9.2435   13.2075  -35.2946 H   0  0  0  0  0  0  0  0  0  0  0  0
   -8.9522   16.4821  -38.0830 H   0  0  0  0  0  0  0  0  0  0  0  0
  -15.0048   15.6903  -37.9688 H   0  0  0  0  0  0  0  0  0  0  0  0
  -13.6955   16.4447  -37.0273 H   0  0  0  0  0  0  0  0  0  0  0  0
  -12.6001   13.8652  -39.9431 H   0  0  0  0  0  0  0  0  0  0  0  0
  -14.3456   14.1381  -39.7233 H   0  0  0  0  0  0  0  0  0  0  0  0
  -13.7325   13.5597  -37.2937 H   0  0  0  0  0  0  0  0  0  0  0  0
  -13.5958   16.5771  -39.9117 H   0  0  0  0  0  0  0  0  0  0  0  0
  1  2  2  0  0  0  0
  1  5  1  0  0  0  0
  2  6  1  0  0  0  0
  3  4  1  0  0  0  0
  3  6  2  0  0  0  0
  4  5  2  0  0  0  0
  4  7  1  0  0  0  0
  5 10  1  0  0  0  0
  6 13  1  0  0  0  0
  7 11  1  0  0  0  0
  7 12  2  0  0  0  0
  8 10  1  1  0  0  0
  8 11  1  1  0  0  0
  9 10  1  0  0  0  0
  9 11  1  0  0  0  0
  1 14  1  0  0  0  0
  2 15  1  0  0  0  0
  3 16  1  0  0  0  0
  8 17  1  0  0  0  0
  8 18  1  0  0  0  0
  9 19  1  0  0  0  0
  9 20  1  0  0  0  0
 10 21  1  0  0  0  0
 11 22  1  0  0  0  0
M  END
> <id>
EN300-37375145

> <smiles>
BrC=1C=CC=2[C@H]3C[C@H](C3)C(=O)C2C1

> <IUPAC Name>
(1s,9s)-5-bromotricyclo[7.1.1.0,2,7]undeca-2,4,6-trien-8-one

> <CAS>
1451085-10-1

> <URL>
https://www.enaminestore.com/catalog/EN300-37375145

> <ROCS_ShapeQuery>
_x1247relevant_x1083L0AP1_x1305L0BP1_

> <ROCS_TanimotoCombo>
1.047 

> <ROCS_ShapeTanimoto>
0.491 

> <ROCS_ColorTanimoto>
0.556 

> <ROCS_RefTversky>
0.420 

> <ROCS_RefColorTversky>
0.691 

> <ROCS_RefTverskyCombo>
1.110 

> <ROCS_FitTversky>
1.532 

> <ROCS_FitColorTversky>
0.740 

> <ROCS_FitTverskyCombo>
2.272 

> <ROCS_ColorScore>
-6.651

> <ROCS_Overlap>
1032.992

> <ROCS_Rank>
170                 

$$$$
untitled-dbase-29879_11
  -OEChem-06232314403D

 34 36  0     1  0  0  0  0  0999 V2000
   -9.3400   13.1213  -36.8242 C   0  0  0  0  0  0  0  0  0  0  0  0
  -10.0892   13.6683  -35.6188 C   0  0  0  0  0  0  0  0  0  0  0  0
   -8.8271   14.1662  -37.8196 C   0  0  0  0  0  0  0  0  0  0  0  0
  -13.1177   16.1655  -39.5646 C   0  0  0  0  0  0  0  0  0  0  0  0
  -11.9267   15.2177  -39.7480 C   0  0  0  0  0  0  0  0  0  0  0  0
  -11.4082   14.3947  -35.8999 C   0  0  0  0  0  0  0  0  0  0  0  0
  -13.4693   14.1823  -38.2947 C   0  0  0  0  0  0  0  0  0  0  0  0
  -12.8518   16.1175  -37.0714 C   0  0  0  0  0  0  0  0  0  0  0  0
   -9.0601   15.6242  -37.4344 C   0  0  0  0  0  0  0  0  0  0  0  0
  -13.7411   15.6789  -38.2479 C   0  0  1  0  0  0  0  0  0  0  0  0
  -11.9541   14.3698  -38.4563 C   0  0  2  0  0  0  0  0  0  0  0  0
  -11.5555   15.2297  -37.2008 C   0  0  2  0  0  0  0  0  0  0  0  0
  -10.4252   16.1327  -37.4202 N   0  0  0  0  0  0  0  0  0  0  0  0
   -8.4781   12.5376  -36.4718 H   0  0  0  0  0  0  0  0  0  0  0  0
   -9.9828   12.4093  -37.3615 H   0  0  0  0  0  0  0  0  0  0  0  0
  -10.3202   12.8005  -34.9555 H   0  0  0  0  0  0  0  0  0  0  0  0
   -9.4140   14.3050  -34.9945 H   0  0  0  0  0  0  0  0  0  0  0  0
   -7.7532   13.9954  -37.9920 H   0  0  0  0  0  0  0  0  0  0  0  0
   -9.3115   13.9771  -38.7890 H   0  0  0  0  0  0  0  0  0  0  0  0
  -12.8077   17.2146  -39.5208 H   0  0  0  0  0  0  0  0  0  0  0  0
  -13.8210   16.0525  -40.3977 H   0  0  0  0  0  0  0  0  0  0  0  0
  -12.0922   14.5784  -40.6238 H   0  0  0  0  0  0  0  0  0  0  0  0
  -10.9877   15.7535  -39.9111 H   0  0  0  0  0  0  0  0  0  0  0  0
  -12.2424   13.6511  -35.8374 H   0  0  0  0  0  0  0  0  0  0  0  0
  -11.6041   15.0529  -35.0185 H   0  0  0  0  0  0  0  0  0  0  0  0
  -13.7624   13.6549  -37.3825 H   0  0  0  0  0  0  0  0  0  0  0  0
  -13.9340   13.6856  -39.1546 H   0  0  0  0  0  0  0  0  0  0  0  0
  -12.6403   17.1945  -37.1123 H   0  0  0  0  0  0  0  0  0  0  0  0
  -13.3623   15.9353  -36.1162 H   0  0  0  0  0  0  0  0  0  0  0  0
   -8.6672   15.7549  -36.3897 H   0  0  0  0  0  0  0  0  0  0  0  0
   -8.3764   16.3034  -38.0252 H   0  0  0  0  0  0  0  0  0  0  0  0
  -14.7889   15.9643  -38.1285 H   0  0  0  0  0  0  0  0  0  0  0  0
  -11.3836   13.4409  -38.5575 H   0  0  0  0  0  0  0  0  0  0  0  0
  -10.4819   16.9319  -36.7548 H   0  0  0  0  0  0  0  0  0  0  0  0
  1  2  1  0  0  0  0
  1  3  1  0  0  0  0
  2  6  1  0  0  0  0
  3  9  1  0  0  0  0
  4  5  1  0  0  0  0
  4 10  1  0  0  0  0
  5 11  1  0  0  0  0
  6 12  1  0  0  0  0
  7 10  1  0  0  0  0
  7 11  1  0  0  0  0
  8 10  1  0  0  0  0
  8 12  1  0  0  0  0
  9 13  1  0  0  0  0
 11 12  1  0  0  0  0
 12 13  1  0  0  0  0
  1 14  1  0  0  0  0
  1 15  1  0  0  0  0
  2 16  1  0  0  0  0
  2 17  1  0  0  0  0
  3 18  1  0  0  0  0
  3 19  1  0  0  0  0
  4 20  1  0  0  0  0
  4 21  1  0  0  0  0
  5 22  1  0  0  0  0
  5 23  1  0  0  0  0
  6 24  1  0  0  0  0
  6 25  1  0  0  0  0
  7 26  1  0  0  0  0
  7 27  1  0  0  0  0
  8 28  1  0  0  0  0
  8 29  1  0  0  0  0
  9 30  1  0  0  0  0
  9 31  1  0  0  0  0
 10 32  1  0  0  0  0
 11 33  1  0  0  0  0
 13 34  1  0  0  0  0
M  END
> <id>
EN300-1629117

> <smiles>
C1CC2CC1CC32CCCCCN3

> <IUPAC Name>
spiro[azepane-2,2'-bicyclo[2.2.1]heptane]

> <CAS>
7161-08-2

> <URL>
https://www.enaminestore.com/catalog/EN300-1629117

> <ROCS_ShapeQuery>
_x1247relevant_x1083L0AP1_x1305L0BP1_

> <ROCS_TanimotoCombo>
1.046 

> <ROCS_ShapeTanimoto>
0.489 

> <ROCS_ColorTanimoto>
0.558 

> <ROCS_RefTversky>
0.418 

> <ROCS_RefColorTversky>
0.703 

> <ROCS_RefTverskyCombo>
1.121 

> <ROCS_FitTversky>
1.537 

> <ROCS_FitColorTversky>
0.729 

> <ROCS_FitTverskyCombo>
2.266 

> <ROCS_ColorScore>
-6.783

> <ROCS_Overlap>
1027.914

> <ROCS_Rank>
171                 

$$$$
untitled-dbase-29795_73
  -OEChem-06232314403D

 40 41  0     1  0  0  0  0  0999 V2000
   -9.8513   14.5876  -36.9202 C   0  0  0  0  0  0  0  0  0  0  0  0
  -13.8923   15.4017  -37.3146 C   0  0  0  0  0  0  0  0  0  0  0  0
  -13.7692   14.0888  -38.1023 C   0  0  0  0  0  0  0  0  0  0  0  0
  -11.5590   16.3306  -37.5328 C   0  0  0  0  0  0  0  0  0  0  0  0
  -11.3591   14.1707  -38.8332 C   0  0  0  0  0  0  0  0  0  0  0  0
  -12.9971   16.4072  -38.0707 C   0  0  1  0  0  0  0  0  0  0  0  0
  -12.8123   14.4115  -39.2705 C   0  0  2  0  0  0  0  0  0  0  0  0
  -13.0805   15.9034  -39.5198 C   0  0  0  0  0  0  0  0  0  0  0  0
  -12.1555   16.5866  -40.5212 C   0  0  0  0  0  0  0  0  0  0  0  0
  -10.6788   13.8561  -34.5411 C   0  0  0  0  0  0  0  0  0  0  0  0
  -10.6109   11.4636  -35.3029 C   0  0  0  0  0  0  0  0  0  0  0  0
   -8.4698   12.6799  -34.8084 C   0  0  0  0  0  0  0  0  0  0  0  0
   -9.8969   12.8131  -35.3382 C   0  0  0  0  0  0  0  0  0  0  0  0
  -10.9469   14.9991  -37.6911 N   0  0  0  0  0  0  0  0  0  0  0  0
   -8.9941   15.3490  -36.4753 O   0  0  0  0  0  0  0  0  0  0  0  0
  -14.4156   16.0600  -40.0135 O   0  0  0  0  0  0  0  0  0  0  0  0
   -9.8381   13.2345  -36.7056 O   0  0  0  0  0  0  0  0  0  0  0  0
  -14.9358   15.7382  -37.3224 H   0  0  0  0  0  0  0  0  0  0  0  0
  -13.5986   15.2783  -36.2671 H   0  0  0  0  0  0  0  0  0  0  0  0
  -13.4084   13.2676  -37.4740 H   0  0  0  0  0  0  0  0  0  0  0  0
  -14.7544   13.7976  -38.4857 H   0  0  0  0  0  0  0  0  0  0  0  0
  -10.9093   17.0480  -38.0466 H   0  0  0  0  0  0  0  0  0  0  0  0
  -11.5503   16.6058  -36.4718 H   0  0  0  0  0  0  0  0  0  0  0  0
  -11.2149   13.1149  -38.5747 H   0  0  0  0  0  0  0  0  0  0  0  0
  -10.6652   14.3846  -39.6542 H   0  0  0  0  0  0  0  0  0  0  0  0
  -13.3932   17.4222  -37.9580 H   0  0  0  0  0  0  0  0  0  0  0  0
  -13.0567   13.7911  -40.1394 H   0  0  0  0  0  0  0  0  0  0  0  0
  -12.2959   16.1545  -41.5116 H   0  0  0  0  0  0  0  0  0  0  0  0
  -11.1171   16.4520  -40.2196 H   0  0  0  0  0  0  0  0  0  0  0  0
  -12.3771   17.6526  -40.5645 H   0  0  0  0  0  0  0  0  0  0  0  0
  -10.1695   14.8262  -34.5640 H   0  0  0  0  0  0  0  0  0  0  0  0
  -11.6928   13.9864  -34.9331 H   0  0  0  0  0  0  0  0  0  0  0  0
  -10.7499   13.5692  -33.4857 H   0  0  0  0  0  0  0  0  0  0  0  0
  -10.0534   10.7122  -35.8736 H   0  0  0  0  0  0  0  0  0  0  0  0
  -11.6005   11.5334  -35.7689 H   0  0  0  0  0  0  0  0  0  0  0  0
  -10.7351   11.0989  -34.2782 H   0  0  0  0  0  0  0  0  0  0  0  0
   -7.9087   11.9317  -35.3800 H   0  0  0  0  0  0  0  0  0  0  0  0
   -7.9299   13.6309  -34.8605 H   0  0  0  0  0  0  0  0  0  0  0  0
   -8.4711   12.3367  -33.7675 H   0  0  0  0  0  0  0  0  0  0  0  0
  -14.6114   17.0065  -39.9649 H   0  0  0  0  0  0  0  0  0  0  0  0
  1 14  1  0  0  0  0
  1 15  2  0  0  0  0
  1 17  1  0  0  0  0
  2  3  1  0  0  0  0
  2  6  1  0  0  0  0
  3  7  1  0  0  0  0
  4  6  1  0  0  0  0
  4 14  1  0  0  0  0
  5  7  1  0  0  0  0
  5 14  1  0  0  0  0
  6  8  1  0  0  0  0
  7  8  1  0  0  0  0
  8  9  1  0  0  0  0
  8 16  1  0  0  0  0
 10 13  1  0  0  0  0
 11 13  1  0  0  0  0
 12 13  1  0  0  0  0
 13 17  1  0  0  0  0
  2 18  1  0  0  0  0
  2 19  1  0  0  0  0
  3 20  1  0  0  0  0
  3 21  1  0  0  0  0
  4 22  1  0  0  0  0
  4 23  1  0  0  0  0
  5 24  1  0  0  0  0
  5 25  1  0  0  0  0
  6 26  1  0  0  0  0
  7 27  1  0  0  0  0
  9 28  1  0  0  0  0
  9 29  1  0  0  0  0
  9 30  1  0  0  0  0
 10 31  1  0  0  0  0
 10 32  1  0  0  0  0
 10 33  1  0  0  0  0
 11 34  1  0  0  0  0
 11 35  1  0  0  0  0
 11 36  1  0  0  0  0
 12 37  1  0  0  0  0
 12 38  1  0  0  0  0
 12 39  1  0  0  0  0
 16 40  1  0  0  0  0
M  END
> <id>
EN300-7068257

> <smiles>
CC(C)(C)OC(=O)N1CC2CCC(C1)C2(C)O

> <IUPAC Name>
tert-butyl 8-hydroxy-8-methyl-3-azabicyclo[3.2.1]octane-3-carboxylate

> <CAS>
2757917-12-5

> <URL>
https://www.enaminestore.com/catalog/EN300-7068257

> <ROCS_ShapeQuery>
_x1247relevant_x1083L0AP1_x1305L0BP1_

> <ROCS_TanimotoCombo>
1.046 

> <ROCS_ShapeTanimoto>
0.530 

> <ROCS_ColorTanimoto>
0.517 

> <ROCS_RefTversky>
0.464 

> <ROCS_RefColorTversky>
0.686 

> <ROCS_RefTverskyCombo>
1.150 

> <ROCS_FitTversky>
1.363 

> <ROCS_FitColorTversky>
0.677 

> <ROCS_FitTverskyCombo>
2.040 

> <ROCS_ColorScore>
-6.632

> <ROCS_Overlap>
1146.792

> <ROCS_Rank>
172                 

$$$$
untitled-dbase-15101_0
  -OEChem-06232314403D

 22 23  0     1  0  0  0  0  0999 V2000
  -11.8090   14.2468  -37.3184 C   0  0  0  0  0  0  0  0  0  0  0  0
  -13.3093   13.9655  -37.4951 C   0  0  0  0  0  0  0  0  0  0  0  0
  -11.3382   15.7583  -39.3104 C   0  0  0  0  0  0  0  0  0  0  0  0
  -12.4186   15.0549  -40.1434 C   0  0  0  0  0  0  0  0  0  0  0  0
  -12.9703   16.3198  -37.4910 C   0  0  0  0  0  0  0  0  0  0  0  0
  -11.6103   15.6919  -37.7952 C   0  0  1  0  0  0  0  0  0  0  0  0
  -13.9101   15.2612  -38.0738 C   0  0  1  0  0  0  0  0  0  0  0  0
  -13.8206   15.3481  -39.6077 C   0  0  2  0  0  0  0  0  0  0  0  0
  -15.1155   14.1458  -40.4411 Br  0  0  0  0  0  0  0  0  0  0  0  0
  -11.5465   14.1601  -36.2572 H   0  0  0  0  0  0  0  0  0  0  0  0
  -11.1880   13.5313  -37.8673 H   0  0  0  0  0  0  0  0  0  0  0  0
  -13.4856   13.0851  -38.1196 H   0  0  0  0  0  0  0  0  0  0  0  0
  -13.7529   13.7578  -36.5135 H   0  0  0  0  0  0  0  0  0  0  0  0
  -10.3616   15.3141  -39.5362 H   0  0  0  0  0  0  0  0  0  0  0  0
  -11.2835   16.8113  -39.6145 H   0  0  0  0  0  0  0  0  0  0  0  0
  -12.3367   15.3651  -41.1924 H   0  0  0  0  0  0  0  0  0  0  0  0
  -12.2214   13.9752  -40.1374 H   0  0  0  0  0  0  0  0  0  0  0  0
  -13.1203   16.4212  -36.4091 H   0  0  0  0  0  0  0  0  0  0  0  0
  -13.0978   17.3074  -37.9468 H   0  0  0  0  0  0  0  0  0  0  0  0
  -10.8007   16.1886  -37.2512 H   0  0  0  0  0  0  0  0  0  0  0  0
  -14.9411   15.4078  -37.7343 H   0  0  0  0  0  0  0  0  0  0  0  0
  -14.1339   16.3471  -39.9340 H   0  0  0  0  0  0  0  0  0  0  0  0
  1  2  1  0  0  0  0
  1  6  1  0  0  0  0
  2  7  1  0  0  0  0
  3  4  1  0  0  0  0
  3  6  1  0  0  0  0
  4  8  1  0  0  0  0
  5  6  1  0  0  0  0
  5  7  1  0  0  0  0
  7  8  1  0  0  0  0
  8  9  1  0  0  0  0
  1 10  1  0  0  0  0
  1 11  1  0  0  0  0
  2 12  1  0  0  0  0
  2 13  1  0  0  0  0
  3 14  1  0  0  0  0
  3 15  1  0  0  0  0
  4 16  1  0  0  0  0
  4 17  1  0  0  0  0
  5 18  1  0  0  0  0
  5 19  1  0  0  0  0
  6 20  1  0  0  0  0
  7 21  1  0  0  0  0
  8 22  1  0  0  0  0
M  END
> <id>
EN300-843896

> <smiles>
BrC1CCC2CCC1C2

> <MDLNUMBER>
MFCD20626125

> <IUPAC Name>
2-bromobicyclo[3.2.1]octane

> <CAS>
565184-16-9

> <URL>
https://www.enaminestore.com/catalog/EN300-843896

> <ROCS_ShapeQuery>
_x1247relevant_x1083L0AP1_x1305L0BP1_

> <ROCS_TanimotoCombo>
1.046 

> <ROCS_ShapeTanimoto>
0.400 

> <ROCS_ColorTanimoto>
0.647 

> <ROCS_RefTversky>
0.341 

> <ROCS_RefColorTversky>
0.679 

> <ROCS_RefTverskyCombo>
1.020 

> <ROCS_FitTversky>
1.744 

> <ROCS_FitColorTversky>
0.931 

> <ROCS_FitTverskyCombo>
2.676 

> <ROCS_ColorScore>
-6.463

> <ROCS_Overlap>
837.007

> <ROCS_Rank>
173                 

$$$$
untitled-dbase-34701_0
  -OEChem-06232314403D

 28 30  0     1  0  0  0  0  0999 V2000
   -9.4106   14.6818  -36.6435 C   0  0  0  0  0  0  0  0  0  0  0  0
  -10.7098   13.9462  -36.3618 C   0  0  0  0  0  0  0  0  0  0  0  0
   -9.8820   15.9396  -37.3534 C   0  0  0  0  0  0  0  0  0  0  0  0
  -13.8869   14.0955  -38.6069 C   0  0  0  0  0  0  0  0  0  0  0  0
  -13.0678   15.9488  -37.1925 C   0  0  0  0  0  0  0  0  0  0  0  0
  -13.3849   14.8173  -39.8632 C   0  0  0  0  0  0  0  0  0  0  0  0
  -11.5394   14.1476  -37.6343 C   0  0  2  0  0  0  0  0  0  0  0  0
  -10.9924   15.4473  -38.2888 C   0  0  1  0  0  0  0  0  0  0  0  0
  -13.0330   14.4280  -37.3711 C   0  0  2  0  0  0  0  0  0  0  0  0
  -12.2059   16.3951  -38.3775 C   0  0  1  0  0  0  0  0  0  0  0  0
  -12.9906   16.2072  -39.6113 N   0  0  0  0  0  0  0  0  0  0  0  0
   -8.8522   14.9043  -35.7299 H   0  0  0  0  0  0  0  0  0  0  0  0
   -8.7695   14.0867  -37.3044 H   0  0  0  0  0  0  0  0  0  0  0  0
  -10.5410   12.8855  -36.1517 H   0  0  0  0  0  0  0  0  0  0  0  0
  -11.2044   14.3807  -35.4850 H   0  0  0  0  0  0  0  0  0  0  0  0
  -10.2598   16.6644  -36.6229 H   0  0  0  0  0  0  0  0  0  0  0  0
   -9.0713   16.4235  -37.9072 H   0  0  0  0  0  0  0  0  0  0  0  0
  -14.9270   14.3868  -38.4123 H   0  0  0  0  0  0  0  0  0  0  0  0
  -13.8867   13.0136  -38.7839 H   0  0  0  0  0  0  0  0  0  0  0  0
  -14.0828   16.3612  -37.2210 H   0  0  0  0  0  0  0  0  0  0  0  0
  -12.6171   16.2472  -36.2391 H   0  0  0  0  0  0  0  0  0  0  0  0
  -12.5371   14.2675  -40.2896 H   0  0  0  0  0  0  0  0  0  0  0  0
  -14.1694   14.8026  -40.6279 H   0  0  0  0  0  0  0  0  0  0  0  0
  -11.3975   13.2860  -38.2977 H   0  0  0  0  0  0  0  0  0  0  0  0
  -10.5592   15.2397  -39.2751 H   0  0  0  0  0  0  0  0  0  0  0  0
  -13.4163   13.8972  -36.4941 H   0  0  0  0  0  0  0  0  0  0  0  0
  -11.9218   17.4487  -38.2934 H   0  0  0  0  0  0  0  0  0  0  0  0
  -12.4561   16.5492  -40.4095 H   0  0  0  0  0  0  0  0  0  0  0  0
  1  2  1  0  0  0  0
  1  3  1  0  0  0  0
  2  7  1  0  0  0  0
  3  8  1  0  0  0  0
  4  6  1  0  0  0  0
  4  9  1  0  0  0  0
  5  9  1  0  0  0  0
  5 10  1  0  0  0  0
  6 11  1  0  0  0  0
  7  8  1  0  0  0  0
  7  9  1  0  0  0  0
  8 10  1  0  0  0  0
 10 11  1  0  0  0  0
  1 12  1  0  0  0  0
  1 13  1  0  0  0  0
  2 14  1  0  0  0  0
  2 15  1  0  0  0  0
  3 16  1  0  0  0  0
  3 17  1  0  0  0  0
  4 18  1  0  0  0  0
  4 19  1  0  0  0  0
  5 20  1  0  0  0  0
  5 21  1  0  0  0  0
  6 22  1  0  0  0  0
  6 23  1  0  0  0  0
  7 24  1  0  0  0  0
  8 25  1  0  0  0  0
  9 26  1  0  0  0  0
 10 27  1  0  0  0  0
 11 28  1  0  0  0  0
M  END
> <id>
EN300-37476097

> <smiles>
C1CC2C(C1)C3CC2CCN3

> <IUPAC Name>
8-azatricyclo[5.3.1.0,2,6]undecane

> <URL>
https://www.enaminestore.com/catalog/EN300-37476097

> <ROCS_ShapeQuery>
_x1247relevant_x1083L0AP1_x1305L0BP1_

> <ROCS_TanimotoCombo>
1.046 

> <ROCS_ShapeTanimoto>
0.501 

> <ROCS_ColorTanimoto>
0.546 

> <ROCS_RefTversky>
0.414 

> <ROCS_RefColorTversky>
0.682 

> <ROCS_RefTverskyCombo>
1.096 

> <ROCS_FitTversky>
1.717 

> <ROCS_FitColorTversky>
0.732 

> <ROCS_FitTverskyCombo>
2.449 

> <ROCS_ColorScore>
-6.565

> <ROCS_Overlap>
1017.586

> <ROCS_Rank>
174                 

$$$$
untitled-dbase-42135_0
  -OEChem-06232314403D

 22 24  0     0  0  0  0  0  0999 V2000
   -8.9572   14.8817  -36.6308 C   0  0  0  0  0  0  0  0  0  0  0  0
   -9.5600   15.7487  -37.5387 C   0  0  0  0  0  0  0  0  0  0  0  0
   -9.6789   13.8146  -36.0918 C   0  0  0  0  0  0  0  0  0  0  0  0
  -10.8893   15.5292  -37.8945 C   0  0  0  0  0  0  0  0  0  0  0  0
  -11.6493   14.4570  -37.3668 C   0  0  0  0  0  0  0  0  0  0  0  0
  -11.0122   13.6050  -36.4569 C   0  0  0  0  0  0  0  0  0  0  0  0
  -11.6146   16.4095  -38.8610 C   0  0  0  0  0  0  0  0  0  0  0  0
  -13.9449   15.6751  -37.8231 C   0  0  0  0  0  0  0  0  0  0  0  0
  -13.3170   14.4484  -39.4114 C   0  0  0  0  0  0  0  0  0  0  0  0
  -13.1620   14.3118  -37.8526 C   0  0  0  0  0  0  0  0  0  0  0  0
  -13.1228   15.9797  -39.1253 C   0  0  0  0  0  0  0  0  0  0  0  0
  -11.0338   17.3647  -39.3692 O   0  0  0  0  0  0  0  0  0  0  0  0
  -11.9092   12.1276  -35.6724 Br  0  0  0  0  0  0  0  0  0  0  0  0
   -7.9211   15.0351  -36.3417 H   0  0  0  0  0  0  0  0  0  0  0  0
   -8.9901   16.5743  -37.9528 H   0  0  0  0  0  0  0  0  0  0  0  0
   -9.1822   13.1530  -35.3859 H   0  0  0  0  0  0  0  0  0  0  0  0
  -15.0286   15.5920  -37.9675 H   0  0  0  0  0  0  0  0  0  0  0  0
  -13.7542   16.3273  -36.9659 H   0  0  0  0  0  0  0  0  0  0  0  0
  -12.5463   13.9680  -40.0205 H   0  0  0  0  0  0  0  0  0  0  0  0
  -14.3018   14.1719  -39.8063 H   0  0  0  0  0  0  0  0  0  0  0  0
  -13.7207   13.4745  -37.4267 H   0  0  0  0  0  0  0  0  0  0  0  0
  -13.6300   16.6399  -39.8358 H   0  0  0  0  0  0  0  0  0  0  0  0
  1  2  1  0  0  0  0
  1  3  2  0  0  0  0
  2  4  2  0  0  0  0
  3  6  1  0  0  0  0
  4  5  1  0  0  0  0
  4  7  1  0  0  0  0
  5  6  2  0  0  0  0
  5 10  1  0  0  0  0
  6 13  1  0  0  0  0
  7 11  1  0  0  0  0
  7 12  2  0  0  0  0
  8 10  1  0  0  0  0
  8 11  1  0  0  0  0
  9 10  1  0  0  0  0
  9 11  1  0  0  0  0
  1 14  1  0  0  0  0
  2 15  1  0  0  0  0
  3 16  1  0  0  0  0
  8 17  1  0  0  0  0
  8 18  1  0  0  0  0
  9 19  1  0  0  0  0
  9 20  1  0  0  0  0
 10 21  1  0  0  0  0
 11 22  1  0  0  0  0
M  END
> <id>
EN300-27695379

> <smiles>
BrC=1C=CC=C2C(=O)C3CC(C3)C12

> <MDLNUMBER>
MFCD32879156

> <IUPAC Name>
3-bromotricyclo[7.1.1.0,2,7]undeca-2(7),3,5-trien-8-one

> <CAS>
2567504-42-9

> <Purity>
95

> <URL>
https://www.enaminestore.com/catalog/EN300-27695379

> <ROCS_ShapeQuery>
_x1247relevant_x1083L0AP1_x1305L0BP1_

> <ROCS_TanimotoCombo>
1.046 

> <ROCS_ShapeTanimoto>
0.490 

> <ROCS_ColorTanimoto>
0.556 

> <ROCS_RefTversky>
0.419 

> <ROCS_RefColorTversky>
0.691 

> <ROCS_RefTverskyCombo>
1.110 

> <ROCS_FitTversky>
1.529 

> <ROCS_FitColorTversky>
0.740 

> <ROCS_FitTverskyCombo>
2.269 

> <ROCS_ColorScore>
-6.652

> <ROCS_Overlap>
1031.862

> <ROCS_Rank>
175                 

$$$$
untitled-dbase-51077_0
  -OEChem-06232314403D

 22 24  0     0  0  0  0  0  0999 V2000
   -8.9574   14.8818  -36.6305 C   0  0  0  0  0  0  0  0  0  0  0  0
   -9.5603   15.7491  -37.5380 C   0  0  0  0  0  0  0  0  0  0  0  0
   -9.6789   13.8142  -36.0922 C   0  0  0  0  0  0  0  0  0  0  0  0
  -10.8895   15.5294  -37.8941 C   0  0  0  0  0  0  0  0  0  0  0  0
  -11.6493   14.4567  -37.3671 C   0  0  0  0  0  0  0  0  0  0  0  0
  -11.0120   13.6044  -36.4576 C   0  0  0  0  0  0  0  0  0  0  0  0
  -11.6149   16.4100  -38.8603 C   0  0  0  0  0  0  0  0  0  0  0  0
  -13.3167   14.4488  -39.4119 C   0  0  0  0  0  0  0  0  0  0  0  0
  -13.9451   15.6745  -37.8230 C   0  0  0  0  0  0  0  0  0  0  0  0
  -13.1618   14.3114  -37.8532 C   0  0  0  0  0  0  0  0  0  0  0  0
  -13.1230   15.9800  -39.1250 C   0  0  0  0  0  0  0  0  0  0  0  0
  -11.0343   17.3650  -39.3691 O   0  0  0  0  0  0  0  0  0  0  0  0
  -11.9090   12.1269  -35.6733 Br  0  0  0  0  0  0  0  0  0  0  0  0
   -7.9223   15.0372  -36.3395 H   0  0  0  0  0  0  0  0  0  0  0  0
   -8.9912   16.5764  -37.9500 H   0  0  0  0  0  0  0  0  0  0  0  0
   -9.1824   13.1531  -35.3856 H   0  0  0  0  0  0  0  0  0  0  0  0
  -12.5457   13.9685  -40.0211 H   0  0  0  0  0  0  0  0  0  0  0  0
  -14.3015   14.1720  -39.8071 H   0  0  0  0  0  0  0  0  0  0  0  0
  -15.0287   15.5910  -37.9676 H   0  0  0  0  0  0  0  0  0  0  0  0
  -13.7542   16.3259  -36.9650 H   0  0  0  0  0  0  0  0  0  0  0  0
  -13.7202   13.4737  -37.4278 H   0  0  0  0  0  0  0  0  0  0  0  0
  -13.6302   16.6405  -39.8351 H   0  0  0  0  0  0  0  0  0  0  0  0
  1  2  1  0  0  0  0
  1  3  2  0  0  0  0
  2  4  2  0  0  0  0
  3  6  1  0  0  0  0
  4  5  1  0  0  0  0
  4  7  1  0  0  0  0
  5  6  2  0  0  0  0
  5 10  1  0  0  0  0
  6 13  1  0  0  0  0
  7 11  1  0  0  0  0
  7 12  2  0  0  0  0
  8 10  1  1  0  0  0
  8 11  1  1  0  0  0
  9 10  1  0  0  0  0
  9 11  1  0  0  0  0
  1 14  1  0  0  0  0
  2 15  1  0  0  0  0
  3 16  1  0  0  0  0
  8 17  1  0  0  0  0
  8 18  1  0  0  0  0
  9 19  1  0  0  0  0
  9 20  1  0  0  0  0
 10 21  1  0  0  0  0
 11 22  1  0  0  0  0
M  END
> <id>
EN300-37375413

> <smiles>
BrC=1C=CC=C2C(=O)[C@H]3C[C@H](C3)C12

> <IUPAC Name>
(1s,9s)-3-bromotricyclo[7.1.1.0,2,7]undeca-2(7),3,5-trien-8-one

> <CAS>
2567504-42-9

> <URL>
https://www.enaminestore.com/catalog/EN300-37375413

> <ROCS_ShapeQuery>
_x1247relevant_x1083L0AP1_x1305L0BP1_

> <ROCS_TanimotoCombo>
1.046 

> <ROCS_ShapeTanimoto>
0.490 

> <ROCS_ColorTanimoto>
0.556 

> <ROCS_RefTversky>
0.419 

> <ROCS_RefColorTversky>
0.691 

> <ROCS_RefTverskyCombo>
1.110 

> <ROCS_FitTversky>
1.529 

> <ROCS_FitColorTversky>
0.740 

> <ROCS_FitTverskyCombo>
2.269 

> <ROCS_ColorScore>
-6.652

> <ROCS_Overlap>
1031.859

> <ROCS_Rank>
176                 

$$$$
untitled-dbase-32075_1
  -OEChem-06232314403D

 24 26  0     1  0  0  0  0  0999 V2000
  -12.5812   14.6062  -39.6645 C   0  0  0  0  0  0  0  0  0  0  0  0
  -12.3062   15.9157  -39.5968 C   0  0  0  0  0  0  0  0  0  0  0  0
  -10.5476   13.5807  -37.6595 C   0  0  0  0  0  0  0  0  0  0  0  0
   -9.5213   14.4850  -36.9815 C   0  0  0  0  0  0  0  0  0  0  0  0
  -13.7942   15.4674  -37.9180 C   0  0  0  0  0  0  0  0  0  0  0  0
  -13.0462   14.1761  -38.2973 C   0  0  2  0  0  0  0  0  0  0  0  0
  -12.5708   16.3722  -38.1810 C   0  0  1  0  0  0  0  0  0  0  0  0
  -11.8775   14.2241  -37.2862 C   0  0  2  0  0  0  0  0  0  0  0  0
  -11.5838   15.7558  -37.1542 C   0  0  1  0  0  0  0  0  0  0  0  0
  -10.0624   15.9042  -37.1671 C   0  0  2  0  0  0  0  0  0  0  0  0
   -9.2865   16.7270  -38.7386 Br  0  0  0  0  0  0  0  0  0  0  0  0
  -12.4449   13.9668  -40.5227 H   0  0  0  0  0  0  0  0  0  0  0  0
  -11.9191   16.5274  -40.3999 H   0  0  0  0  0  0  0  0  0  0  0  0
  -10.3881   13.4924  -38.7261 H   0  0  0  0  0  0  0  0  0  0  0  0
  -10.4918   12.5908  -37.2135 H   0  0  0  0  0  0  0  0  0  0  0  0
   -9.4063   14.2336  -35.9175 H   0  0  0  0  0  0  0  0  0  0  0  0
   -8.5284   14.3582  -37.4344 H   0  0  0  0  0  0  0  0  0  0  0  0
  -14.6487   15.6871  -38.5713 H   0  0  0  0  0  0  0  0  0  0  0  0
  -14.1321   15.4843  -36.8756 H   0  0  0  0  0  0  0  0  0  0  0  0
  -13.6544   13.2736  -38.2833 H   0  0  0  0  0  0  0  0  0  0  0  0
  -12.7780   17.4348  -38.0703 H   0  0  0  0  0  0  0  0  0  0  0  0
  -12.2228   13.8309  -36.3121 H   0  0  0  0  0  0  0  0  0  0  0  0
  -11.9463   16.0819  -36.1276 H   0  0  0  0  0  0  0  0  0  0  0  0
   -9.7385   16.5086  -36.3227 H   0  0  0  0  0  0  0  0  0  0  0  0
  1  2  2  0  0  0  0
  1  6  1  1  0  0  0
  2  7  1  1  0  0  0
  3  4  1  0  0  0  0
  3  8  1  1  0  0  0
  4 10  1  0  0  0  0
  5  6  1  0  0  0  0
  5  7  1  0  0  0  0
  6  8  1  0  0  0  0
  7  9  1  0  0  0  0
  8  9  1  0  0  0  0
  9 10  1  1  0  0  0
 10 11  1  1  0  0  0
  1 12  1  0  0  0  0
  2 13  1  0  0  0  0
  3 14  1  0  0  0  0
  3 15  1  0  0  0  0
  4 16  1  0  0  0  0
  4 17  1  0  0  0  0
  5 18  1  0  0  0  0
  5 19  1  0  0  0  0
  6 20  1  0  0  0  0
  7 21  1  0  0  0  0
  8 22  1  0  0  0  0
  9 23  1  0  0  0  0
 10 24  1  0  0  0  0
M  END
> <id>
EN300-26975684

> <smiles>
Br[C@@H]1CC[C@@H]2[C@H]3C[C@H](C=C3)[C@H]12 |&1:1,4,5,7,10,r|

> <IUPAC Name>
rac-(1R,2S,3R,6R,7S)-3-bromotricyclo[5.2.1.0,2,6]dec-8-ene

> <CAS>
2445750-72-9

> <Purity>
95

> <URL>
https://www.enaminestore.com/catalog/EN300-26975684

> <ROCS_ShapeQuery>
_x1247relevant_x1083L0AP1_x1305L0BP1_

> <ROCS_TanimotoCombo>
1.045 

> <ROCS_ShapeTanimoto>
0.473 

> <ROCS_ColorTanimoto>
0.573 

> <ROCS_RefTversky>
0.398 

> <ROCS_RefColorTversky>
0.687 

> <ROCS_RefTverskyCombo>
1.085 

> <ROCS_FitTversky>
1.655 

> <ROCS_FitColorTversky>
0.775 

> <ROCS_FitTverskyCombo>
2.430 

> <ROCS_ColorScore>
-6.602

> <ROCS_Overlap>
978.399

> <ROCS_Rank>
177                 

$$$$
untitled-dbase-20228_0
  -OEChem-06232314403D

 26 27  0     0  0  0  0  0  0999 V2000
  -11.0227   15.5511  -38.6840 C   0  0  0  0  0  0  0  0  0  0  0  0
  -12.6348   15.7889  -36.7798 C   0  0  0  0  0  0  0  0  0  0  0  0
  -12.4906   13.6253  -38.0377 C   0  0  0  0  0  0  0  0  0  0  0  0
  -12.1034   16.0438  -39.6544 C   0  0  0  0  0  0  0  0  0  0  0  0
  -13.7097   16.2816  -37.7567 C   0  0  0  0  0  0  0  0  0  0  0  0
  -13.5652   14.1234  -39.0123 C   0  0  0  0  0  0  0  0  0  0  0  0
  -11.6650   14.8120  -37.4863 C   0  0  0  0  0  0  0  0  0  0  0  0
  -13.4977   15.6530  -39.1427 C   0  0  0  0  0  0  0  0  0  0  0  0
  -10.5914   14.3193  -36.5155 C   0  0  0  0  0  0  0  0  0  0  0  0
  -14.4826   16.1160  -40.0520 O   0  0  0  0  0  0  0  0  0  0  0  0
  -10.3284   14.8886  -39.2161 H   0  0  0  0  0  0  0  0  0  0  0  0
  -10.4293   16.4052  -38.3340 H   0  0  0  0  0  0  0  0  0  0  0  0
  -12.0858   16.6493  -36.3768 H   0  0  0  0  0  0  0  0  0  0  0  0
  -13.1158   15.2992  -35.9239 H   0  0  0  0  0  0  0  0  0  0  0  0
  -12.9680   13.0760  -37.2165 H   0  0  0  0  0  0  0  0  0  0  0  0
  -11.8366   12.9090  -38.5508 H   0  0  0  0  0  0  0  0  0  0  0  0
  -12.0338   17.1318  -39.7799 H   0  0  0  0  0  0  0  0  0  0  0  0
  -11.9336   15.6263  -40.6550 H   0  0  0  0  0  0  0  0  0  0  0  0
  -14.7089   16.0376  -37.3742 H   0  0  0  0  0  0  0  0  0  0  0  0
  -13.6865   17.3766  -37.8265 H   0  0  0  0  0  0  0  0  0  0  0  0
  -13.4366   13.6506  -39.9943 H   0  0  0  0  0  0  0  0  0  0  0  0
  -14.5603   13.8116  -38.6699 H   0  0  0  0  0  0  0  0  0  0  0  0
  -11.0603   13.8026  -35.6805 H   0  0  0  0  0  0  0  0  0  0  0  0
  -10.0212   15.1657  -36.1380 H   0  0  0  0  0  0  0  0  0  0  0  0
   -9.9189   13.6345  -37.0283 H   0  0  0  0  0  0  0  0  0  0  0  0
  -15.3460   15.8501  -39.6940 H   0  0  0  0  0  0  0  0  0  0  0  0
  1  4  1  0  0  0  0
  1  7  1  0  0  0  0
  2  5  1  0  0  0  0
  2  7  1  0  0  0  0
  3  6  1  0  0  0  0
  3  7  1  0  0  0  0
  4  8  1  0  0  0  0
  5  8  1  0  0  0  0
  6  8  1  0  0  0  0
  7  9  1  0  0  0  0
  8 10  1  0  0  0  0
  1 11  1  0  0  0  0
  1 12  1  0  0  0  0
  2 13  1  0  0  0  0
  2 14  1  0  0  0  0
  3 15  1  0  0  0  0
  3 16  1  0  0  0  0
  4 17  1  0  0  0  0
  4 18  1  0  0  0  0
  5 19  1  0  0  0  0
  5 20  1  0  0  0  0
  6 21  1  0  0  0  0
  6 22  1  0  0  0  0
  9 23  1  0  0  0  0
  9 24  1  0  0  0  0
  9 25  1  0  0  0  0
 10 26  1  0  0  0  0
M  END
> <id>
EN300-106636

> <smiles>
CC1(CCC2(O)CC1)CC2

> <IUPAC Name>
4-methylbicyclo[2.2.2]octan-1-ol

> <CAS>
824-13-5

> <URL>
https://www.enaminestore.com/catalog/EN300-106636

> <ROCS_ShapeQuery>
_x1247relevant_x1083L0AP1_x1305L0BP1_

> <ROCS_TanimotoCombo>
1.045 

> <ROCS_ShapeTanimoto>
0.453 

> <ROCS_ColorTanimoto>
0.593 

> <ROCS_RefTversky>
0.380 

> <ROCS_RefColorTversky>
0.686 

> <ROCS_RefTverskyCombo>
1.066 

> <ROCS_FitTversky>
1.736 

> <ROCS_FitColorTversky>
0.814 

> <ROCS_FitTverskyCombo>
2.549 

> <ROCS_ColorScore>
-6.571

> <ROCS_Overlap>
932.415

> <ROCS_Rank>
178                 

$$$$
untitled-dbase-51512_0
  -OEChem-06232314403D

 21 22  0     1  0  0  0  0  0999 V2000
  -12.8713   14.9586  -36.7970 C   0  0  0  0  0  0  0  0  0  0  0  0
  -13.8358   15.8711  -37.5698 C   0  0  0  0  0  0  0  0  0  0  0  0
  -13.0080   14.1906  -39.0518 C   0  0  0  0  0  0  0  0  0  0  0  0
  -11.0664   15.4673  -38.4462 C   0  0  0  0  0  0  0  0  0  0  0  0
  -11.9961   14.3588  -37.9111 C   0  0  1  0  0  0  0  0  0  0  0  0
  -13.3989   15.6717  -39.0364 C   0  0  2  0  0  0  0  0  0  0  0  0
  -12.0288   16.3319  -39.2613 C   0  0  0  0  0  0  0  0  0  0  0  0
  -14.4003   16.0726  -39.9969 N   0  0  0  0  0  0  0  0  0  0  0  0
  -12.0068   17.6203  -38.8734 F   0  0  0  0  0  0  0  0  0  0  0  0
  -11.6781   16.2903  -40.5685 F   0  0  0  0  0  0  0  0  0  0  0  0
  -12.2895   15.5106  -36.0521 H   0  0  0  0  0  0  0  0  0  0  0  0
  -13.4318   14.1725  -36.2785 H   0  0  0  0  0  0  0  0  0  0  0  0
  -14.8682   15.5399  -37.4042 H   0  0  0  0  0  0  0  0  0  0  0  0
  -13.7617   16.9144  -37.2456 H   0  0  0  0  0  0  0  0  0  0  0  0
  -12.5464   13.8653  -39.9905 H   0  0  0  0  0  0  0  0  0  0  0  0
  -13.8336   13.5166  -38.7970 H   0  0  0  0  0  0  0  0  0  0  0  0
  -10.5807   16.0247  -37.6398 H   0  0  0  0  0  0  0  0  0  0  0  0
  -10.2969   15.0351  -39.0948 H   0  0  0  0  0  0  0  0  0  0  0  0
  -11.4680   13.4517  -37.6107 H   0  0  0  0  0  0  0  0  0  0  0  0
  -15.2265   15.5326  -39.8521 H   0  0  0  0  0  0  0  0  0  0  0  0
  -14.6025   17.0415  -39.8719 H   0  0  0  0  0  0  0  0  0  0  0  0
  1  2  1  0  0  0  0
  1  5  1  0  0  0  0
  2  6  1  0  0  0  0
  3  5  1  0  0  0  0
  3  6  1  0  0  0  0
  4  5  1  0  0  0  0
  4  7  1  0  0  0  0
  6  7  1  0  0  0  0
  6  8  1  0  0  0  0
  7  9  1  0  0  0  0
  7 10  1  0  0  0  0
  1 11  1  0  0  0  0
  1 12  1  0  0  0  0
  2 13  1  0  0  0  0
  2 14  1  0  0  0  0
  3 15  1  0  0  0  0
  3 16  1  0  0  0  0
  4 17  1  0  0  0  0
  4 18  1  0  0  0  0
  5 19  1  0  0  0  0
  8 20  1  0  0  0  0
  8 21  1  0  0  0  0
M  END
> <id>
EN300-43346557

> <smiles>
Cl.NC1(CCC2CC1(F)F)C2

> <IUPAC Name>
2,2-difluorobicyclo[2.2.1]heptan-1-amine hydrochloride

> <Purity>
95

> <URL>
https://www.enaminestore.com/catalog/EN300-43346557

> <Saltdate>
Cl

> <ROCS_ShapeQuery>
_x1247relevant_x1083L0AP1_x1305L0BP1_

> <ROCS_TanimotoCombo>
1.045 

> <ROCS_ShapeTanimoto>
0.433 

> <ROCS_ColorTanimoto>
0.612 

> <ROCS_RefTversky>
0.371 

> <ROCS_RefColorTversky>
0.711 

> <ROCS_RefTverskyCombo>
1.082 

> <ROCS_FitTversky>
1.630 

> <ROCS_FitColorTversky>
0.814 

> <ROCS_FitTverskyCombo>
2.444 

> <ROCS_ColorScore>
-6.827

> <ROCS_Overlap>
911.564

> <ROCS_Rank>
179                 

$$$$
untitled-dbase-51499_0
  -OEChem-06232314403D

 21 22  0     1  0  0  0  0  0999 V2000
  -12.8713   14.9586  -36.7970 C   0  0  0  0  0  0  0  0  0  0  0  0
  -13.8358   15.8711  -37.5698 C   0  0  0  0  0  0  0  0  0  0  0  0
  -13.0080   14.1906  -39.0518 C   0  0  0  0  0  0  0  0  0  0  0  0
  -11.0664   15.4673  -38.4462 C   0  0  0  0  0  0  0  0  0  0  0  0
  -11.9961   14.3588  -37.9111 C   0  0  1  0  0  0  0  0  0  0  0  0
  -13.3989   15.6717  -39.0364 C   0  0  2  0  0  0  0  0  0  0  0  0
  -12.0288   16.3319  -39.2613 C   0  0  0  0  0  0  0  0  0  0  0  0
  -14.4003   16.0726  -39.9969 N   0  0  0  0  0  0  0  0  0  0  0  0
  -12.0068   17.6203  -38.8734 F   0  0  0  0  0  0  0  0  0  0  0  0
  -11.6781   16.2903  -40.5685 F   0  0  0  0  0  0  0  0  0  0  0  0
  -12.2895   15.5106  -36.0521 H   0  0  0  0  0  0  0  0  0  0  0  0
  -13.4318   14.1725  -36.2785 H   0  0  0  0  0  0  0  0  0  0  0  0
  -14.8682   15.5399  -37.4042 H   0  0  0  0  0  0  0  0  0  0  0  0
  -13.7617   16.9144  -37.2456 H   0  0  0  0  0  0  0  0  0  0  0  0
  -12.5464   13.8653  -39.9905 H   0  0  0  0  0  0  0  0  0  0  0  0
  -13.8336   13.5166  -38.7970 H   0  0  0  0  0  0  0  0  0  0  0  0
  -10.5807   16.0247  -37.6398 H   0  0  0  0  0  0  0  0  0  0  0  0
  -10.2969   15.0351  -39.0948 H   0  0  0  0  0  0  0  0  0  0  0  0
  -11.4680   13.4517  -37.6107 H   0  0  0  0  0  0  0  0  0  0  0  0
  -15.2265   15.5326  -39.8521 H   0  0  0  0  0  0  0  0  0  0  0  0
  -14.6025   17.0415  -39.8719 H   0  0  0  0  0  0  0  0  0  0  0  0
  1  2  1  0  0  0  0
  1  5  1  0  0  0  0
  2  6  1  0  0  0  0
  3  5  1  0  0  0  0
  3  6  1  0  0  0  0
  4  5  1  0  0  0  0
  4  7  1  0  0  0  0
  6  7  1  0  0  0  0
  6  8  1  0  0  0  0
  7  9  1  0  0  0  0
  7 10  1  0  0  0  0
  1 11  1  0  0  0  0
  1 12  1  0  0  0  0
  2 13  1  0  0  0  0
  2 14  1  0  0  0  0
  3 15  1  0  0  0  0
  3 16  1  0  0  0  0
  4 17  1  0  0  0  0
  4 18  1  0  0  0  0
  5 19  1  0  0  0  0
  8 20  1  0  0  0  0
  8 21  1  0  0  0  0
M  END
> <id>
EN300-37476096

> <smiles>
NC1(CCC2CC1(F)F)C2

> <IUPAC Name>
2,2-difluorobicyclo[2.2.1]heptan-1-amine

> <URL>
https://www.enaminestore.com/catalog/EN300-37476096

> <ROCS_ShapeQuery>
_x1247relevant_x1083L0AP1_x1305L0BP1_

> <ROCS_TanimotoCombo>
1.045 

> <ROCS_ShapeTanimoto>
0.433 

> <ROCS_ColorTanimoto>
0.612 

> <ROCS_RefTversky>
0.371 

> <ROCS_RefColorTversky>
0.711 

> <ROCS_RefTverskyCombo>
1.082 

> <ROCS_FitTversky>
1.630 

> <ROCS_FitColorTversky>
0.814 

> <ROCS_FitTverskyCombo>
2.444 

> <ROCS_ColorScore>
-6.827

> <ROCS_Overlap>
911.564

> <ROCS_Rank>
180                 

$$$$
untitled-dbase-52656_0
  -OEChem-06232314403D

 25 27  0     1  0  0  0  0  0999 V2000
  -14.0525   14.2278  -37.6085 C   0  0  0  0  0  0  0  0  0  0  0  0
  -14.0929   15.6877  -37.1470 C   0  0  0  0  0  0  0  0  0  0  0  0
  -10.6552   16.2698  -38.7978 C   0  0  0  0  0  0  0  0  0  0  0  0
  -11.8510   13.9560  -38.8902 C   0  0  0  0  0  0  0  0  0  0  0  0
  -11.7760   16.3043  -37.7948 C   0  0  1  0  0  0  0  0  0  0  0  0
  -13.3587   14.2684  -38.9745 C   0  0  2  0  0  0  0  0  0  0  0  0
  -13.2306   16.4229  -38.1723 C   0  0  1  0  0  0  0  0  0  0  0  0
  -11.0731   14.9928  -38.0896 C   0  0  2  0  0  0  0  0  0  0  0  0
  -10.1458   14.4320  -37.0489 C   0  0  0  0  0  0  0  0  0  0  0  0
  -13.5585   15.6624  -39.3850 N   0  0  0  0  0  0  0  0  0  0  0  0
   -9.9493   15.3165  -36.0477 F   0  0  0  0  0  0  0  0  0  0  0  0
  -10.6496   13.3011  -36.5099 F   0  0  0  0  0  0  0  0  0  0  0  0
   -8.9412   14.1359  -37.5825 F   0  0  0  0  0  0  0  0  0  0  0  0
  -13.5242   13.5932  -36.8890 H   0  0  0  0  0  0  0  0  0  0  0  0
  -15.0767   13.8478  -37.7009 H   0  0  0  0  0  0  0  0  0  0  0  0
  -15.1270   16.0527  -37.1825 H   0  0  0  0  0  0  0  0  0  0  0  0
  -13.7317   15.7943  -36.1189 H   0  0  0  0  0  0  0  0  0  0  0  0
  -10.8779   16.3845  -39.8509 H   0  0  0  0  0  0  0  0  0  0  0  0
   -9.7163   16.7322  -38.5124 H   0  0  0  0  0  0  0  0  0  0  0  0
  -11.7189   12.9602  -38.4493 H   0  0  0  0  0  0  0  0  0  0  0  0
  -11.4293   13.9047  -39.9023 H   0  0  0  0  0  0  0  0  0  0  0  0
  -11.5660   16.8046  -36.8550 H   0  0  0  0  0  0  0  0  0  0  0  0
  -13.8376   13.5757  -39.6743 H   0  0  0  0  0  0  0  0  0  0  0  0
  -13.5168   17.4748  -38.2652 H   0  0  0  0  0  0  0  0  0  0  0  0
  -12.9516   15.9140  -40.1618 H   0  0  0  0  0  0  0  0  0  0  0  0
  1  2  1  0  0  0  0
  1  6  1  1  0  0  0
  2  7  1  1  0  0  0
  3  5  1  6  0  0  0
  3  8  1  0  0  0  0
  4  6  1  0  0  0  0
  4  8  1  0  0  0  0
  5  7  1  0  0  0  0
  5  8  1  0  0  0  0
  6 10  1  0  0  0  0
  7 10  1  0  0  0  0
  8  9  1  1  0  0  0
  9 11  1  0  0  0  0
  9 12  1  0  0  0  0
  9 13  1  0  0  0  0
  1 14  1  0  0  0  0
  1 15  1  0  0  0  0
  2 16  1  0  0  0  0
  2 17  1  0  0  0  0
  3 18  1  0  0  0  0
  3 19  1  0  0  0  0
  4 20  1  0  0  0  0
  4 21  1  0  0  0  0
  5 22  1  0  0  0  0
  6 23  1  0  0  0  0
  7 24  1  0  0  0  0
 10 25  1  0  0  0  0
M  END
> <id>
EN300-45168638

> <smiles>
FC(F)(F)[C@@]12C[C@H]2[C@@H]3CC[C@H](C1)N3 |&1:4,6,7,10,r|

> <IUPAC Name>
rac-(1R,2S,4R,6S)-4-(trifluoromethyl)-9-azatricyclo[4.2.1.0,2,4]nonane

> <Purity>
95

> <URL>
https://www.enaminestore.com/catalog/EN300-45168638

> <ROCS_ShapeQuery>
_x1247relevant_x1083L0AP1_x1305L0BP1_

> <ROCS_TanimotoCombo>
1.045 

> <ROCS_ShapeTanimoto>
0.505 

> <ROCS_ColorTanimoto>
0.541 

> <ROCS_RefTversky>
0.430 

> <ROCS_RefColorTversky>
0.774 

> <ROCS_RefTverskyCombo>
1.204 

> <ROCS_FitTversky>
1.522 

> <ROCS_FitColorTversky>
0.642 

> <ROCS_FitTverskyCombo>
2.164 

> <ROCS_ColorScore>
-7.564

> <ROCS_Overlap>
1059.614

> <ROCS_Rank>
181                 

$$$$
untitled-dbase-52073_0
  -OEChem-06232314403D

 25 27  0     1  0  0  0  0  0999 V2000
  -14.0525   14.2278  -37.6085 C   0  0  0  0  0  0  0  0  0  0  0  0
  -14.0929   15.6877  -37.1470 C   0  0  0  0  0  0  0  0  0  0  0  0
  -10.6552   16.2698  -38.7978 C   0  0  0  0  0  0  0  0  0  0  0  0
  -11.8510   13.9560  -38.8902 C   0  0  0  0  0  0  0  0  0  0  0  0
  -11.7760   16.3043  -37.7948 C   0  0  1  0  0  0  0  0  0  0  0  0
  -13.3587   14.2684  -38.9745 C   0  0  2  0  0  0  0  0  0  0  0  0
  -13.2306   16.4229  -38.1723 C   0  0  1  0  0  0  0  0  0  0  0  0
  -11.0731   14.9928  -38.0896 C   0  0  2  0  0  0  0  0  0  0  0  0
  -10.1458   14.4320  -37.0489 C   0  0  0  0  0  0  0  0  0  0  0  0
  -13.5585   15.6624  -39.3850 N   0  0  0  0  0  0  0  0  0  0  0  0
   -9.9493   15.3165  -36.0477 F   0  0  0  0  0  0  0  0  0  0  0  0
  -10.6496   13.3011  -36.5099 F   0  0  0  0  0  0  0  0  0  0  0  0
   -8.9412   14.1359  -37.5825 F   0  0  0  0  0  0  0  0  0  0  0  0
  -13.5242   13.5932  -36.8890 H   0  0  0  0  0  0  0  0  0  0  0  0
  -15.0767   13.8478  -37.7009 H   0  0  0  0  0  0  0  0  0  0  0  0
  -15.1270   16.0527  -37.1825 H   0  0  0  0  0  0  0  0  0  0  0  0
  -13.7317   15.7943  -36.1189 H   0  0  0  0  0  0  0  0  0  0  0  0
  -10.8779   16.3845  -39.8509 H   0  0  0  0  0  0  0  0  0  0  0  0
   -9.7163   16.7322  -38.5124 H   0  0  0  0  0  0  0  0  0  0  0  0
  -11.7189   12.9602  -38.4493 H   0  0  0  0  0  0  0  0  0  0  0  0
  -11.4293   13.9047  -39.9023 H   0  0  0  0  0  0  0  0  0  0  0  0
  -11.5660   16.8046  -36.8550 H   0  0  0  0  0  0  0  0  0  0  0  0
  -13.8376   13.5757  -39.6743 H   0  0  0  0  0  0  0  0  0  0  0  0
  -13.5168   17.4748  -38.2652 H   0  0  0  0  0  0  0  0  0  0  0  0
  -12.9516   15.9140  -40.1618 H   0  0  0  0  0  0  0  0  0  0  0  0
  1  2  1  0  0  0  0
  1  6  1  1  0  0  0
  2  7  1  1  0  0  0
  3  5  1  6  0  0  0
  3  8  1  0  0  0  0
  4  6  1  0  0  0  0
  4  8  1  0  0  0  0
  5  7  1  0  0  0  0
  5  8  1  0  0  0  0
  6 10  1  0  0  0  0
  7 10  1  0  0  0  0
  8  9  1  1  0  0  0
  9 11  1  0  0  0  0
  9 12  1  0  0  0  0
  9 13  1  0  0  0  0
  1 14  1  0  0  0  0
  1 15  1  0  0  0  0
  2 16  1  0  0  0  0
  2 17  1  0  0  0  0
  3 18  1  0  0  0  0
  3 19  1  0  0  0  0
  4 20  1  0  0  0  0
  4 21  1  0  0  0  0
  5 22  1  0  0  0  0
  6 23  1  0  0  0  0
  7 24  1  0  0  0  0
 10 25  1  0  0  0  0
M  END
> <id>
EN300-44832739

> <smiles>
FC(F)(F)[C@@]12C[C@H]2[C@@H]3CC[C@H](C1)N3

> <IUPAC Name>
(1S,2R,4S,6R)-4-(trifluoromethyl)-9-azatricyclo[4.2.1.0,2,4]nonane

> <URL>
https://www.enaminestore.com/catalog/EN300-44832739

> <ROCS_ShapeQuery>
_x1247relevant_x1083L0AP1_x1305L0BP1_

> <ROCS_TanimotoCombo>
1.045 

> <ROCS_ShapeTanimoto>
0.505 

> <ROCS_ColorTanimoto>
0.541 

> <ROCS_RefTversky>
0.430 

> <ROCS_RefColorTversky>
0.774 

> <ROCS_RefTverskyCombo>
1.204 

> <ROCS_FitTversky>
1.522 

> <ROCS_FitColorTversky>
0.642 

> <ROCS_FitTverskyCombo>
2.164 

> <ROCS_ColorScore>
-7.564

> <ROCS_Overlap>
1059.614

> <ROCS_Rank>
182                 

$$$$
untitled-dbase-25530_0
  -OEChem-06232314403D

 20 21  0     1  0  0  0  0  0999 V2000
  -12.0323   14.5734  -39.3373 C   0  0  0  0  0  0  0  0  0  0  0  0
  -14.0628   14.7399  -38.1022 C   0  0  0  0  0  0  0  0  0  0  0  0
  -11.5665   16.2607  -37.7220 C   0  0  0  0  0  0  0  0  0  0  0  0
  -12.6532   14.1298  -38.0121 C   0  0  2  0  0  0  0  0  0  0  0  0
  -12.2885   16.0585  -39.0656 C   0  0  2  0  0  0  0  0  0  0  0  0
  -13.8094   16.0786  -38.8154 C   0  0  1  0  0  0  0  0  0  0  0  0
  -11.8200   14.9312  -37.0011 C   0  0  1  0  0  0  0  0  0  0  0  0
  -14.5165   16.1055  -40.0473 O   0  0  0  0  0  0  0  0  0  0  0  0
  -10.6303   14.3012  -36.8100 F   0  0  0  0  0  0  0  0  0  0  0  0
  -10.9683   14.3283  -39.4213 H   0  0  0  0  0  0  0  0  0  0  0  0
  -12.5659   14.1914  -40.2138 H   0  0  0  0  0  0  0  0  0  0  0  0
  -14.7324   14.0943  -38.6816 H   0  0  0  0  0  0  0  0  0  0  0  0
  -14.4979   14.8868  -37.1082 H   0  0  0  0  0  0  0  0  0  0  0  0
  -10.4933   16.4217  -37.8706 H   0  0  0  0  0  0  0  0  0  0  0  0
  -11.9746   17.1118  -37.1677 H   0  0  0  0  0  0  0  0  0  0  0  0
  -12.6375   13.0520  -37.8394 H   0  0  0  0  0  0  0  0  0  0  0  0
  -11.9550   16.7277  -39.8616 H   0  0  0  0  0  0  0  0  0  0  0  0
  -14.1335   16.9324  -38.2118 H   0  0  0  0  0  0  0  0  0  0  0  0
  -12.3052   15.0544  -36.0288 H   0  0  0  0  0  0  0  0  0  0  0  0
  -14.3282   16.9639  -40.4604 H   0  0  0  0  0  0  0  0  0  0  0  0
  1  4  1  0  0  0  0
  1  5  1  0  0  0  0
  2  4  1  0  0  0  0
  2  6  1  0  0  0  0
  3  5  1  0  0  0  0
  3  7  1  0  0  0  0
  4  7  1  0  0  0  0
  5  6  1  0  0  0  0
  6  8  1  0  0  0  0
  7  9  1  0  0  0  0
  1 10  1  0  0  0  0
  1 11  1  0  0  0  0
  2 12  1  0  0  0  0
  2 13  1  0  0  0  0
  3 14  1  0  0  0  0
  3 15  1  0  0  0  0
  4 16  1  0  0  0  0
  5 17  1  0  0  0  0
  6 18  1  0  0  0  0
  7 19  1  0  0  0  0
  8 20  1  0  0  0  0
M  END
> <id>
EN300-6499858

> <smiles>
OC1CC2CC1CC2F

> <MDLNUMBER>
MFCD31719743

> <IUPAC Name>
5-fluorobicyclo[2.2.1]heptan-2-ol

> <CAS>
2253638-53-6

> <Purity>
95

> <URL>
https://www.enaminestore.com/catalog/EN300-6499858

> <ROCS_ShapeQuery>
_x1247relevant_x1083L0AP1_x1305L0BP1_

> <ROCS_TanimotoCombo>
1.045 

> <ROCS_ShapeTanimoto>
0.428 

> <ROCS_ColorTanimoto>
0.617 

> <ROCS_RefTversky>
0.361 

> <ROCS_RefColorTversky>
0.715 

> <ROCS_RefTverskyCombo>
1.077 

> <ROCS_FitTversky>
1.755 

> <ROCS_FitColorTversky>
0.818 

> <ROCS_FitTverskyCombo>
2.573 

> <ROCS_ColorScore>
-6.863

> <ROCS_Overlap>
886.753

> <ROCS_Rank>
183                 

$$$$
untitled-dbase-19273_1
  -OEChem-06232314403D

 19 21  0     1  0  0  0  0  0999 V2000
  -12.3916   14.6802  -39.6793 C   0  0  0  0  0  0  0  0  0  0  0  0
  -12.1834   15.9951  -39.5199 C   0  0  0  0  0  0  0  0  0  0  0  0
  -13.8618   15.3990  -38.0490 C   0  0  0  0  0  0  0  0  0  0  0  0
  -13.0122   14.1672  -38.3998 C   0  0  2  0  0  0  0  0  0  0  0  0
  -12.6649   16.3592  -38.1338 C   0  0  1  0  0  0  0  0  0  0  0  0
  -11.9685   14.2195  -37.2569 C   0  0  2  0  0  0  0  0  0  0  0  0
  -11.7298   15.7262  -37.0740 C   0  0  1  0  0  0  0  0  0  0  0  0
   -8.7279   14.3689  -36.2605 O   0  0  0  0  0  0  0  0  0  0  0  0
  -10.7370   13.5991  -37.5646 O   0  0  0  0  0  0  0  0  0  0  0  0
  -10.3574   15.9957  -37.2739 O   0  0  0  0  0  0  0  0  0  0  0  0
   -9.5064   14.6440  -37.5128 S   0  0  0  0  0  0  0  0  0  0  0  0
  -12.1159   14.0867  -40.5361 H   0  0  0  0  0  0  0  0  0  0  0  0
  -11.7090   16.6591  -40.2243 H   0  0  0  0  0  0  0  0  0  0  0  0
  -14.6476   15.6127  -38.7845 H   0  0  0  0  0  0  0  0  0  0  0  0
  -14.3095   15.3487  -37.0501 H   0  0  0  0  0  0  0  0  0  0  0  0
  -13.5576   13.2291  -38.5059 H   0  0  0  0  0  0  0  0  0  0  0  0
  -12.8941   17.4166  -37.9979 H   0  0  0  0  0  0  0  0  0  0  0  0
  -12.3864   13.7763  -36.3374 H   0  0  0  0  0  0  0  0  0  0  0  0
  -12.0266   16.0483  -36.0618 H   0  0  0  0  0  0  0  0  0  0  0  0
  1  2  2  0  0  0  0
  1  4  1  6  0  0  0
  2  5  1  6  0  0  0
  3  4  1  0  0  0  0
  3  5  1  0  0  0  0
  4  6  1  0  0  0  0
  5  7  1  0  0  0  0
  6  7  1  0  0  0  0
  6  9  1  6  0  0  0
  7 10  1  6  0  0  0
  8 11  2  0  0  0  0
  9 11  1  0  0  0  0
 10 11  1  0  0  0  0
  1 12  1  0  0  0  0
  2 13  1  0  0  0  0
  3 14  1  0  0  0  0
  3 15  1  0  0  0  0
  4 16  1  0  0  0  0
  5 17  1  0  0  0  0
  6 18  1  0  0  0  0
  7 19  1  0  0  0  0
M  END
> <id>
EN300-1700454

> <smiles>
O=S1O[C@H]2[C@@H]3C[C@@H](C=C3)[C@H]2O1

> <MDLNUMBER>
MFCD31617441

> <IUPAC Name>
(1R,2S,6R,7S)-3,5-dioxa-4lambda4-thiatricyclo[5.2.1.0,2,6]dec-8-en-4-one

> <CAS>
2193052-20-7

> <Purity>
95

> <URL>
https://www.enaminestore.com/catalog/EN300-1700454

> <ROCS_ShapeQuery>
_x1247relevant_x1083L0AP1_x1305L0BP1_

> <ROCS_TanimotoCombo>
1.045 

> <ROCS_ShapeTanimoto>
0.486 

> <ROCS_ColorTanimoto>
0.559 

> <ROCS_RefTversky>
0.408 

> <ROCS_RefColorTversky>
0.677 

> <ROCS_RefTverskyCombo>
1.085 

> <ROCS_FitTversky>
1.656 

> <ROCS_FitColorTversky>
0.762 

> <ROCS_FitTverskyCombo>
2.418 

> <ROCS_ColorScore>
-6.503

> <ROCS_Overlap>
1002.663

> <ROCS_Rank>
184                 

$$$$
untitled-dbase-27055_0
  -OEChem-06232314403D

 19 20  0     1  0  0  0  0  0999 V2000
  -11.8639   15.5648  -37.1010 C   0  0  0  0  0  0  0  0  0  0  0  0
  -11.6690   14.2013  -37.7835 C   0  0  0  0  0  0  0  0  0  0  0  0
  -12.1452   15.8224  -39.4488 C   0  0  0  0  0  0  0  0  0  0  0  0
  -14.1368   15.7925  -38.1430 C   0  0  0  0  0  0  0  0  0  0  0  0
  -12.6995   16.3505  -38.1276 C   0  0  1  0  0  0  0  0  0  0  0  0
  -12.4500   14.3616  -39.1012 C   0  0  2  0  0  0  0  0  0  0  0  0
  -13.9491   14.3990  -38.7576 C   0  0  2  0  0  0  0  0  0  0  0  0
  -15.0306   14.1819  -40.3612 Br  0  0  0  0  0  0  0  0  0  0  0  0
  -12.3665   15.4724  -36.1331 H   0  0  0  0  0  0  0  0  0  0  0  0
  -10.8928   16.0454  -36.9381 H   0  0  0  0  0  0  0  0  0  0  0  0
  -10.6051   14.0272  -37.9803 H   0  0  0  0  0  0  0  0  0  0  0  0
  -12.0413   13.3758  -37.1689 H   0  0  0  0  0  0  0  0  0  0  0  0
  -12.6881   16.1918  -40.3241 H   0  0  0  0  0  0  0  0  0  0  0  0
  -11.0752   16.0196  -39.5768 H   0  0  0  0  0  0  0  0  0  0  0  0
  -14.5540   15.7327  -37.1321 H   0  0  0  0  0  0  0  0  0  0  0  0
  -14.7895   16.4406  -38.7384 H   0  0  0  0  0  0  0  0  0  0  0  0
  -12.6528   17.4329  -37.9936 H   0  0  0  0  0  0  0  0  0  0  0  0
  -12.1648   13.6331  -39.8636 H   0  0  0  0  0  0  0  0  0  0  0  0
  -14.2550   13.5963  -38.0796 H   0  0  0  0  0  0  0  0  0  0  0  0
  1  2  1  0  0  0  0
  1  5  1  0  0  0  0
  2  6  1  6  0  0  0
  3  5  1  0  0  0  0
  3  6  1  0  0  0  0
  4  5  1  6  0  0  0
  4  7  1  0  0  0  0
  6  7  1  0  0  0  0
  7  8  1  1  0  0  0
  1  9  1  0  0  0  0
  1 10  1  0  0  0  0
  2 11  1  0  0  0  0
  2 12  1  0  0  0  0
  3 13  1  0  0  0  0
  3 14  1  0  0  0  0
  4 15  1  0  0  0  0
  4 16  1  0  0  0  0
  5 17  1  0  0  0  0
  6 18  1  0  0  0  0
  7 19  1  0  0  0  0
M  END
> <id>
EN300-1719287

> <smiles>
Br[C@@H]1C[C@H]2CC[C@@H]1C2 |&1:1,3,6,r|

> <MDLNUMBER>
MFCD28043995

> <IUPAC Name>
rac-(1R,2R,4S)-2-bromobicyclo[2.2.1]heptane

> <CAS>
2534-77-2

> <Purity>
95

> <URL>
https://www.enaminestore.com/catalog/EN300-1719287

> <ROCS_ShapeQuery>
_x1247relevant_x1083L0AP1_x1305L0BP1_

> <ROCS_TanimotoCombo>
1.045 

> <ROCS_ShapeTanimoto>
0.364 

> <ROCS_ColorTanimoto>
0.680 

> <ROCS_RefTversky>
0.316 

> <ROCS_RefColorTversky>
0.720 

> <ROCS_RefTverskyCombo>
1.036 

> <ROCS_FitTversky>
1.736 

> <ROCS_FitColorTversky>
0.924 

> <ROCS_FitTverskyCombo>
2.661 

> <ROCS_ColorScore>
-6.879

> <ROCS_Overlap>
773.347

> <ROCS_Rank>
185                 

$$$$
untitled-dbase-19550_0
  -OEChem-06232314403D

 22 23  0     0  0  0  0  0  0999 V2000
  -11.6538   14.1344  -37.7298 C   0  0  0  0  0  0  0  0  0  0  0  0
  -11.5939   16.3126  -38.9564 C   0  0  0  0  0  0  0  0  0  0  0  0
  -13.1313   16.0175  -37.0059 C   0  0  0  0  0  0  0  0  0  0  0  0
  -12.7560   13.6308  -38.6745 C   0  0  0  0  0  0  0  0  0  0  0  0
  -12.6958   15.8116  -39.9027 C   0  0  0  0  0  0  0  0  0  0  0  0
  -14.2352   15.5165  -37.9499 C   0  0  0  0  0  0  0  0  0  0  0  0
  -11.7441   15.6622  -37.5698 C   0  0  0  0  0  0  0  0  0  0  0  0
  -13.6027   14.8163  -39.1626 C   0  0  0  0  0  0  0  0  0  0  0  0
  -14.9999   14.1806  -40.3596 Br  0  0  0  0  0  0  0  0  0  0  0  0
  -11.7511   13.6454  -36.7531 H   0  0  0  0  0  0  0  0  0  0  0  0
  -10.6705   13.8528  -38.1251 H   0  0  0  0  0  0  0  0  0  0  0  0
  -10.6090   16.0798  -39.3786 H   0  0  0  0  0  0  0  0  0  0  0  0
  -11.6480   17.4043  -38.8695 H   0  0  0  0  0  0  0  0  0  0  0  0
  -13.2192   17.1027  -36.8752 H   0  0  0  0  0  0  0  0  0  0  0  0
  -13.2624   15.5696  -36.0135 H   0  0  0  0  0  0  0  0  0  0  0  0
  -12.2989   13.0998  -39.5194 H   0  0  0  0  0  0  0  0  0  0  0  0
  -13.3770   12.8927  -38.1509 H   0  0  0  0  0  0  0  0  0  0  0  0
  -13.2740   16.6662  -40.2769 H   0  0  0  0  0  0  0  0  0  0  0  0
  -12.2370   15.3445  -40.7836 H   0  0  0  0  0  0  0  0  0  0  0  0
  -14.9006   14.8345  -37.4051 H   0  0  0  0  0  0  0  0  0  0  0  0
  -14.8584   16.3631  -38.2658 H   0  0  0  0  0  0  0  0  0  0  0  0
  -10.9586   16.0203  -36.8958 H   0  0  0  0  0  0  0  0  0  0  0  0
  1  4  1  0  0  0  0
  1  7  1  0  0  0  0
  2  5  1  0  0  0  0
  2  7  1  0  0  0  0
  3  6  1  0  0  0  0
  3  7  1  0  0  0  0
  4  8  1  0  0  0  0
  5  8  1  0  0  0  0
  6  8  1  0  0  0  0
  8  9  1  0  0  0  0
  1 10  1  0  0  0  0
  1 11  1  0  0  0  0
  2 12  1  0  0  0  0
  2 13  1  0  0  0  0
  3 14  1  0  0  0  0
  3 15  1  0  0  0  0
  4 16  1  0  0  0  0
  4 17  1  0  0  0  0
  5 18  1  0  0  0  0
  5 19  1  0  0  0  0
  6 20  1  0  0  0  0
  6 21  1  0  0  0  0
  7 22  1  0  0  0  0
M  END
> <id>
EN300-1718803

> <smiles>
BrC1(CCC2CC1)CC2

> <MDLNUMBER>
MFCD00213772

> <IUPAC Name>
1-bromobicyclo[2.2.2]octane

> <CAS>
7697-09-8

> <Purity>
95

> <URL>
https://www.enaminestore.com/catalog/EN300-1718803

> <MP>
61-65

> <ROCS_ShapeQuery>
_x1247relevant_x1083L0AP1_x1305L0BP1_

> <ROCS_TanimotoCombo>
1.044 

> <ROCS_ShapeTanimoto>
0.395 

> <ROCS_ColorTanimoto>
0.649 

> <ROCS_RefTversky>
0.339 

> <ROCS_RefColorTversky>
0.688 

> <ROCS_RefTverskyCombo>
1.026 

> <ROCS_FitTversky>
1.726 

> <ROCS_FitColorTversky>
0.920 

> <ROCS_FitTverskyCombo>
2.646 

> <ROCS_ColorScore>
-6.556

> <ROCS_Overlap>
830.335

> <ROCS_Rank>
186                 

$$$$
untitled-dbase-49430_0
  -OEChem-06232314403D

 22 23  0     1  0  0  0  0  0999 V2000
  -11.4209   15.5350  -37.3414 C   0  0  0  0  0  0  0  0  0  0  0  0
  -11.4116   14.1856  -38.0784 C   0  0  0  0  0  0  0  0  0  0  0  0
  -13.8076   16.3510  -37.7298 C   0  0  0  0  0  0  0  0  0  0  0  0
  -14.3333   14.9099  -37.6897 C   0  0  0  0  0  0  0  0  0  0  0  0
  -12.2013   15.8534  -39.5706 C   0  0  0  0  0  0  0  0  0  0  0  0
  -12.3373   16.4462  -38.1724 C   0  0  2  0  0  0  0  0  0  0  0  0
  -12.3739   14.3634  -39.2674 C   0  0  2  0  0  0  0  0  0  0  0  0
  -13.8157   14.0362  -38.8369 C   0  0  2  0  0  0  0  0  0  0  0  0
  -15.0241   14.1812  -40.3772 Br  0  0  0  0  0  0  0  0  0  0  0  0
  -11.7524   15.4364  -36.3026 H   0  0  0  0  0  0  0  0  0  0  0  0
  -10.4027   15.9416  -37.3200 H   0  0  0  0  0  0  0  0  0  0  0  0
  -10.3983   13.9800  -38.4441 H   0  0  0  0  0  0  0  0  0  0  0  0
  -11.6956   13.3570  -37.4214 H   0  0  0  0  0  0  0  0  0  0  0  0
  -14.4263   16.9403  -38.4182 H   0  0  0  0  0  0  0  0  0  0  0  0
  -13.9270   16.8035  -36.7382 H   0  0  0  0  0  0  0  0  0  0  0  0
  -13.9985   14.4590  -36.7460 H   0  0  0  0  0  0  0  0  0  0  0  0
  -15.4285   14.9155  -37.6382 H   0  0  0  0  0  0  0  0  0  0  0  0
  -12.9328   16.2553  -40.2769 H   0  0  0  0  0  0  0  0  0  0  0  0
  -11.2022   16.0505  -39.9793 H   0  0  0  0  0  0  0  0  0  0  0  0
  -12.0075   17.4895  -38.1374 H   0  0  0  0  0  0  0  0  0  0  0  0
  -12.0709   13.7412  -40.1165 H   0  0  0  0  0  0  0  0  0  0  0  0
  -13.8940   12.9808  -38.5525 H   0  0  0  0  0  0  0  0  0  0  0  0
  1  2  1  0  0  0  0
  1  6  1  0  0  0  0
  2  7  1  6  0  0  0
  3  4  1  0  0  0  0
  3  6  1  6  0  0  0
  4  8  1  0  0  0  0
  5  6  1  0  0  0  0
  5  7  1  0  0  0  0
  7  8  1  0  0  0  0
  8  9  1  1  0  0  0
  1 10  1  0  0  0  0
  1 11  1  0  0  0  0
  2 12  1  0  0  0  0
  2 13  1  0  0  0  0
  3 14  1  0  0  0  0
  3 15  1  0  0  0  0
  4 16  1  0  0  0  0
  4 17  1  0  0  0  0
  5 18  1  0  0  0  0
  5 19  1  0  0  0  0
  6 20  1  0  0  0  0
  7 21  1  0  0  0  0
  8 22  1  0  0  0  0
M  END
> <id>
EN300-843892

> <smiles>
Br[C@@H]1CC[C@H]2CC[C@@H]1C2 |&1:1,4,7,r|

> <IUPAC Name>
rac-(1R,2R,5R)-2-bromobicyclo[3.2.1]octane

> <CAS>
180334-82-1

> <URL>
https://www.enaminestore.com/catalog/EN300-843892

> <ROCS_ShapeQuery>
_x1247relevant_x1083L0AP1_x1305L0BP1_

> <ROCS_TanimotoCombo>
1.043 

> <ROCS_ShapeTanimoto>
0.372 

> <ROCS_ColorTanimoto>
0.672 

> <ROCS_RefTversky>
0.324 

> <ROCS_RefColorTversky>
0.695 

> <ROCS_RefTverskyCombo>
1.019 

> <ROCS_FitTversky>
1.656 

> <ROCS_FitColorTversky>
0.953 

> <ROCS_FitTverskyCombo>
2.609 

> <ROCS_ColorScore>
-6.616

> <ROCS_Overlap>
794.212

> <ROCS_Rank>
187                 

$$$$
untitled-dbase-36138_0
  -OEChem-06232314403D

 24 26  0     1  0  0  0  0  0999 V2000
  -13.6674   14.4790  -39.0583 C   0  0  0  0  0  0  0  0  0  0  0  0
  -13.7056   14.3940  -37.5486 C   0  0  0  0  0  0  0  0  0  0  0  0
  -12.9104   16.5275  -38.2892 C   0  0  0  0  0  0  0  0  0  0  0  0
  -11.2990   15.0166  -39.2275 C   0  0  0  0  0  0  0  0  0  0  0  0
   -9.9380   13.8319  -36.2099 C   0  0  0  0  0  0  0  0  0  0  0  0
   -9.1902   15.0471  -36.6837 C   0  0  0  0  0  0  0  0  0  0  0  0
  -12.7076   15.5781  -39.4706 C   0  0  1  0  0  0  0  0  0  0  0  0
  -12.6231   15.4505  -37.2355 C   0  0  2  0  0  0  0  0  0  0  0  0
  -11.2196   14.9652  -37.6827 C   0  0  0  0  0  0  0  0  0  0  0  0
  -14.2861   13.7552  -39.8221 O   0  0  0  0  0  0  0  0  0  0  0  0
  -10.9256   13.6456  -37.2214 O   0  0  0  0  0  0  0  0  0  0  0  0
  -10.2218   15.8818  -37.2068 O   0  0  0  0  0  0  0  0  0  0  0  0
  -14.6899   14.7076  -37.1907 H   0  0  0  0  0  0  0  0  0  0  0  0
  -13.4529   13.3936  -37.1941 H   0  0  0  0  0  0  0  0  0  0  0  0
  -12.1944   17.3555  -38.2761 H   0  0  0  0  0  0  0  0  0  0  0  0
  -13.9296   16.9243  -38.2208 H   0  0  0  0  0  0  0  0  0  0  0  0
  -11.1733   14.0276  -39.6817 H   0  0  0  0  0  0  0  0  0  0  0  0
  -10.5464   15.6976  -39.6398 H   0  0  0  0  0  0  0  0  0  0  0  0
   -9.3084   12.9438  -36.1139 H   0  0  0  0  0  0  0  0  0  0  0  0
  -10.4520   14.0181  -35.2605 H   0  0  0  0  0  0  0  0  0  0  0  0
   -8.6430   15.5586  -35.8885 H   0  0  0  0  0  0  0  0  0  0  0  0
   -8.5025   14.8045  -37.5012 H   0  0  0  0  0  0  0  0  0  0  0  0
  -12.9076   15.9893  -40.4592 H   0  0  0  0  0  0  0  0  0  0  0  0
  -12.6553   15.8096  -36.2039 H   0  0  0  0  0  0  0  0  0  0  0  0
  1  2  1  0  0  0  0
  1  7  1  0  0  0  0
  1 10  2  0  0  0  0
  2  8  1  6  0  0  0
  3  7  1  0  0  0  0
  3  8  1  0  0  0  0
  4  7  1  6  0  0  0
  4  9  1  0  0  0  0
  5  6  1  0  0  0  0
  5 11  1  0  0  0  0
  6 12  1  0  0  0  0
  8  9  1  0  0  0  0
  9 11  1  0  0  0  0
  9 12  1  0  0  0  0
  2 13  1  0  0  0  0
  2 14  1  0  0  0  0
  3 15  1  0  0  0  0
  3 16  1  0  0  0  0
  4 17  1  0  0  0  0
  4 18  1  0  0  0  0
  5 19  1  0  0  0  0
  5 20  1  0  0  0  0
  6 21  1  0  0  0  0
  6 22  1  0  0  0  0
  7 23  1  0  0  0  0
  8 24  1  0  0  0  0
M  END
> <id>
EN300-1663071

> <smiles>
O=C1C[C@@H]2C[C@H]1CC32OCCO3 |&1:3,5,r|

> <MDLNUMBER>
MFCD12963722

> <IUPAC Name>
rac-(1R,4R)-spiro[bicyclo[2.2.1]heptane-2,2'-[1,3]dioxolane]-5-one

> <CAS>
450392-95-7

> <Purity>
95

> <URL>
https://www.enaminestore.com/catalog/EN300-1663071

> <ROCS_ShapeQuery>
_x1247relevant_x1083L0AP1_x1305L0BP1_

> <ROCS_TanimotoCombo>
1.043 

> <ROCS_ShapeTanimoto>
0.520 

> <ROCS_ColorTanimoto>
0.523 

> <ROCS_RefTversky>
0.434 

> <ROCS_RefColorTversky>
0.709 

> <ROCS_RefTverskyCombo>
1.142 

> <ROCS_FitTversky>
1.621 

> <ROCS_FitColorTversky>
0.666 

> <ROCS_FitTverskyCombo>
2.288 

> <ROCS_ColorScore>
-6.874

> <ROCS_Overlap>
1067.570

> <ROCS_Rank>
188                 

$$$$
untitled-dbase-38437_0
  -OEChem-06232314403D

 24 25  0     0  0  0  0  0  0999 V2000
  -12.0791   15.8683  -39.7386 C   0  0  0  0  0  0  0  0  0  0  0  0
  -13.5778   16.4238  -37.8039 C   0  0  0  0  0  0  0  0  0  0  0  0
  -13.6827   14.1500  -38.8607 C   0  0  0  0  0  0  0  0  0  0  0  0
  -11.0107   15.3646  -38.7581 C   0  0  0  0  0  0  0  0  0  0  0  0
  -12.5031   15.9160  -36.8325 C   0  0  0  0  0  0  0  0  0  0  0  0
  -12.6068   13.6531  -37.8849 C   0  0  0  0  0  0  0  0  0  0  0  0
  -13.4902   15.6572  -39.1443 C   0  0  0  0  0  0  0  0  0  0  0  0
  -11.6781   14.8082  -37.4959 C   0  0  0  0  0  0  0  0  0  0  0  0
  -14.5069   16.1279  -40.0801 N   0  0  0  0  0  0  0  0  0  0  0  0
  -10.7319   14.3648  -36.6356 F   0  0  0  0  0  0  0  0  0  0  0  0
  -11.9030   16.9300  -39.9544 H   0  0  0  0  0  0  0  0  0  0  0  0
  -11.9769   15.3364  -40.6934 H   0  0  0  0  0  0  0  0  0  0  0  0
  -14.5685   16.2978  -37.3487 H   0  0  0  0  0  0  0  0  0  0  0  0
  -13.4442   17.5015  -37.9637 H   0  0  0  0  0  0  0  0  0  0  0  0
  -13.6261   13.5701  -39.7910 H   0  0  0  0  0  0  0  0  0  0  0  0
  -14.6762   13.9585  -38.4350 H   0  0  0  0  0  0  0  0  0  0  0  0
  -10.3927   14.5923  -39.2322 H   0  0  0  0  0  0  0  0  0  0  0  0
  -10.3214   16.1764  -38.4963 H   0  0  0  0  0  0  0  0  0  0  0  0
  -11.8501   16.7409  -36.5224 H   0  0  0  0  0  0  0  0  0  0  0  0
  -12.9677   15.5430  -35.9117 H   0  0  0  0  0  0  0  0  0  0  0  0
  -13.0738   13.2239  -36.9901 H   0  0  0  0  0  0  0  0  0  0  0  0
  -12.0291   12.8383  -38.3381 H   0  0  0  0  0  0  0  0  0  0  0  0
  -14.3539   17.0947  -40.2455 H   0  0  0  0  0  0  0  0  0  0  0  0
  -14.4175   15.6100  -40.9223 H   0  0  0  0  0  0  0  0  0  0  0  0
  1  4  1  0  0  0  0
  1  7  1  0  0  0  0
  2  5  1  0  0  0  0
  2  7  1  0  0  0  0
  3  6  1  0  0  0  0
  3  7  1  0  0  0  0
  4  8  1  0  0  0  0
  5  8  1  0  0  0  0
  6  8  1  0  0  0  0
  7  9  1  0  0  0  0
  8 10  1  0  0  0  0
  1 11  1  0  0  0  0
  1 12  1  0  0  0  0
  2 13  1  0  0  0  0
  2 14  1  0  0  0  0
  3 15  1  0  0  0  0
  3 16  1  0  0  0  0
  4 17  1  0  0  0  0
  4 18  1  0  0  0  0
  5 19  1  0  0  0  0
  5 20  1  0  0  0  0
  6 21  1  0  0  0  0
  6 22  1  0  0  0  0
  9 23  1  0  0  0  0
  9 24  1  0  0  0  0
M  END
> <id>
EN300-222122

> <smiles>
Cl.NC1(CCC2(F)CC1)CC2

> <MDLNUMBER>
MFCD29060088

> <IUPAC Name>
4-fluorobicyclo[2.2.2]octan-1-amine hydrochloride

> <CAS>
1397343-11-1

> <Purity>
95

> <URL>
https://www.enaminestore.com/catalog/EN300-222122

> <Saltdate>
Cl

> <ROCS_ShapeQuery>
_x1247relevant_x1083L0AP1_x1305L0BP1_

> <ROCS_TanimotoCombo>
1.043 

> <ROCS_ShapeTanimoto>
0.453 

> <ROCS_ColorTanimoto>
0.590 

> <ROCS_RefTversky>
0.380 

> <ROCS_RefColorTversky>
0.684 

> <ROCS_RefTverskyCombo>
1.065 

> <ROCS_FitTversky>
1.721 

> <ROCS_FitColorTversky>
0.812 

> <ROCS_FitTverskyCombo>
2.533 

> <ROCS_ColorScore>
-6.554

> <ROCS_Overlap>
934.229

> <ROCS_Rank>
189                 

$$$$
untitled-dbase-7215_0
  -OEChem-06232314403D

 24 25  0     0  0  0  0  0  0999 V2000
  -12.0791   15.8683  -39.7386 C   0  0  0  0  0  0  0  0  0  0  0  0
  -13.5778   16.4238  -37.8039 C   0  0  0  0  0  0  0  0  0  0  0  0
  -13.6827   14.1500  -38.8607 C   0  0  0  0  0  0  0  0  0  0  0  0
  -11.0107   15.3646  -38.7581 C   0  0  0  0  0  0  0  0  0  0  0  0
  -12.5031   15.9160  -36.8325 C   0  0  0  0  0  0  0  0  0  0  0  0
  -12.6068   13.6531  -37.8849 C   0  0  0  0  0  0  0  0  0  0  0  0
  -13.4902   15.6572  -39.1443 C   0  0  0  0  0  0  0  0  0  0  0  0
  -11.6781   14.8082  -37.4959 C   0  0  0  0  0  0  0  0  0  0  0  0
  -14.5069   16.1279  -40.0801 N   0  0  0  0  0  0  0  0  0  0  0  0
  -10.7319   14.3648  -36.6356 F   0  0  0  0  0  0  0  0  0  0  0  0
  -11.9030   16.9300  -39.9544 H   0  0  0  0  0  0  0  0  0  0  0  0
  -11.9769   15.3364  -40.6934 H   0  0  0  0  0  0  0  0  0  0  0  0
  -14.5685   16.2978  -37.3487 H   0  0  0  0  0  0  0  0  0  0  0  0
  -13.4442   17.5015  -37.9637 H   0  0  0  0  0  0  0  0  0  0  0  0
  -13.6261   13.5701  -39.7910 H   0  0  0  0  0  0  0  0  0  0  0  0
  -14.6762   13.9585  -38.4350 H   0  0  0  0  0  0  0  0  0  0  0  0
  -10.3927   14.5923  -39.2322 H   0  0  0  0  0  0  0  0  0  0  0  0
  -10.3214   16.1764  -38.4963 H   0  0  0  0  0  0  0  0  0  0  0  0
  -11.8501   16.7409  -36.5224 H   0  0  0  0  0  0  0  0  0  0  0  0
  -12.9677   15.5430  -35.9117 H   0  0  0  0  0  0  0  0  0  0  0  0
  -13.0738   13.2239  -36.9901 H   0  0  0  0  0  0  0  0  0  0  0  0
  -12.0291   12.8383  -38.3381 H   0  0  0  0  0  0  0  0  0  0  0  0
  -14.3539   17.0947  -40.2455 H   0  0  0  0  0  0  0  0  0  0  0  0
  -14.4175   15.6100  -40.9223 H   0  0  0  0  0  0  0  0  0  0  0  0
  1  4  1  0  0  0  0
  1  7  1  0  0  0  0
  2  5  1  0  0  0  0
  2  7  1  0  0  0  0
  3  6  1  0  0  0  0
  3  7  1  0  0  0  0
  4  8  1  0  0  0  0
  5  8  1  0  0  0  0
  6  8  1  0  0  0  0
  7  9  1  0  0  0  0
  8 10  1  0  0  0  0
  1 11  1  0  0  0  0
  1 12  1  0  0  0  0
  2 13  1  0  0  0  0
  2 14  1  0  0  0  0
  3 15  1  0  0  0  0
  3 16  1  0  0  0  0
  4 17  1  0  0  0  0
  4 18  1  0  0  0  0
  5 19  1  0  0  0  0
  5 20  1  0  0  0  0
  6 21  1  0  0  0  0
  6 22  1  0  0  0  0
  9 23  1  0  0  0  0
  9 24  1  0  0  0  0
M  END
> <id>
EN300-222123

> <smiles>
NC1(CCC2(F)CC1)CC2

> <MDLNUMBER>
MFCD19203891

> <IUPAC Name>
4-fluorobicyclo[2.2.2]octan-1-amine

> <CAS>
78385-91-8

> <URL>
https://www.enaminestore.com/catalog/EN300-222123

> <ROCS_ShapeQuery>
_x1247relevant_x1083L0AP1_x1305L0BP1_

> <ROCS_TanimotoCombo>
1.043 

> <ROCS_ShapeTanimoto>
0.453 

> <ROCS_ColorTanimoto>
0.590 

> <ROCS_RefTversky>
0.380 

> <ROCS_RefColorTversky>
0.684 

> <ROCS_RefTverskyCombo>
1.065 

> <ROCS_FitTversky>
1.721 

> <ROCS_FitColorTversky>
0.812 

> <ROCS_FitTverskyCombo>
2.533 

> <ROCS_ColorScore>
-6.554

> <ROCS_Overlap>
934.229

> <ROCS_Rank>
190                 

$$$$
untitled-dbase-30794_56
  -OEChem-06232314403D

 40 41  0     1  0  0  0  0  0999 V2000
  -10.2087   14.5786  -37.5289 C   0  0  0  0  0  0  0  0  0  0  0  0
  -13.5821   15.7633  -37.0319 C   0  0  0  0  0  0  0  0  0  0  0  0
  -13.7900   14.3149  -37.5188 C   0  0  0  0  0  0  0  0  0  0  0  0
  -12.2618   16.7893  -38.9699 C   0  0  0  0  0  0  0  0  0  0  0  0
  -12.6179   14.3575  -39.7945 C   0  0  0  0  0  0  0  0  0  0  0  0
  -12.1999   16.1629  -37.5604 C   0  0  2  0  0  0  0  0  0  0  0  0
  -12.5176   13.9762  -38.3017 C   0  0  1  0  0  0  0  0  0  0  0  0
  -12.9266   15.8625  -40.0266 C   0  0  0  0  0  0  0  0  0  0  0  0
  -12.5137   16.2768  -41.4420 C   0  0  0  0  0  0  0  0  0  0  0  0
   -9.6968   14.3585  -34.9689 C   0  0  0  0  0  0  0  0  0  0  0  0
   -9.8922   11.8641  -35.1907 C   0  0  0  0  0  0  0  0  0  0  0  0
   -7.8588   13.0430  -36.0760 C   0  0  0  0  0  0  0  0  0  0  0  0
   -9.3642   13.1442  -35.8348 C   0  0  0  0  0  0  0  0  0  0  0  0
  -11.5459   14.8736  -37.7078 N   0  0  0  0  0  0  0  0  0  0  0  0
   -9.2934   15.3738  -37.7288 O   0  0  0  0  0  0  0  0  0  0  0  0
  -14.3490   16.0272  -39.9548 O   0  0  0  0  0  0  0  0  0  0  0  0
  -10.0195   13.2930  -37.0992 O   0  0  0  0  0  0  0  0  0  0  0  0
  -14.3811   16.4324  -37.3649 H   0  0  0  0  0  0  0  0  0  0  0  0
  -13.5825   15.7737  -35.9352 H   0  0  0  0  0  0  0  0  0  0  0  0
  -13.8831   13.6553  -36.6476 H   0  0  0  0  0  0  0  0  0  0  0  0
  -14.7025   14.2041  -38.1123 H   0  0  0  0  0  0  0  0  0  0  0  0
  -12.8039   17.7416  -38.9133 H   0  0  0  0  0  0  0  0  0  0  0  0
  -11.2339   17.0203  -39.2797 H   0  0  0  0  0  0  0  0  0  0  0  0
  -11.6610   14.1038  -40.2698 H   0  0  0  0  0  0  0  0  0  0  0  0
  -13.3869   13.7355  -40.2692 H   0  0  0  0  0  0  0  0  0  0  0  0
  -11.6664   16.8225  -36.8698 H   0  0  0  0  0  0  0  0  0  0  0  0
  -12.2227   12.9279  -38.1923 H   0  0  0  0  0  0  0  0  0  0  0  0
  -12.9868   15.6193  -42.1674 H   0  0  0  0  0  0  0  0  0  0  0  0
  -11.4333   16.2054  -41.5424 H   0  0  0  0  0  0  0  0  0  0  0  0
  -12.8257   17.3017  -41.6278 H   0  0  0  0  0  0  0  0  0  0  0  0
   -9.3195   15.2794  -35.4278 H   0  0  0  0  0  0  0  0  0  0  0  0
  -10.7762   14.4624  -34.8174 H   0  0  0  0  0  0  0  0  0  0  0  0
   -9.2153   14.2825  -33.9873 H   0  0  0  0  0  0  0  0  0  0  0  0
   -9.6558   10.9903  -35.8086 H   0  0  0  0  0  0  0  0  0  0  0  0
  -10.9843   11.8934  -35.1024 H   0  0  0  0  0  0  0  0  0  0  0  0
   -9.4678   11.7087  -34.1936 H   0  0  0  0  0  0  0  0  0  0  0  0
   -7.6200   12.1720  -36.6970 H   0  0  0  0  0  0  0  0  0  0  0  0
   -7.4686   13.9380  -36.5712 H   0  0  0  0  0  0  0  0  0  0  0  0
   -7.3211   12.9055  -35.1308 H   0  0  0  0  0  0  0  0  0  0  0  0
  -14.5204   16.9602  -40.1445 H   0  0  0  0  0  0  0  0  0  0  0  0
  1 14  1  0  0  0  0
  1 15  2  0  0  0  0
  1 17  1  0  0  0  0
  2  3  1  0  0  0  0
  2  6  1  0  0  0  0
  3  7  1  0  0  0  0
  4  6  1  0  0  0  0
  4  8  1  0  0  0  0
  5  7  1  0  0  0  0
  5  8  1  0  0  0  0
  6 14  1  0  0  0  0
  7 14  1  0  0  0  0
  8  9  1  0  0  0  0
  8 16  1  0  0  0  0
 10 13  1  0  0  0  0
 11 13  1  0  0  0  0
 12 13  1  0  0  0  0
 13 17  1  0  0  0  0
  2 18  1  0  0  0  0
  2 19  1  0  0  0  0
  3 20  1  0  0  0  0
  3 21  1  0  0  0  0
  4 22  1  0  0  0  0
  4 23  1  0  0  0  0
  5 24  1  0  0  0  0
  5 25  1  0  0  0  0
  6 26  1  0  0  0  0
  7 27  1  0  0  0  0
  9 28  1  0  0  0  0
  9 29  1  0  0  0  0
  9 30  1  0  0  0  0
 10 31  1  0  0  0  0
 10 32  1  0  0  0  0
 10 33  1  0  0  0  0
 11 34  1  0  0  0  0
 11 35  1  0  0  0  0
 11 36  1  0  0  0  0
 12 37  1  0  0  0  0
 12 38  1  0  0  0  0
 12 39  1  0  0  0  0
 16 40  1  0  0  0  0
M  END
> <id>
EN300-5609288

> <smiles>
CC(C)(C)OC(=O)N1C2CCC1CC(C)(O)C2

> <MDLNUMBER>
MFCD23701452

> <IUPAC Name>
tert-butyl 3-hydroxy-3-methyl-8-azabicyclo[3.2.1]octane-8-carboxylate

> <CAS>
870889-20-6

> <URL>
https://www.enaminestore.com/catalog/EN300-5609288

> <ROCS_ShapeQuery>
_x1247relevant_x1083L0AP1_x1305L0BP1_

> <ROCS_TanimotoCombo>
1.043 

> <ROCS_ShapeTanimoto>
0.536 

> <ROCS_ColorTanimoto>
0.507 

> <ROCS_RefTversky>
0.468 

> <ROCS_RefColorTversky>
0.678 

> <ROCS_RefTverskyCombo>
1.146 

> <ROCS_FitTversky>
1.372 

> <ROCS_FitColorTversky>
0.668 

> <ROCS_FitTverskyCombo>
2.041 

> <ROCS_ColorScore>
-6.555

> <ROCS_Overlap>
1156.100

> <ROCS_Rank>
191                 

$$$$
untitled-dbase-34861_3
  -OEChem-06232314403D

 29 31  0     1  0  0  0  0  0999 V2000
  -10.4775   13.4053  -37.6353 C   0  0  0  0  0  0  0  0  0  0  0  0
   -9.5231   13.8067  -36.6960 C   0  0  0  0  0  0  0  0  0  0  0  0
  -10.4452   16.0728  -36.5985 C   0  0  0  0  0  0  0  0  0  0  0  0
  -11.3915   14.3499  -38.0420 C   0  0  0  0  0  0  0  0  0  0  0  0
  -11.3755   15.6704  -37.5290 C   0  0  0  0  0  0  0  0  0  0  0  0
   -9.5072   15.1225  -36.1846 C   0  0  0  0  0  0  0  0  0  0  0  0
  -12.6369   16.2222  -40.7082 C   0  0  0  0  0  0  0  0  0  0  0  0
  -13.8388   14.3291  -38.1301 C   0  0  0  0  0  0  0  0  0  0  0  0
  -13.8214   15.7966  -37.5604 C   0  0  0  0  0  0  0  0  0  0  0  0
  -12.5616   14.2857  -38.9991 C   0  0  1  0  0  0  0  0  0  0  0  0
  -12.5361   16.3876  -38.1814 C   0  0  2  0  0  0  0  0  0  0  0  0
  -13.4202   15.4143  -41.7081 C   0  0  0  0  0  0  0  0  0  0  0  0
  -12.5555   15.6755  -39.4546 N   0  0  0  0  0  0  0  0  0  0  0  0
   -8.5262   15.4821  -35.2321 N   0  0  0  0  0  0  0  0  0  0  0  0
  -12.1185   17.2915  -41.0300 O   0  0  0  0  0  0  0  0  0  0  0  0
  -13.8919   14.2876  -41.1429 F   0  0  0  0  0  0  0  0  0  0  0  0
  -14.4669   16.1196  -42.1753 F   0  0  0  0  0  0  0  0  0  0  0  0
  -12.6476   15.0675  -42.7543 F   0  0  0  0  0  0  0  0  0  0  0  0
  -10.4928   12.3929  -38.0208 H   0  0  0  0  0  0  0  0  0  0  0  0
   -8.7846   13.0843  -36.3545 H   0  0  0  0  0  0  0  0  0  0  0  0
  -10.4450   17.0831  -36.2048 H   0  0  0  0  0  0  0  0  0  0  0  0
  -13.8364   13.5897  -37.3219 H   0  0  0  0  0  0  0  0  0  0  0  0
  -14.7370   14.1832  -38.7407 H   0  0  0  0  0  0  0  0  0  0  0  0
  -14.7110   16.3352  -37.9060 H   0  0  0  0  0  0  0  0  0  0  0  0
  -13.8109   15.7964  -36.4653 H   0  0  0  0  0  0  0  0  0  0  0  0
  -12.5107   13.5397  -39.7907 H   0  0  0  0  0  0  0  0  0  0  0  0
  -12.4621   17.4746  -38.2408 H   0  0  0  0  0  0  0  0  0  0  0  0
   -7.8917   14.7850  -34.9034 H   0  0  0  0  0  0  0  0  0  0  0  0
   -8.5472   16.3990  -34.8379 H   0  0  0  0  0  0  0  0  0  0  0  0
  1  2  1  0  0  0  0
  1  4  2  0  0  0  0
  2  6  2  0  0  0  0
  3  5  2  0  0  0  0
  3  6  1  0  0  0  0
  4  5  1  0  0  0  0
  4 10  1  0  0  0  0
  5 11  1  0  0  0  0
  6 14  1  0  0  0  0
  7 12  1  0  0  0  0
  7 13  1  0  0  0  0
  7 15  2  0  0  0  0
  8  9  1  0  0  0  0
  8 10  1  0  0  0  0
  9 11  1  0  0  0  0
 10 13  1  0  0  0  0
 11 13  1  0  0  0  0
 12 16  1  0  0  0  0
 12 17  1  0  0  0  0
 12 18  1  0  0  0  0
  1 19  1  0  0  0  0
  2 20  1  0  0  0  0
  3 21  1  0  0  0  0
  8 22  1  0  0  0  0
  8 23  1  0  0  0  0
  9 24  1  0  0  0  0
  9 25  1  0  0  0  0
 10 26  1  0  0  0  0
 11 27  1  0  0  0  0
 14 28  1  0  0  0  0
 14 29  1  0  0  0  0
M  END
> <id>
EN300-3119278

> <smiles>
NC=1C=CC=2C3CCC(N3C(=O)C(F)(F)F)C2C1

> <MDLNUMBER>
MFCD30679756

> <IUPAC Name>
1-{4-amino-11-azatricyclo[6.2.1.0,2,7]undeca-2,4,6-trien-11-yl}-2,2,2-trifluoroethan-1-one

> <CAS>
942491-79-4

> <Purity>
95

> <URL>
https://www.enaminestore.com/catalog/EN300-3119278

> <ROCS_ShapeQuery>
_x1247relevant_x1083L0AP1_x1305L0BP1_

> <ROCS_TanimotoCombo>
1.042 

> <ROCS_ShapeTanimoto>
0.519 

> <ROCS_ColorTanimoto>
0.523 

> <ROCS_RefTversky>
0.471 

> <ROCS_RefColorTversky>
0.712 

> <ROCS_RefTverskyCombo>
1.183 

> <ROCS_FitTversky>
1.245 

> <ROCS_FitColorTversky>
0.663 

> <ROCS_FitTverskyCombo>
1.909 

> <ROCS_ColorScore>
-6.912

> <ROCS_Overlap>
1166.339

> <ROCS_Rank>
192                 

$$$$
untitled-dbase-40636_1
  -OEChem-06232314403D

 24 26  0     1  0  0  0  0  0999 V2000
  -12.2614   15.9977  -39.5401 C   0  0  0  0  0  0  0  0  0  0  0  0
  -12.4754   14.6825  -39.6879 C   0  0  0  0  0  0  0  0  0  0  0  0
  -10.1489   15.9558  -37.3321 C   0  0  0  0  0  0  0  0  0  0  0  0
   -9.5360   14.5944  -37.0123 C   0  0  0  0  0  0  0  0  0  0  0  0
  -13.8257   15.3917  -37.9656 C   0  0  0  0  0  0  0  0  0  0  0  0
  -12.6420   16.3616  -38.1244 C   0  0  1  0  0  0  0  0  0  0  0  0
  -12.9990   14.1589  -38.3712 C   0  0  2  0  0  0  0  0  0  0  0  0
  -11.6455   15.7400  -37.1167 C   0  0  1  0  0  0  0  0  0  0  0  0
  -11.8923   14.2028  -37.2862 C   0  0  2  0  0  0  0  0  0  0  0  0
  -10.5275   13.6087  -37.6178 C   0  0  2  0  0  0  0  0  0  0  0  0
  -10.3174   11.8461  -36.8395 Br  0  0  0  0  0  0  0  0  0  0  0  0
  -11.8410   16.6646  -40.2770 H   0  0  0  0  0  0  0  0  0  0  0  0
  -12.2607   14.0936  -40.5662 H   0  0  0  0  0  0  0  0  0  0  0  0
   -9.7866   16.6874  -36.6139 H   0  0  0  0  0  0  0  0  0  0  0  0
   -9.9050   16.2995  -38.3298 H   0  0  0  0  0  0  0  0  0  0  0  0
   -8.5682   14.5021  -37.5005 H   0  0  0  0  0  0  0  0  0  0  0  0
   -9.3776   14.4683  -35.9447 H   0  0  0  0  0  0  0  0  0  0  0  0
  -14.2120   15.3397  -36.9405 H   0  0  0  0  0  0  0  0  0  0  0  0
  -14.6607   15.6035  -38.6472 H   0  0  0  0  0  0  0  0  0  0  0  0
  -12.8837   17.4110  -37.9711 H   0  0  0  0  0  0  0  0  0  0  0  0
  -13.5609   13.2309  -38.4397 H   0  0  0  0  0  0  0  0  0  0  0  0
  -11.9227   16.0500  -36.0982 H   0  0  0  0  0  0  0  0  0  0  0  0
  -12.3097   13.7992  -36.3510 H   0  0  0  0  0  0  0  0  0  0  0  0
  -10.3717   13.4803  -38.7032 H   0  0  0  0  0  0  0  0  0  0  0  0
  1  2  2  0  0  0  0
  1  6  1  6  0  0  0
  2  7  1  6  0  0  0
  3  4  1  0  0  0  0
  3  8  1  6  0  0  0
  4 10  1  0  0  0  0
  5  6  1  0  0  0  0
  5  7  1  0  0  0  0
  6  8  1  0  0  0  0
  7  9  1  0  0  0  0
  8  9  1  0  0  0  0
  9 10  1  6  0  0  0
 10 11  1  1  0  0  0
  1 12  1  0  0  0  0
  2 13  1  0  0  0  0
  3 14  1  0  0  0  0
  3 15  1  0  0  0  0
  4 16  1  0  0  0  0
  4 17  1  0  0  0  0
  5 18  1  0  0  0  0
  5 19  1  0  0  0  0
  6 20  1  0  0  0  0
  7 21  1  0  0  0  0
  8 22  1  0  0  0  0
  9 23  1  0  0  0  0
 10 24  1  0  0  0  0
M  END
> <id>
EN300-27115145

> <smiles>
Br[C@@H]1CC[C@H]2[C@@H]3C[C@@H](C=C3)[C@@H]12 |&1:1,4,5,7,10,r|

> <IUPAC Name>
rac-(1R,2S,3S,6R,7S)-3-bromotricyclo[5.2.1.0,2,6]dec-8-ene

> <CAS>
2490344-72-2

> <Purity>
95

> <URL>
https://www.enaminestore.com/catalog/EN300-27115145

> <ROCS_ShapeQuery>
_x1247relevant_x1083L0AP1_x1305L0BP1_

> <ROCS_TanimotoCombo>
1.042 

> <ROCS_ShapeTanimoto>
0.473 

> <ROCS_ColorTanimoto>
0.569 

> <ROCS_RefTversky>
0.398 

> <ROCS_RefColorTversky>
0.685 

> <ROCS_RefTverskyCombo>
1.083 

> <ROCS_FitTversky>
1.658 

> <ROCS_FitColorTversky>
0.771 

> <ROCS_FitTverskyCombo>
2.429 

> <ROCS_ColorScore>
-6.577

> <ROCS_Overlap>
979.169

> <ROCS_Rank>
193                 

$$$$
untitled-dbase-12355_1
  -OEChem-06232314403D

 31 34  0     1  0  0  0  0  0999 V2000
  -14.2856   15.7818  -38.5351 C   0  0  0  0  0  0  0  0  0  0  0  0
  -13.1498   17.7103  -39.6829 C   0  0  0  0  0  0  0  0  0  0  0  0
  -14.0369   14.5381  -38.0774 C   0  0  0  0  0  0  0  0  0  0  0  0
  -13.1712   16.5586  -39.0244 C   0  0  0  0  0  0  0  0  0  0  0  0
  -11.7488   17.9063  -40.0838 C   0  0  0  0  0  0  0  0  0  0  0  0
   -8.9996   14.8717  -37.5783 C   0  0  0  0  0  0  0  0  0  0  0  0
   -9.5829   13.5343  -37.1213 C   0  0  0  0  0  0  0  0  0  0  0  0
   -9.8439   16.0611  -37.1385 C   0  0  0  0  0  0  0  0  0  0  0  0
  -11.8743   14.5363  -39.3268 C   0  0  0  0  0  0  0  0  0  0  0  0
  -10.8899   13.6785  -36.3433 C   0  0  0  0  0  0  0  0  0  0  0  0
  -12.6120   13.9749  -38.1022 C   0  0  1  0  0  0  0  0  0  0  0  0
  -11.3490   15.8798  -37.3968 C   0  0  1  0  0  0  0  0  0  0  0  0
  -11.7940   15.9872  -38.8813 C   0  0  2  0  0  0  0  0  0  0  0  0
  -11.8845   14.5604  -36.9496 N   0  0  2  0  0  0  0  0  0  0  0  0
  -11.3349   18.8656  -40.7130 O   0  0  0  0  0  0  0  0  0  0  0  0
  -10.9931   16.8355  -39.6801 O   0  0  0  0  0  0  0  0  0  0  0  0
  -15.2864   16.1944  -38.5491 H   0  0  0  0  0  0  0  0  0  0  0  0
  -13.9716   18.3453  -39.9637 H   0  0  0  0  0  0  0  0  0  0  0  0
  -14.8369   13.9230  -37.6825 H   0  0  0  0  0  0  0  0  0  0  0  0
   -7.9826   14.9734  -37.1767 H   0  0  0  0  0  0  0  0  0  0  0  0
   -8.8973   14.8815  -38.6710 H   0  0  0  0  0  0  0  0  0  0  0  0
   -9.7451   12.8864  -37.9938 H   0  0  0  0  0  0  0  0  0  0  0  0
   -8.8412   13.0145  -36.4970 H   0  0  0  0  0  0  0  0  0  0  0  0
   -9.6689   16.2491  -36.0609 H   0  0  0  0  0  0  0  0  0  0  0  0
   -9.4735   16.9730  -37.6494 H   0  0  0  0  0  0  0  0  0  0  0  0
  -10.8790   14.0964  -39.4635 H   0  0  0  0  0  0  0  0  0  0  0  0
  -12.4198   14.3968  -40.2687 H   0  0  0  0  0  0  0  0  0  0  0  0
  -11.3160   12.6604  -36.1548 H   0  0  0  0  0  0  0  0  0  0  0  0
  -10.6448   14.0608  -35.3227 H   0  0  0  0  0  0  0  0  0  0  0  0
  -12.6523   12.8827  -38.1041 H   0  0  0  0  0  0  0  0  0  0  0  0
  -11.8752   16.6576  -36.7937 H   0  0  0  0  0  0  0  0  0  0  0  0
  1  3  2  0  0  0  0
  1  4  1  0  0  0  0
  2  4  2  0  0  0  0
  2  5  1  0  0  0  0
  3 11  1  0  0  0  0
  4 13  1  0  0  0  0
  5 15  2  0  0  0  0
  5 16  1  0  0  0  0
  6  7  1  0  0  0  0
  6  8  1  0  0  0  0
  7 10  1  0  0  0  0
  8 12  1  0  0  0  0
  9 11  1  0  0  0  0
  9 13  1  0  0  0  0
 10 14  1  0  0  0  0
 11 14  1  0  0  0  0
 12 13  1  0  0  0  0
 12 14  1  0  0  0  0
 13 16  1  0  0  0  0
  1 17  1  0  0  0  0
  2 18  1  0  0  0  0
  3 19  1  0  0  0  0
  6 20  1  0  0  0  0
  6 21  1  0  0  0  0
  7 22  1  0  0  0  0
  7 23  1  0  0  0  0
  8 24  1  0  0  0  0
  8 25  1  0  0  0  0
  9 26  1  0  0  0  0
  9 27  1  0  0  0  0
 10 28  1  0  0  0  0
 10 29  1  0  0  0  0
 11 30  1  0  0  0  0
 12 31  1  0  0  0  0
M  END
> <id>
EN300-295530

> <smiles>
O=C1OC2(CC3C=CC2=C1)C4CCCCN34

> <MDLNUMBER>
MFCD00063360

> <IUPAC Name>
14-oxa-7-azatetracyclo[6.6.1.0^{1,11}.0^{2,7}]pentadeca-9,11-dien-13-one

> <CAS>
1071758-20-7

> <URL>
https://www.enaminestore.com/catalog/EN300-295530

> <ROCS_ShapeQuery>
_x1247relevant_x1083L0AP1_x1305L0BP1_

> <ROCS_TanimotoCombo>
1.042 

> <ROCS_ShapeTanimoto>
0.536 

> <ROCS_ColorTanimoto>
0.506 

> <ROCS_RefTversky>
0.468 

> <ROCS_RefColorTversky>
0.678 

> <ROCS_RefTverskyCombo>
1.147 

> <ROCS_FitTversky>
1.368 

> <ROCS_FitColorTversky>
0.666 

> <ROCS_FitTverskyCombo>
2.034 

> <ROCS_ColorScore>
-6.563

> <ROCS_Overlap>
1157.592

> <ROCS_Rank>
194                 

$$$$
untitled-dbase-36170_0
  -OEChem-06232314403D

 28 30  0     1  0  0  0  0  0999 V2000
  -13.6741   14.4323  -39.1288 C   0  0  0  0  0  0  0  0  0  0  0  0
  -13.6933   14.4190  -37.5922 C   0  0  0  0  0  0  0  0  0  0  0  0
  -12.8882   16.5351  -38.3338 C   0  0  0  0  0  0  0  0  0  0  0  0
  -11.2290   15.0024  -39.1169 C   0  0  0  0  0  0  0  0  0  0  0  0
  -10.0718   15.7222  -36.8762 C   0  0  0  0  0  0  0  0  0  0  0  0
  -10.7305   13.6910  -36.8614 C   0  0  0  0  0  0  0  0  0  0  0  0
  -12.6426   15.5251  -39.4553 C   0  0  1  0  0  0  0  0  0  0  0  0
  -12.6663   15.5034  -37.2235 C   0  0  2  0  0  0  0  0  0  0  0  0
   -9.3431   14.3636  -36.8372 C   0  0  0  0  0  0  0  0  0  0  0  0
  -11.2611   14.9781  -37.5712 C   0  0  0  0  0  0  0  0  0  0  0  0
   -8.7420   14.1781  -35.5245 N   0  0  0  0  0  0  0  0  0  0  0  0
  -13.3996   13.4578  -39.5450 H   0  0  0  0  0  0  0  0  0  0  0  0
  -14.6636   14.7024  -39.5145 H   0  0  0  0  0  0  0  0  0  0  0  0
  -14.6910   14.6906  -37.2290 H   0  0  0  0  0  0  0  0  0  0  0  0
  -13.4426   13.4322  -37.1923 H   0  0  0  0  0  0  0  0  0  0  0  0
  -12.1542   17.3476  -38.3255 H   0  0  0  0  0  0  0  0  0  0  0  0
  -13.9011   16.9509  -38.3407 H   0  0  0  0  0  0  0  0  0  0  0  0
  -11.0449   14.0147  -39.5513 H   0  0  0  0  0  0  0  0  0  0  0  0
  -10.4696   15.6979  -39.4910 H   0  0  0  0  0  0  0  0  0  0  0  0
  -10.3325   16.1470  -35.8977 H   0  0  0  0  0  0  0  0  0  0  0  0
   -9.5772   16.5026  -37.4625 H   0  0  0  0  0  0  0  0  0  0  0  0
  -10.7917   12.7649  -37.4408 H   0  0  0  0  0  0  0  0  0  0  0  0
  -11.1896   13.5150  -35.8798 H   0  0  0  0  0  0  0  0  0  0  0  0
  -12.7289   15.9151  -40.4713 H   0  0  0  0  0  0  0  0  0  0  0  0
  -12.7695   15.8786  -36.2031 H   0  0  0  0  0  0  0  0  0  0  0  0
   -8.6992   14.1488  -37.6953 H   0  0  0  0  0  0  0  0  0  0  0  0
   -8.4590   13.2292  -35.4383 H   0  0  0  0  0  0  0  0  0  0  0  0
   -7.9566   14.7828  -35.4496 H   0  0  0  0  0  0  0  0  0  0  0  0
  1  2  1  0  0  0  0
  1  7  1  0  0  0  0
  2  8  1  0  0  0  0
  3  7  1  0  0  0  0
  3  8  1  0  0  0  0
  4  7  1  0  0  0  0
  4 10  1  0  0  0  0
  5  9  1  0  0  0  0
  5 10  1  0  0  0  0
  6  9  1  0  0  0  0
  6 10  1  0  0  0  0
  8 10  1  0  0  0  0
  9 11  1  0  0  0  0
  1 12  1  0  0  0  0
  1 13  1  0  0  0  0
  2 14  1  0  0  0  0
  2 15  1  0  0  0  0
  3 16  1  0  0  0  0
  3 17  1  0  0  0  0
  4 18  1  0  0  0  0
  4 19  1  0  0  0  0
  5 20  1  0  0  0  0
  5 21  1  0  0  0  0
  6 22  1  0  0  0  0
  6 23  1  0  0  0  0
  7 24  1  0  0  0  0
  8 25  1  0  0  0  0
  9 26  1  0  0  0  0
 11 27  1  0  0  0  0
 11 28  1  0  0  0  0
M  END
> <id>
EN300-6499839

> <smiles>
NC1CC2(C1)CC3CCC2C3

> <MDLNUMBER>
MFCD31719742

> <IUPAC Name>
spiro[bicyclo[2.2.1]heptane-2,1'-cyclobutane]-3'-amine

> <CAS>
2253630-75-8

> <URL>
https://www.enaminestore.com/catalog/EN300-6499839

> <ROCS_ShapeQuery>
_x1247relevant_x1083L0AP1_x1305L0BP1_

> <ROCS_TanimotoCombo>
1.042 

> <ROCS_ShapeTanimoto>
0.478 

> <ROCS_ColorTanimoto>
0.564 

> <ROCS_RefTversky>
0.401 

> <ROCS_RefColorTversky>
0.710 

> <ROCS_RefTverskyCombo>
1.112 

> <ROCS_FitTversky>
1.665 

> <ROCS_FitColorTversky>
0.733 

> <ROCS_FitTverskyCombo>
2.398 

> <ROCS_ColorScore>
-6.854

> <ROCS_Overlap>
986.024

> <ROCS_Rank>
195                 

$$$$
untitled-dbase-25399_0
  -OEChem-06232314403D

 28 30  0     1  0  0  0  0  0999 V2000
  -13.6741   14.4323  -39.1288 C   0  0  0  0  0  0  0  0  0  0  0  0
  -13.6933   14.4190  -37.5922 C   0  0  0  0  0  0  0  0  0  0  0  0
  -12.8882   16.5351  -38.3338 C   0  0  0  0  0  0  0  0  0  0  0  0
  -11.2290   15.0024  -39.1169 C   0  0  0  0  0  0  0  0  0  0  0  0
  -10.0718   15.7222  -36.8762 C   0  0  0  0  0  0  0  0  0  0  0  0
  -10.7305   13.6910  -36.8614 C   0  0  0  0  0  0  0  0  0  0  0  0
  -12.6426   15.5251  -39.4553 C   0  0  1  0  0  0  0  0  0  0  0  0
  -12.6663   15.5034  -37.2235 C   0  0  2  0  0  0  0  0  0  0  0  0
   -9.3431   14.3636  -36.8372 C   0  0  0  0  0  0  0  0  0  0  0  0
  -11.2611   14.9781  -37.5712 C   0  0  0  0  0  0  0  0  0  0  0  0
   -8.7420   14.1781  -35.5245 N   0  0  0  0  0  0  0  0  0  0  0  0
  -13.3996   13.4578  -39.5450 H   0  0  0  0  0  0  0  0  0  0  0  0
  -14.6636   14.7024  -39.5145 H   0  0  0  0  0  0  0  0  0  0  0  0
  -14.6910   14.6906  -37.2290 H   0  0  0  0  0  0  0  0  0  0  0  0
  -13.4426   13.4322  -37.1923 H   0  0  0  0  0  0  0  0  0  0  0  0
  -12.1542   17.3476  -38.3255 H   0  0  0  0  0  0  0  0  0  0  0  0
  -13.9011   16.9509  -38.3407 H   0  0  0  0  0  0  0  0  0  0  0  0
  -11.0449   14.0147  -39.5513 H   0  0  0  0  0  0  0  0  0  0  0  0
  -10.4696   15.6979  -39.4910 H   0  0  0  0  0  0  0  0  0  0  0  0
  -10.3325   16.1470  -35.8977 H   0  0  0  0  0  0  0  0  0  0  0  0
   -9.5772   16.5026  -37.4625 H   0  0  0  0  0  0  0  0  0  0  0  0
  -10.7917   12.7649  -37.4408 H   0  0  0  0  0  0  0  0  0  0  0  0
  -11.1896   13.5150  -35.8798 H   0  0  0  0  0  0  0  0  0  0  0  0
  -12.7289   15.9151  -40.4713 H   0  0  0  0  0  0  0  0  0  0  0  0
  -12.7695   15.8786  -36.2031 H   0  0  0  0  0  0  0  0  0  0  0  0
   -8.6992   14.1488  -37.6953 H   0  0  0  0  0  0  0  0  0  0  0  0
   -8.4590   13.2292  -35.4383 H   0  0  0  0  0  0  0  0  0  0  0  0
   -7.9566   14.7828  -35.4496 H   0  0  0  0  0  0  0  0  0  0  0  0
  1  2  1  0  0  0  0
  1  7  1  0  0  0  0
  2  8  1  0  0  0  0
  3  7  1  0  0  0  0
  3  8  1  0  0  0  0
  4  7  1  0  0  0  0
  4 10  1  0  0  0  0
  5  9  1  0  0  0  0
  5 10  1  0  0  0  0
  6  9  1  0  0  0  0
  6 10  1  0  0  0  0
  8 10  1  0  0  0  0
  9 11  1  0  0  0  0
  1 12  1  0  0  0  0
  1 13  1  0  0  0  0
  2 14  1  0  0  0  0
  2 15  1  0  0  0  0
  3 16  1  0  0  0  0
  3 17  1  0  0  0  0
  4 18  1  0  0  0  0
  4 19  1  0  0  0  0
  5 20  1  0  0  0  0
  5 21  1  0  0  0  0
  6 22  1  0  0  0  0
  6 23  1  0  0  0  0
  7 24  1  0  0  0  0
  8 25  1  0  0  0  0
  9 26  1  0  0  0  0
 11 27  1  0  0  0  0
 11 28  1  0  0  0  0
M  END
> <id>
EN300-6512627

> <smiles>
Cl.NC1CC2(C1)CC3CCC2C3

> <MDLNUMBER>
MFCD31719292

> <IUPAC Name>
spiro[bicyclo[2.2.1]heptane-2,1'-cyclobutane]-3'-amine hydrochloride

> <CAS>
2253632-87-8

> <Purity>
95

> <URL>
https://www.enaminestore.com/catalog/EN300-6512627

> <Saltdate>
Cl

> <ROCS_ShapeQuery>
_x1247relevant_x1083L0AP1_x1305L0BP1_

> <ROCS_TanimotoCombo>
1.042 

> <ROCS_ShapeTanimoto>
0.478 

> <ROCS_ColorTanimoto>
0.564 

> <ROCS_RefTversky>
0.401 

> <ROCS_RefColorTversky>
0.710 

> <ROCS_RefTverskyCombo>
1.112 

> <ROCS_FitTversky>
1.665 

> <ROCS_FitColorTversky>
0.733 

> <ROCS_FitTverskyCombo>
2.398 

> <ROCS_ColorScore>
-6.854

> <ROCS_Overlap>
986.024

> <ROCS_Rank>
196                 

$$$$
untitled-dbase-52720_0
  -OEChem-06232314403D

 18 19  0     0  0  0  0  0  0999 V2000
  -15.2565   14.0904  -40.5729 C   0  0  0  0  0  0  0  0  0  0  0  0
  -14.3684   14.4724  -39.8612 C   0  0  0  0  0  0  0  0  0  0  0  0
  -11.1976   15.6881  -38.4049 C   0  0  0  0  0  0  0  0  0  0  0  0
  -11.9689   15.2687  -39.6632 C   0  0  0  0  0  0  0  0  0  0  0  0
  -13.5815   16.0854  -38.0057 C   0  0  0  0  0  0  0  0  0  0  0  0
  -12.9489   14.1121  -37.7355 C   0  0  0  0  0  0  0  0  0  0  0  0
  -12.2937   15.4801  -37.3603 C   0  0  0  0  0  0  0  0  0  0  0  0
  -13.3099   14.9278  -39.0135 C   0  0  0  0  0  0  0  0  0  0  0  0
  -16.0444   13.7515  -41.2042 H   0  0  0  0  0  0  0  0  0  0  0  0
  -10.3288   15.0472  -38.2258 H   0  0  0  0  0  0  0  0  0  0  0  0
  -10.8682   16.7304  -38.4565 H   0  0  0  0  0  0  0  0  0  0  0  0
  -12.0440   16.0912  -40.3824 H   0  0  0  0  0  0  0  0  0  0  0  0
  -11.5038   14.4059  -40.1517 H   0  0  0  0  0  0  0  0  0  0  0  0
  -14.4968   16.0107  -37.4057 H   0  0  0  0  0  0  0  0  0  0  0  0
  -13.4977   17.1074  -38.3894 H   0  0  0  0  0  0  0  0  0  0  0  0
  -12.2661   13.2658  -37.8631 H   0  0  0  0  0  0  0  0  0  0  0  0
  -13.7861   13.7939  -37.1020 H   0  0  0  0  0  0  0  0  0  0  0  0
  -12.0826   15.6912  -36.3133 H   0  0  0  0  0  0  0  0  0  0  0  0
  1  2  3  0  0  0  0
  2  8  1  0  0  0  0
  3  4  1  0  0  0  0
  3  7  1  0  0  0  0
  4  8  1  0  0  0  0
  5  7  1  0  0  0  0
  5  8  1  0  0  0  0
  6  7  1  0  0  0  0
  6  8  1  0  0  0  0
  1  9  1  0  0  0  0
  3 10  1  0  0  0  0
  3 11  1  0  0  0  0
  4 12  1  0  0  0  0
  4 13  1  0  0  0  0
  5 14  1  0  0  0  0
  5 15  1  0  0  0  0
  6 16  1  0  0  0  0
  6 17  1  0  0  0  0
  7 18  1  0  0  0  0
M  END
> <id>
EN300-6499589

> <smiles>
C#CC1(CC2C1)CC2

> <IUPAC Name>
1-ethynylbicyclo[2.1.1]hexane

> <Purity>
95

> <URL>
https://www.enaminestore.com/catalog/EN300-6499589

> <ROCS_ShapeQuery>
_x1247relevant_x1083L0AP1_x1305L0BP1_

> <ROCS_TanimotoCombo>
1.042 

> <ROCS_ShapeTanimoto>
0.366 

> <ROCS_ColorTanimoto>
0.676 

> <ROCS_RefTversky>
0.318 

> <ROCS_RefColorTversky>
0.735 

> <ROCS_RefTverskyCombo>
1.053 

> <ROCS_FitTversky>
1.700 

> <ROCS_FitColorTversky>
0.893 

> <ROCS_FitTverskyCombo>
2.593 

> <ROCS_ColorScore>
-7.034

> <ROCS_Overlap>
780.460

> <ROCS_Rank>
197                 

$$$$
untitled-dbase-50920_6
  -OEChem-06232314403D

 30 32  0     0  0  0  0  0  0999 V2000
  -10.5866   13.6364  -37.9402 C   0  0  0  0  0  0  0  0  0  0  0  0
  -11.1912   15.3026  -36.1378 C   0  0  0  0  0  0  0  0  0  0  0  0
  -13.7532   15.8631  -37.8728 C   0  0  0  0  0  0  0  0  0  0  0  0
  -13.2139   14.4703  -39.3246 C   0  0  0  0  0  0  0  0  0  0  0  0
   -9.3048   13.6132  -37.1085 C   0  0  0  0  0  0  0  0  0  0  0  0
   -9.7111   15.6725  -36.0019 C   0  0  0  0  0  0  0  0  0  0  0  0
  -12.9894   14.5022  -37.7783 C   0  0  0  0  0  0  0  0  0  0  0  0
  -11.5080   14.7975  -37.5412 C   0  0  0  0  0  0  0  0  0  0  0  0
  -12.7189   15.9597  -39.0733 C   0  0  0  0  0  0  0  0  0  0  0  0
  -12.8448   17.0139  -40.1299 C   0  0  0  0  0  0  0  0  0  0  0  0
  -13.7136   13.4801  -37.0697 N   0  0  0  0  0  0  0  0  0  0  0  0
   -8.8511   14.9406  -36.8761 O   0  0  0  0  0  0  0  0  0  0  0  0
  -11.3733   15.8801  -38.4962 O   0  0  0  0  0  0  0  0  0  0  0  0
  -10.3053   13.6850  -39.0002 H   0  0  0  0  0  0  0  0  0  0  0  0
  -11.1224   12.6874  -37.7888 H   0  0  0  0  0  0  0  0  0  0  0  0
  -11.4221   14.5154  -35.4081 H   0  0  0  0  0  0  0  0  0  0  0  0
  -11.7850   16.1839  -35.8713 H   0  0  0  0  0  0  0  0  0  0  0  0
  -14.8179   15.8419  -38.1383 H   0  0  0  0  0  0  0  0  0  0  0  0
  -13.6133   16.5805  -37.0604 H   0  0  0  0  0  0  0  0  0  0  0  0
  -12.5500   13.8400  -39.9210 H   0  0  0  0  0  0  0  0  0  0  0  0
  -14.2387   14.3469  -39.6960 H   0  0  0  0  0  0  0  0  0  0  0  0
   -9.5036   13.1514  -36.1394 H   0  0  0  0  0  0  0  0  0  0  0  0
   -8.5192   13.0344  -37.6015 H   0  0  0  0  0  0  0  0  0  0  0  0
   -9.5562   16.7580  -36.1661 H   0  0  0  0  0  0  0  0  0  0  0  0
   -9.3762   15.4741  -34.9666 H   0  0  0  0  0  0  0  0  0  0  0  0
  -12.0436   16.9267  -40.8771 H   0  0  0  0  0  0  0  0  0  0  0  0
  -12.7870   18.0218  -39.6958 H   0  0  0  0  0  0  0  0  0  0  0  0
  -13.8044   16.9340  -40.6598 H   0  0  0  0  0  0  0  0  0  0  0  0
  -13.8688   12.7009  -37.6764 H   0  0  0  0  0  0  0  0  0  0  0  0
  -13.1814   13.1851  -36.2766 H   0  0  0  0  0  0  0  0  0  0  0  0
  1  5  1  0  0  0  0
  1  8  1  0  0  0  0
  2  6  1  0  0  0  0
  2  8  1  0  0  0  0
  3  7  1  0  0  0  0
  3  9  1  0  0  0  0
  4  7  1  0  0  0  0
  4  9  1  0  0  0  0
  5 12  1  0  0  0  0
  6 12  1  0  0  0  0
  7  8  1  0  0  0  0
  7 11  1  1  0  0  0
  8 13  1  0  0  0  0
  9 10  1  1  0  0  0
  9 13  1  0  0  0  0
  1 14  1  0  0  0  0
  1 15  1  0  0  0  0
  2 16  1  0  0  0  0
  2 17  1  0  0  0  0
  3 18  1  0  0  0  0
  3 19  1  0  0  0  0
  4 20  1  0  0  0  0
  4 21  1  0  0  0  0
  5 22  1  0  0  0  0
  5 23  1  0  0  0  0
  6 24  1  0  0  0  0
  6 25  1  0  0  0  0
 10 26  1  0  0  0  0
 10 27  1  0  0  0  0
 10 28  1  0  0  0  0
 11 29  1  0  0  0  0
 11 30  1  0  0  0  0
M  END
> <id>
EN300-37375251

> <smiles>
Cl.C[C@]1(C[C@@]2(N)C1)OC32CCOCC3

> <IUPAC Name>
4-methyl-3-oxaspiro[bicyclo[2.1.1]hexane-2,4'-oxan]-1-amine hydrochloride

> <CAS>
2241127-88-6

> <URL>
https://www.enaminestore.com/catalog/EN300-37375251

> <ROCS_ShapeQuery>
_x1247relevant_x1083L0AP1_x1305L0BP1_

> <ROCS_TanimotoCombo>
1.042 

> <ROCS_ShapeTanimoto>
0.547 

> <ROCS_ColorTanimoto>
0.494 

> <ROCS_RefTversky>
0.452 

> <ROCS_RefColorTversky>
0.725 

> <ROCS_RefTverskyCombo>
1.177 

> <ROCS_FitTversky>
1.625 

> <ROCS_FitColorTversky>
0.608 

> <ROCS_FitTverskyCombo>
2.233 

> <ROCS_ColorScore>
-7.082

> <ROCS_Overlap>
1113.703

> <ROCS_Rank>
198                 

$$$$
untitled-dbase-42146_6
  -OEChem-06232314403D

 30 32  0     0  0  0  0  0  0999 V2000
  -10.5866   13.6364  -37.9402 C   0  0  0  0  0  0  0  0  0  0  0  0
  -11.1912   15.3026  -36.1378 C   0  0  0  0  0  0  0  0  0  0  0  0
  -13.7532   15.8631  -37.8728 C   0  0  0  0  0  0  0  0  0  0  0  0
  -13.2139   14.4703  -39.3246 C   0  0  0  0  0  0  0  0  0  0  0  0
   -9.3048   13.6132  -37.1085 C   0  0  0  0  0  0  0  0  0  0  0  0
   -9.7111   15.6725  -36.0019 C   0  0  0  0  0  0  0  0  0  0  0  0
  -12.9894   14.5022  -37.7783 C   0  0  0  0  0  0  0  0  0  0  0  0
  -11.5080   14.7975  -37.5412 C   0  0  0  0  0  0  0  0  0  0  0  0
  -12.7189   15.9597  -39.0733 C   0  0  0  0  0  0  0  0  0  0  0  0
  -12.8448   17.0139  -40.1299 C   0  0  0  0  0  0  0  0  0  0  0  0
  -13.7136   13.4801  -37.0697 N   0  0  0  0  0  0  0  0  0  0  0  0
   -8.8511   14.9406  -36.8761 O   0  0  0  0  0  0  0  0  0  0  0  0
  -11.3733   15.8801  -38.4962 O   0  0  0  0  0  0  0  0  0  0  0  0
  -10.3053   13.6850  -39.0002 H   0  0  0  0  0  0  0  0  0  0  0  0
  -11.1224   12.6874  -37.7888 H   0  0  0  0  0  0  0  0  0  0  0  0
  -11.4221   14.5154  -35.4081 H   0  0  0  0  0  0  0  0  0  0  0  0
  -11.7850   16.1839  -35.8713 H   0  0  0  0  0  0  0  0  0  0  0  0
  -14.8179   15.8419  -38.1383 H   0  0  0  0  0  0  0  0  0  0  0  0
  -13.6133   16.5805  -37.0604 H   0  0  0  0  0  0  0  0  0  0  0  0
  -12.5500   13.8400  -39.9210 H   0  0  0  0  0  0  0  0  0  0  0  0
  -14.2387   14.3469  -39.6960 H   0  0  0  0  0  0  0  0  0  0  0  0
   -9.5036   13.1514  -36.1394 H   0  0  0  0  0  0  0  0  0  0  0  0
   -8.5192   13.0344  -37.6015 H   0  0  0  0  0  0  0  0  0  0  0  0
   -9.5562   16.7580  -36.1661 H   0  0  0  0  0  0  0  0  0  0  0  0
   -9.3762   15.4741  -34.9666 H   0  0  0  0  0  0  0  0  0  0  0  0
  -12.0436   16.9267  -40.8771 H   0  0  0  0  0  0  0  0  0  0  0  0
  -12.7870   18.0218  -39.6958 H   0  0  0  0  0  0  0  0  0  0  0  0
  -13.8044   16.9340  -40.6598 H   0  0  0  0  0  0  0  0  0  0  0  0
  -13.8688   12.7009  -37.6764 H   0  0  0  0  0  0  0  0  0  0  0  0
  -13.1814   13.1851  -36.2766 H   0  0  0  0  0  0  0  0  0  0  0  0
  1  5  1  0  0  0  0
  1  8  1  0  0  0  0
  2  6  1  0  0  0  0
  2  8  1  0  0  0  0
  3  7  1  0  0  0  0
  3  9  1  0  0  0  0
  4  7  1  0  0  0  0
  4  9  1  0  0  0  0
  5 12  1  0  0  0  0
  6 12  1  0  0  0  0
  7  8  1  0  0  0  0
  7 11  1  1  0  0  0
  8 13  1  0  0  0  0
  9 10  1  1  0  0  0
  9 13  1  0  0  0  0
  1 14  1  0  0  0  0
  1 15  1  0  0  0  0
  2 16  1  0  0  0  0
  2 17  1  0  0  0  0
  3 18  1  0  0  0  0
  3 19  1  0  0  0  0
  4 20  1  0  0  0  0
  4 21  1  0  0  0  0
  5 22  1  0  0  0  0
  5 23  1  0  0  0  0
  6 24  1  0  0  0  0
  6 25  1  0  0  0  0
 10 26  1  0  0  0  0
 10 27  1  0  0  0  0
 10 28  1  0  0  0  0
 11 29  1  0  0  0  0
 11 30  1  0  0  0  0
M  END
> <id>
EN300-39870146

> <smiles>
C[C@]1(C[C@@]2(N)C1)OC32CCOCC3

> <IUPAC Name>
4-methyl-3-oxaspiro[bicyclo[2.1.1]hexane-2,4'-oxan]-1-amine

> <URL>
https://www.enaminestore.com/catalog/EN300-39870146

> <ROCS_ShapeQuery>
_x1247relevant_x1083L0AP1_x1305L0BP1_

> <ROCS_TanimotoCombo>
1.042 

> <ROCS_ShapeTanimoto>
0.547 

> <ROCS_ColorTanimoto>
0.494 

> <ROCS_RefTversky>
0.452 

> <ROCS_RefColorTversky>
0.725 

> <ROCS_RefTverskyCombo>
1.177 

> <ROCS_FitTversky>
1.625 

> <ROCS_FitColorTversky>
0.608 

> <ROCS_FitTverskyCombo>
2.233 

> <ROCS_ColorScore>
-7.082

> <ROCS_Overlap>
1113.703

> <ROCS_Rank>
199                 

$$$$
untitled-dbase-23462_5
  -OEChem-06232314403D

 30 32  0     0  0  0  0  0  0999 V2000
  -10.5832   13.6413  -37.9467 C   0  0  0  0  0  0  0  0  0  0  0  0
  -11.1926   15.2983  -36.1372 C   0  0  0  0  0  0  0  0  0  0  0  0
  -13.7530   15.8641  -37.8702 C   0  0  0  0  0  0  0  0  0  0  0  0
  -13.2182   14.4709  -39.3233 C   0  0  0  0  0  0  0  0  0  0  0  0
   -9.3026   13.6168  -37.1130 C   0  0  0  0  0  0  0  0  0  0  0  0
   -9.7137   15.6721  -36.0004 C   0  0  0  0  0  0  0  0  0  0  0  0
  -12.9903   14.5013  -37.7783 C   0  0  0  0  0  0  0  0  0  0  0  0
  -11.5087   14.7975  -37.5423 C   0  0  0  0  0  0  0  0  0  0  0  0
  -12.7217   15.9606  -39.0719 C   0  0  0  0  0  0  0  0  0  0  0  0
  -12.8493   17.0152  -40.1280 C   0  0  0  0  0  0  0  0  0  0  0  0
  -13.7185   13.4880  -37.0608 N   0  0  0  0  0  0  0  0  0  0  0  0
   -8.8510   14.9437  -36.8748 O   0  0  0  0  0  0  0  0  0  0  0  0
  -11.3761   15.8821  -38.4956 O   0  0  0  0  0  0  0  0  0  0  0  0
  -10.3001   13.6971  -39.0058 H   0  0  0  0  0  0  0  0  0  0  0  0
  -11.1162   12.6899  -37.8017 H   0  0  0  0  0  0  0  0  0  0  0  0
  -11.4208   14.5077  -35.4102 H   0  0  0  0  0  0  0  0  0  0  0  0
  -11.7892   16.1767  -35.8671 H   0  0  0  0  0  0  0  0  0  0  0  0
  -14.8183   15.8431  -38.1328 H   0  0  0  0  0  0  0  0  0  0  0  0
  -13.6111   16.5806  -37.0572 H   0  0  0  0  0  0  0  0  0  0  0  0
  -12.5559   13.8406  -39.9217 H   0  0  0  0  0  0  0  0  0  0  0  0
  -14.2437   14.3488  -39.6934 H   0  0  0  0  0  0  0  0  0  0  0  0
   -9.5023   13.1510  -36.1459 H   0  0  0  0  0  0  0  0  0  0  0  0
   -8.5155   13.0407  -37.6066 H   0  0  0  0  0  0  0  0  0  0  0  0
   -9.5619   16.7583  -36.1633 H   0  0  0  0  0  0  0  0  0  0  0  0
   -9.3785   15.4737  -34.9651 H   0  0  0  0  0  0  0  0  0  0  0  0
  -12.0495   16.9280  -40.8768 H   0  0  0  0  0  0  0  0  0  0  0  0
  -12.7900   18.0231  -39.6936 H   0  0  0  0  0  0  0  0  0  0  0  0
  -13.8099   16.9361  -40.6560 H   0  0  0  0  0  0  0  0  0  0  0  0
  -13.8827   12.7069  -37.6626 H   0  0  0  0  0  0  0  0  0  0  0  0
  -13.1844   13.1928  -36.2689 H   0  0  0  0  0  0  0  0  0  0  0  0
  1  5  1  0  0  0  0
  1  8  1  0  0  0  0
  2  6  1  0  0  0  0
  2  8  1  0  0  0  0
  3  7  1  0  0  0  0
  3  9  1  0  0  0  0
  4  7  1  0  0  0  0
  4  9  1  0  0  0  0
  5 12  1  0  0  0  0
  6 12  1  0  0  0  0
  7  8  1  0  0  0  0
  7 11  1  0  0  0  0
  8 13  1  0  0  0  0
  9 10  1  0  0  0  0
  9 13  1  0  0  0  0
  1 14  1  0  0  0  0
  1 15  1  0  0  0  0
  2 16  1  0  0  0  0
  2 17  1  0  0  0  0
  3 18  1  0  0  0  0
  3 19  1  0  0  0  0
  4 20  1  0  0  0  0
  4 21  1  0  0  0  0
  5 22  1  0  0  0  0
  5 23  1  0  0  0  0
  6 24  1  0  0  0  0
  6 25  1  0  0  0  0
 10 26  1  0  0  0  0
 10 27  1  0  0  0  0
 10 28  1  0  0  0  0
 11 29  1  0  0  0  0
 11 30  1  0  0  0  0
M  END
> <id>
EN300-6479151

> <smiles>
CC1(CC2(N)C1)OC32CCOCC3

> <MDLNUMBER>
MFCD31667643

> <IUPAC Name>
4-methyl-3-oxaspiro[bicyclo[2.1.1]hexane-2,4'-oxane]-1-amine

> <CAS>
2241127-87-5

> <URL>
https://www.enaminestore.com/catalog/EN300-6479151

> <ROCS_ShapeQuery>
_x1247relevant_x1083L0AP1_x1305L0BP1_

> <ROCS_TanimotoCombo>
1.042 

> <ROCS_ShapeTanimoto>
0.547 

> <ROCS_ColorTanimoto>
0.494 

> <ROCS_RefTversky>
0.452 

> <ROCS_RefColorTversky>
0.725 

> <ROCS_RefTverskyCombo>
1.177 

> <ROCS_FitTversky>
1.625 

> <ROCS_FitColorTversky>
0.608 

> <ROCS_FitTverskyCombo>
2.233 

> <ROCS_ColorScore>
-7.082

> <ROCS_Overlap>
1113.665

> <ROCS_Rank>
200                 

$$$$
untitled-dbase-35815_5
  -OEChem-06232314403D

 30 32  0     0  0  0  0  0  0999 V2000
  -10.5832   13.6413  -37.9467 C   0  0  0  0  0  0  0  0  0  0  0  0
  -11.1926   15.2983  -36.1372 C   0  0  0  0  0  0  0  0  0  0  0  0
  -13.7530   15.8641  -37.8702 C   0  0  0  0  0  0  0  0  0  0  0  0
  -13.2182   14.4709  -39.3233 C   0  0  0  0  0  0  0  0  0  0  0  0
   -9.3026   13.6168  -37.1130 C   0  0  0  0  0  0  0  0  0  0  0  0
   -9.7137   15.6721  -36.0004 C   0  0  0  0  0  0  0  0  0  0  0  0
  -12.9903   14.5013  -37.7783 C   0  0  0  0  0  0  0  0  0  0  0  0
  -11.5087   14.7975  -37.5423 C   0  0  0  0  0  0  0  0  0  0  0  0
  -12.7217   15.9606  -39.0719 C   0  0  0  0  0  0  0  0  0  0  0  0
  -12.8493   17.0152  -40.1280 C   0  0  0  0  0  0  0  0  0  0  0  0
  -13.7185   13.4880  -37.0608 N   0  0  0  0  0  0  0  0  0  0  0  0
   -8.8510   14.9437  -36.8748 O   0  0  0  0  0  0  0  0  0  0  0  0
  -11.3761   15.8821  -38.4956 O   0  0  0  0  0  0  0  0  0  0  0  0
  -10.3001   13.6971  -39.0058 H   0  0  0  0  0  0  0  0  0  0  0  0
  -11.1162   12.6899  -37.8017 H   0  0  0  0  0  0  0  0  0  0  0  0
  -11.4208   14.5077  -35.4102 H   0  0  0  0  0  0  0  0  0  0  0  0
  -11.7892   16.1767  -35.8671 H   0  0  0  0  0  0  0  0  0  0  0  0
  -14.8183   15.8431  -38.1328 H   0  0  0  0  0  0  0  0  0  0  0  0
  -13.6111   16.5806  -37.0572 H   0  0  0  0  0  0  0  0  0  0  0  0
  -12.5559   13.8406  -39.9217 H   0  0  0  0  0  0  0  0  0  0  0  0
  -14.2437   14.3488  -39.6934 H   0  0  0  0  0  0  0  0  0  0  0  0
   -9.5023   13.1510  -36.1459 H   0  0  0  0  0  0  0  0  0  0  0  0
   -8.5155   13.0407  -37.6066 H   0  0  0  0  0  0  0  0  0  0  0  0
   -9.5619   16.7583  -36.1633 H   0  0  0  0  0  0  0  0  0  0  0  0
   -9.3785   15.4737  -34.9651 H   0  0  0  0  0  0  0  0  0  0  0  0
  -12.0495   16.9280  -40.8768 H   0  0  0  0  0  0  0  0  0  0  0  0
  -12.7900   18.0231  -39.6936 H   0  0  0  0  0  0  0  0  0  0  0  0
  -13.8099   16.9361  -40.6560 H   0  0  0  0  0  0  0  0  0  0  0  0
  -13.8827   12.7069  -37.6626 H   0  0  0  0  0  0  0  0  0  0  0  0
  -13.1844   13.1928  -36.2689 H   0  0  0  0  0  0  0  0  0  0  0  0
  1  5  1  0  0  0  0
  1  8  1  0  0  0  0
  2  6  1  0  0  0  0
  2  8  1  0  0  0  0
  3  7  1  0  0  0  0
  3  9  1  0  0  0  0
  4  7  1  0  0  0  0
  4  9  1  0  0  0  0
  5 12  1  0  0  0  0
  6 12  1  0  0  0  0
  7  8  1  0  0  0  0
  7 11  1  0  0  0  0
  8 13  1  0  0  0  0
  9 10  1  0  0  0  0
  9 13  1  0  0  0  0
  1 14  1  0  0  0  0
  1 15  1  0  0  0  0
  2 16  1  0  0  0  0
  2 17  1  0  0  0  0
  3 18  1  0  0  0  0
  3 19  1  0  0  0  0
  4 20  1  0  0  0  0
  4 21  1  0  0  0  0
  5 22  1  0  0  0  0
  5 23  1  0  0  0  0
  6 24  1  0  0  0  0
  6 25  1  0  0  0  0
 10 26  1  0  0  0  0
 10 27  1  0  0  0  0
 10 28  1  0  0  0  0
 11 29  1  0  0  0  0
 11 30  1  0  0  0  0
M  END
> <id>
EN300-6479150

> <smiles>
Cl.CC1(CC2(N)C1)OC32CCOCC3

> <MDLNUMBER>
MFCD31666974

> <IUPAC Name>
4-methyl-3-oxaspiro[bicyclo[2.1.1]hexane-2,4'-oxane]-1-amine hydrochloride

> <CAS>
2241127-88-6

> <Purity>
95

> <URL>
https://www.enaminestore.com/catalog/EN300-6479150

> <Saltdate>
Cl

> <ROCS_ShapeQuery>
_x1247relevant_x1083L0AP1_x1305L0BP1_

> <ROCS_TanimotoCombo>
1.042 

> <ROCS_ShapeTanimoto>
0.547 

> <ROCS_ColorTanimoto>
0.494 

> <ROCS_RefTversky>
0.452 

> <ROCS_RefColorTversky>
0.725 

> <ROCS_RefTverskyCombo>
1.177 

> <ROCS_FitTversky>
1.625 

> <ROCS_FitColorTversky>
0.608 

> <ROCS_FitTverskyCombo>
2.233 

> <ROCS_ColorScore>
-7.082

> <ROCS_Overlap>
1113.665

> <ROCS_Rank>
201                 

$$$$
untitled-dbase-41155_0
  -OEChem-06232314403D

 30 32  0     0  0  0  0  0  0999 V2000
  -11.3299   15.3923  -37.0704 C   0  0  0  0  0  0  0  0  0  0  0  0
  -11.8919   16.5599  -39.2154 C   0  0  0  0  0  0  0  0  0  0  0  0
  -13.6308   16.3234  -37.4149 C   0  0  0  0  0  0  0  0  0  0  0  0
  -11.5345   14.0863  -39.1982 C   0  0  0  0  0  0  0  0  0  0  0  0
  -13.2774   13.8502  -37.3936 C   0  0  0  0  0  0  0  0  0  0  0  0
  -12.1339   16.5452  -37.6955 C   0  0  0  0  0  0  0  0  0  0  0  0
  -11.7777   14.0516  -37.6783 C   0  0  0  0  0  0  0  0  0  0  0  0
  -12.3543   15.2236  -39.8407 C   0  0  0  0  0  0  0  0  0  0  0  0
  -14.0968   14.9868  -38.0381 C   0  0  0  0  0  0  0  0  0  0  0  0
  -13.8709   15.0216  -39.5736 C   0  0  0  0  0  0  0  0  0  0  0  0
  -14.4301   13.7811  -40.2825 C   0  0  0  0  0  0  0  0  0  0  0  0
  -14.5790   16.1372  -40.1321 O   0  0  0  0  0  0  0  0  0  0  0  0
  -10.2577   15.5443  -37.2452 H   0  0  0  0  0  0  0  0  0  0  0  0
  -11.4761   15.3790  -35.9834 H   0  0  0  0  0  0  0  0  0  0  0  0
  -12.4225   17.4037  -39.6721 H   0  0  0  0  0  0  0  0  0  0  0  0
  -10.8253   16.7164  -39.4208 H   0  0  0  0  0  0  0  0  0  0  0  0
  -13.8089   16.3105  -36.3322 H   0  0  0  0  0  0  0  0  0  0  0  0
  -14.2161   17.1594  -37.8158 H   0  0  0  0  0  0  0  0  0  0  0  0
  -10.4666   14.2417  -39.3981 H   0  0  0  0  0  0  0  0  0  0  0  0
  -11.7895   13.1193  -39.6445 H   0  0  0  0  0  0  0  0  0  0  0  0
  -13.6049   12.8736  -37.7656 H   0  0  0  0  0  0  0  0  0  0  0  0
  -13.4498   13.8381  -36.3098 H   0  0  0  0  0  0  0  0  0  0  0  0
  -11.8123   17.4976  -37.2598 H   0  0  0  0  0  0  0  0  0  0  0  0
  -11.2024   13.2341  -37.2297 H   0  0  0  0  0  0  0  0  0  0  0  0
  -12.1637   15.2628  -40.9200 H   0  0  0  0  0  0  0  0  0  0  0  0
  -15.1625   14.8547  -37.8157 H   0  0  0  0  0  0  0  0  0  0  0  0
  -15.4901   13.6861  -40.0639 H   0  0  0  0  0  0  0  0  0  0  0  0
  -13.9071   12.8963  -39.9305 H   0  0  0  0  0  0  0  0  0  0  0  0
  -14.2891   13.8826  -41.3550 H   0  0  0  0  0  0  0  0  0  0  0  0
  -15.5151   15.9783  -39.9480 H   0  0  0  0  0  0  0  0  0  0  0  0
  1  6  1  0  0  0  0
  1  7  1  0  0  0  0
  2  6  1  0  0  0  0
  2  8  1  0  0  0  0
  3  6  1  0  0  0  0
  3  9  1  0  0  0  0
  4  7  1  0  0  0  0
  4  8  1  0  0  0  0
  5  7  1  0  0  0  0
  5  9  1  0  0  0  0
  8 10  1  0  0  0  0
  9 10  1  0  0  0  0
 10 11  1  0  0  0  0
 10 12  1  0  0  0  0
  1 13  1  0  0  0  0
  1 14  1  0  0  0  0
  2 15  1  0  0  0  0
  2 16  1  0  0  0  0
  3 17  1  0  0  0  0
  3 18  1  0  0  0  0
  4 19  1  0  0  0  0
  4 20  1  0  0  0  0
  5 21  1  0  0  0  0
  5 22  1  0  0  0  0
  6 23  1  0  0  0  0
  7 24  1  0  0  0  0
  8 25  1  0  0  0  0
  9 26  1  0  0  0  0
 11 27  1  0  0  0  0
 11 28  1  0  0  0  0
 11 29  1  0  0  0  0
 12 30  1  0  0  0  0
M  END
> <id>
EN300-3458567

> <smiles>
CC1(O)C2CC3CC(C2)CC1C3

> <IUPAC Name>
2-methyladamantan-2-ol

> <CAS>
702-98-7

> <Purity>
95

> <URL>
https://www.enaminestore.com/catalog/EN300-3458567

> <MP>
215-217

> <ROCS_ShapeQuery>
_x1247relevant_x1083L0AP1_x1305L0BP1_

> <ROCS_TanimotoCombo>
1.042 

> <ROCS_ShapeTanimoto>
0.474 

> <ROCS_ColorTanimoto>
0.567 

> <ROCS_RefTversky>
0.405 

> <ROCS_RefColorTversky>
0.683 

> <ROCS_RefTverskyCombo>
1.088 

> <ROCS_FitTversky>
1.561 

> <ROCS_FitColorTversky>
0.770 

> <ROCS_FitTverskyCombo>
2.332 

> <ROCS_ColorScore>
-6.558

> <ROCS_Overlap>
997.202

> <ROCS_Rank>
202                 

$$$$
untitled-dbase-53937_0
  -OEChem-06232314403D

 27 28  0     0  0  0  0  0  0999 V2000
  -12.7708   15.6052  -36.7289 C   0  0  0  0  0  0  0  0  0  0  0  0
  -11.0442   15.7505  -38.5395 C   0  0  0  0  0  0  0  0  0  0  0  0
  -12.3242   13.6233  -38.1956 C   0  0  0  0  0  0  0  0  0  0  0  0
  -13.8424   16.0910  -37.7155 C   0  0  0  0  0  0  0  0  0  0  0  0
  -12.1186   16.2349  -39.5237 C   0  0  0  0  0  0  0  0  0  0  0  0
  -13.3980   14.1124  -39.1780 C   0  0  0  0  0  0  0  0  0  0  0  0
  -11.6640   14.8196  -37.4707 C   0  0  0  0  0  0  0  0  0  0  0  0
  -13.4854   15.6462  -39.1424 C   0  0  0  0  0  0  0  0  0  0  0  0
  -10.5952   14.3352  -36.4906 C   0  0  0  0  0  0  0  0  0  0  0  0
  -14.5054   16.1211  -40.0761 N   0  0  0  0  0  0  0  0  0  0  0  0
  -12.3421   16.4665  -36.2012 H   0  0  0  0  0  0  0  0  0  0  0  0
  -13.2393   14.9751  -35.9625 H   0  0  0  0  0  0  0  0  0  0  0  0
  -10.2528   15.2275  -39.0910 H   0  0  0  0  0  0  0  0  0  0  0  0
  -10.5686   16.6169  -38.0628 H   0  0  0  0  0  0  0  0  0  0  0  0
  -12.7789   12.9384  -37.4687 H   0  0  0  0  0  0  0  0  0  0  0  0
  -11.5696   13.0411  -38.7391 H   0  0  0  0  0  0  0  0  0  0  0  0
  -14.8202   15.6933  -37.4140 H   0  0  0  0  0  0  0  0  0  0  0  0
  -13.9220   17.1842  -37.6554 H   0  0  0  0  0  0  0  0  0  0  0  0
  -12.1491   17.3321  -39.5176 H   0  0  0  0  0  0  0  0  0  0  0  0
  -11.8362   15.9399  -40.5428 H   0  0  0  0  0  0  0  0  0  0  0  0
  -13.1552   13.7572  -40.1882 H   0  0  0  0  0  0  0  0  0  0  0  0
  -14.3631   13.6596  -38.9158 H   0  0  0  0  0  0  0  0  0  0  0  0
   -9.8255   13.7853  -37.0285 H   0  0  0  0  0  0  0  0  0  0  0  0
  -11.0476   13.6824  -35.7467 H   0  0  0  0  0  0  0  0  0  0  0  0
  -10.1419   15.1885  -35.9899 H   0  0  0  0  0  0  0  0  0  0  0  0
  -15.3767   15.7313  -39.8062 H   0  0  0  0  0  0  0  0  0  0  0  0
  -14.5321   17.1115  -40.0259 H   0  0  0  0  0  0  0  0  0  0  0  0
  1  4  1  0  0  0  0
  1  7  1  0  0  0  0
  2  5  1  0  0  0  0
  2  7  1  0  0  0  0
  3  6  1  0  0  0  0
  3  7  1  0  0  0  0
  4  8  1  0  0  0  0
  5  8  1  0  0  0  0
  6  8  1  0  0  0  0
  7  9  1  0  0  0  0
  8 10  1  0  0  0  0
  1 11  1  0  0  0  0
  1 12  1  0  0  0  0
  2 13  1  0  0  0  0
  2 14  1  0  0  0  0
  3 15  1  0  0  0  0
  3 16  1  0  0  0  0
  4 17  1  0  0  0  0
  4 18  1  0  0  0  0
  5 19  1  0  0  0  0
  5 20  1  0  0  0  0
  6 21  1  0  0  0  0
  6 22  1  0  0  0  0
  9 23  1  0  0  0  0
  9 24  1  0  0  0  0
  9 25  1  0  0  0  0
 10 26  1  0  0  0  0
 10 27  1  0  0  0  0
M  END
> <id>
EN300-6960219

> <smiles>
CC1(CCC2(N)CC1)CC2

> <MDLNUMBER>
MFCD19216180

> <IUPAC Name>
4-methylbicyclo[2.2.2]octan-1-amine

> <CAS>
1123-38-2

> <URL>
https://www.enaminestore.com/catalog/EN300-6960219

> <ROCS_ShapeQuery>
_x1247relevant_x1083L0AP1_x1305L0BP1_

> <ROCS_TanimotoCombo>
1.041 

> <ROCS_ShapeTanimoto>
0.451 

> <ROCS_ColorTanimoto>
0.590 

> <ROCS_RefTversky>
0.379 

> <ROCS_RefColorTversky>
0.684 

> <ROCS_RefTverskyCombo>
1.063 

> <ROCS_FitTversky>
1.735 

> <ROCS_FitColorTversky>
0.812 

> <ROCS_FitTverskyCombo>
2.547 

> <ROCS_ColorScore>
-6.554

> <ROCS_Overlap>
929.344

> <ROCS_Rank>
203                 

$$$$
untitled-dbase-53815_0
  -OEChem-06232314403D

 27 28  0     0  0  0  0  0  0999 V2000
  -12.7708   15.6052  -36.7289 C   0  0  0  0  0  0  0  0  0  0  0  0
  -11.0442   15.7505  -38.5395 C   0  0  0  0  0  0  0  0  0  0  0  0
  -12.3242   13.6233  -38.1956 C   0  0  0  0  0  0  0  0  0  0  0  0
  -13.8424   16.0910  -37.7155 C   0  0  0  0  0  0  0  0  0  0  0  0
  -12.1186   16.2349  -39.5237 C   0  0  0  0  0  0  0  0  0  0  0  0
  -13.3980   14.1124  -39.1780 C   0  0  0  0  0  0  0  0  0  0  0  0
  -11.6640   14.8196  -37.4707 C   0  0  0  0  0  0  0  0  0  0  0  0
  -13.4854   15.6462  -39.1424 C   0  0  0  0  0  0  0  0  0  0  0  0
  -10.5952   14.3352  -36.4906 C   0  0  0  0  0  0  0  0  0  0  0  0
  -14.5054   16.1211  -40.0761 N   0  0  0  0  0  0  0  0  0  0  0  0
  -12.3421   16.4665  -36.2012 H   0  0  0  0  0  0  0  0  0  0  0  0
  -13.2393   14.9751  -35.9625 H   0  0  0  0  0  0  0  0  0  0  0  0
  -10.2528   15.2275  -39.0910 H   0  0  0  0  0  0  0  0  0  0  0  0
  -10.5686   16.6169  -38.0628 H   0  0  0  0  0  0  0  0  0  0  0  0
  -12.7789   12.9384  -37.4687 H   0  0  0  0  0  0  0  0  0  0  0  0
  -11.5696   13.0411  -38.7391 H   0  0  0  0  0  0  0  0  0  0  0  0
  -14.8202   15.6933  -37.4140 H   0  0  0  0  0  0  0  0  0  0  0  0
  -13.9220   17.1842  -37.6554 H   0  0  0  0  0  0  0  0  0  0  0  0
  -12.1491   17.3321  -39.5176 H   0  0  0  0  0  0  0  0  0  0  0  0
  -11.8362   15.9399  -40.5428 H   0  0  0  0  0  0  0  0  0  0  0  0
  -13.1552   13.7572  -40.1882 H   0  0  0  0  0  0  0  0  0  0  0  0
  -14.3631   13.6596  -38.9158 H   0  0  0  0  0  0  0  0  0  0  0  0
   -9.8255   13.7853  -37.0285 H   0  0  0  0  0  0  0  0  0  0  0  0
  -11.0476   13.6824  -35.7467 H   0  0  0  0  0  0  0  0  0  0  0  0
  -10.1419   15.1885  -35.9899 H   0  0  0  0  0  0  0  0  0  0  0  0
  -15.3767   15.7313  -39.8062 H   0  0  0  0  0  0  0  0  0  0  0  0
  -14.5321   17.1115  -40.0259 H   0  0  0  0  0  0  0  0  0  0  0  0
  1  4  1  0  0  0  0
  1  7  1  0  0  0  0
  2  5  1  0  0  0  0
  2  7  1  0  0  0  0
  3  6  1  0  0  0  0
  3  7  1  0  0  0  0
  4  8  1  0  0  0  0
  5  8  1  0  0  0  0
  6  8  1  0  0  0  0
  7  9  1  0  0  0  0
  8 10  1  0  0  0  0
  1 11  1  0  0  0  0
  1 12  1  0  0  0  0
  2 13  1  0  0  0  0
  2 14  1  0  0  0  0
  3 15  1  0  0  0  0
  3 16  1  0  0  0  0
  4 17  1  0  0  0  0
  4 18  1  0  0  0  0
  5 19  1  0  0  0  0
  5 20  1  0  0  0  0
  6 21  1  0  0  0  0
  6 22  1  0  0  0  0
  9 23  1  0  0  0  0
  9 24  1  0  0  0  0
  9 25  1  0  0  0  0
 10 26  1  0  0  0  0
 10 27  1  0  0  0  0
M  END
> <id>
EN300-7731712

> <smiles>
Cl.CC1(CCC2(N)CC1)CC2

> <MDLNUMBER>
MFCD28014943

> <IUPAC Name>
4-methylbicyclo[2.2.2]octan-1-amine hydrochloride

> <Purity>
95

> <URL>
https://www.enaminestore.com/catalog/EN300-7731712

> <Saltdate>
Cl

> <ROCS_ShapeQuery>
_x1247relevant_x1083L0AP1_x1305L0BP1_

> <ROCS_TanimotoCombo>
1.041 

> <ROCS_ShapeTanimoto>
0.451 

> <ROCS_ColorTanimoto>
0.590 

> <ROCS_RefTversky>
0.379 

> <ROCS_RefColorTversky>
0.684 

> <ROCS_RefTverskyCombo>
1.063 

> <ROCS_FitTversky>
1.735 

> <ROCS_FitColorTversky>
0.812 

> <ROCS_FitTverskyCombo>
2.547 

> <ROCS_ColorScore>
-6.554

> <ROCS_Overlap>
929.344

> <ROCS_Rank>
204                 

$$$$
untitled-dbase-25910_0
  -OEChem-06232314403D

 28 30  0     1  0  0  0  0  0999 V2000
  -10.0984   12.0415  -37.3088 C   0  0  0  0  0  0  0  0  0  0  0  0
  -10.8204   12.9521  -37.6098 C   0  0  0  0  0  0  0  0  0  0  0  0
  -12.4536   16.9299  -37.8196 C   0  0  0  0  0  0  0  0  0  0  0  0
  -12.3505   14.6806  -36.7129 C   0  0  0  0  0  0  0  0  0  0  0  0
  -10.9008   15.1710  -38.7071 C   0  0  0  0  0  0  0  0  0  0  0  0
  -14.3828   15.3396  -38.0285 C   0  0  0  0  0  0  0  0  0  0  0  0
  -12.9333   15.8296  -40.0228 C   0  0  0  0  0  0  0  0  0  0  0  0
  -12.8307   13.5737  -38.9183 C   0  0  0  0  0  0  0  0  0  0  0  0
  -13.2745   15.8518  -37.0914 C   0  0  2  0  0  0  0  0  0  0  0  0
  -11.8201   16.3435  -39.0928 C   0  0  1  0  0  0  0  0  0  0  0  0
  -11.7066   14.0706  -37.9791 C   0  0  0  0  0  0  0  0  0  0  0  0
  -13.7493   14.7476  -39.2977 C   0  0  0  0  0  0  0  0  0  0  0  0
  -15.1621   14.1040  -40.4827 Br  0  0  0  0  0  0  0  0  0  0  0  0
   -9.4581   11.2335  -37.0419 H   0  0  0  0  0  0  0  0  0  0  0  0
  -13.0977   17.7790  -38.0789 H   0  0  0  0  0  0  0  0  0  0  0  0
  -11.6703   17.3156  -37.1556 H   0  0  0  0  0  0  0  0  0  0  0  0
  -11.5739   15.0324  -36.0203 H   0  0  0  0  0  0  0  0  0  0  0  0
  -12.9245   13.9180  -36.1695 H   0  0  0  0  0  0  0  0  0  0  0  0
  -10.4242   14.7635  -39.6089 H   0  0  0  0  0  0  0  0  0  0  0  0
  -10.0862   15.5358  -38.0669 H   0  0  0  0  0  0  0  0  0  0  0  0
  -14.9879   14.5859  -37.5078 H   0  0  0  0  0  0  0  0  0  0  0  0
  -15.0624   16.1641  -38.2812 H   0  0  0  0  0  0  0  0  0  0  0  0
  -13.5776   16.6659  -40.3243 H   0  0  0  0  0  0  0  0  0  0  0  0
  -12.4899   15.4301  -40.9444 H   0  0  0  0  0  0  0  0  0  0  0  0
  -12.3964   13.1187  -39.8200 H   0  0  0  0  0  0  0  0  0  0  0  0
  -13.4082   12.7769  -38.4281 H   0  0  0  0  0  0  0  0  0  0  0  0
  -13.7228   16.2766  -36.1864 H   0  0  0  0  0  0  0  0  0  0  0  0
  -11.2376   17.1168  -39.6059 H   0  0  0  0  0  0  0  0  0  0  0  0
  1  2  3  0  0  0  0
  2 11  1  0  0  0  0
  3  9  1  0  0  0  0
  3 10  1  0  0  0  0
  4  9  1  0  0  0  0
  4 11  1  0  0  0  0
  5 10  1  0  0  0  0
  5 11  1  0  0  0  0
  6  9  1  0  0  0  0
  6 12  1  0  0  0  0
  7 10  1  0  0  0  0
  7 12  1  0  0  0  0
  8 11  1  0  0  0  0
  8 12  1  0  0  0  0
 12 13  1  0  0  0  0
  1 14  1  0  0  0  0
  3 15  1  0  0  0  0
  3 16  1  0  0  0  0
  4 17  1  0  0  0  0
  4 18  1  0  0  0  0
  5 19  1  0  0  0  0
  5 20  1  0  0  0  0
  6 21  1  0  0  0  0
  6 22  1  0  0  0  0
  7 23  1  0  0  0  0
  7 24  1  0  0  0  0
  8 25  1  0  0  0  0
  8 26  1  0  0  0  0
  9 27  1  0  0  0  0
 10 28  1  0  0  0  0
M  END
> <id>
EN300-6734344

> <smiles>
BrC1(CC2CC3C1)CC(C2)(C3)C#C

> <IUPAC Name>
1-bromo-3-ethynyladamantane

> <CAS>
2260931-54-0

> <Purity>
95

> <URL>
https://www.enaminestore.com/catalog/EN300-6734344

> <ROCS_ShapeQuery>
_x1247relevant_x1083L0AP1_x1305L0BP1_

> <ROCS_TanimotoCombo>
1.041 

> <ROCS_ShapeTanimoto>
0.472 

> <ROCS_ColorTanimoto>
0.569 

> <ROCS_RefTversky>
0.407 

> <ROCS_RefColorTversky>
0.685 

> <ROCS_RefTverskyCombo>
1.092 

> <ROCS_FitTversky>
1.501 

> <ROCS_FitColorTversky>
0.772 

> <ROCS_FitTverskyCombo>
2.273 

> <ROCS_ColorScore>
-6.579

> <ROCS_Overlap>
1002.958

> <ROCS_Rank>
205                 

$$$$
untitled-dbase-2216_0
  -OEChem-06232314403D

 26 28  0     1  0  0  0  0  0999 V2000
   -9.5578   15.1942  -36.1142 C   0  0  0  0  0  0  0  0  0  0  0  0
  -13.2088   16.0948  -39.3562 C   0  0  0  0  0  0  0  0  0  0  0  0
  -13.4511   14.7785  -39.4423 C   0  0  0  0  0  0  0  0  0  0  0  0
   -9.7862   13.8799  -36.1844 C   0  0  0  0  0  0  0  0  0  0  0  0
  -10.2527   16.1903  -36.9499 C   0  0  0  0  0  0  0  0  0  0  0  0
  -10.7795   13.3220  -37.1386 C   0  0  0  0  0  0  0  0  0  0  0  0
  -13.2620   15.2801  -37.1967 C   0  0  0  0  0  0  0  0  0  0  0  0
  -12.5287   16.3375  -38.0282 C   0  0  1  0  0  0  0  0  0  0  0  0
  -12.9328   14.1450  -38.1714 C   0  0  2  0  0  0  0  0  0  0  0  0
  -11.1009   15.7321  -38.1123 C   0  0  2  0  0  0  0  0  0  0  0  0
  -11.3804   14.2087  -38.2100 C   0  0  1  0  0  0  0  0  0  0  0  0
   -9.0847   12.9036  -35.2878 C   0  0  0  0  0  0  0  0  0  0  0  0
  -10.0990   17.3868  -36.7020 O   0  0  0  0  0  0  0  0  0  0  0  0
  -11.0852   12.1295  -37.0747 O   0  0  0  0  0  0  0  0  0  0  0  0
   -8.8488   15.5931  -35.3943 H   0  0  0  0  0  0  0  0  0  0  0  0
  -13.4078   16.8347  -40.1147 H   0  0  0  0  0  0  0  0  0  0  0  0
  -13.8820   14.2592  -40.2832 H   0  0  0  0  0  0  0  0  0  0  0  0
  -12.8397   15.1367  -36.1965 H   0  0  0  0  0  0  0  0  0  0  0  0
  -14.3386   15.4722  -37.0992 H   0  0  0  0  0  0  0  0  0  0  0  0
  -12.6189   17.3550  -37.6451 H   0  0  0  0  0  0  0  0  0  0  0  0
  -13.3885   13.1868  -37.9177 H   0  0  0  0  0  0  0  0  0  0  0  0
  -10.5852   16.0699  -39.0217 H   0  0  0  0  0  0  0  0  0  0  0  0
  -10.9991   13.8292  -39.1682 H   0  0  0  0  0  0  0  0  0  0  0  0
   -9.6669   12.7610  -34.3802 H   0  0  0  0  0  0  0  0  0  0  0  0
   -8.0993   13.2878  -35.0322 H   0  0  0  0  0  0  0  0  0  0  0  0
   -8.9738   11.9519  -35.8032 H   0  0  0  0  0  0  0  0  0  0  0  0
  1  4  2  0  0  0  0
  1  5  1  0  0  0  0
  2  3  2  0  0  0  0
  2  8  1  0  0  0  0
  3  9  1  0  0  0  0
  4  6  1  0  0  0  0
  4 12  1  0  0  0  0
  5 10  1  0  0  0  0
  5 13  2  0  0  0  0
  6 11  1  0  0  0  0
  6 14  2  0  0  0  0
  7  8  1  0  0  0  0
  7  9  1  0  0  0  0
  8 10  1  0  0  0  0
  9 11  1  0  0  0  0
 10 11  1  0  0  0  0
  1 15  1  0  0  0  0
  2 16  1  0  0  0  0
  3 17  1  0  0  0  0
  7 18  1  0  0  0  0
  7 19  1  0  0  0  0
  8 20  1  0  0  0  0
  9 21  1  0  0  0  0
 10 22  1  0  0  0  0
 11 23  1  0  0  0  0
 12 24  1  0  0  0  0
 12 25  1  0  0  0  0
 12 26  1  0  0  0  0
M  END
> <id>
EN300-54546

> <smiles>
CC1=CC(=O)C2C3CC(C=C3)C2C1=O

> <MDLNUMBER>
MFCD00547214

> <IUPAC Name>
4-methyltricyclo[6.2.1.0,2,7]undeca-4,9-diene-3,6-dione

> <CAS>
70050-88-3

> <Purity>
90

> <URL>
https://www.enaminestore.com/catalog/EN300-54546

> <ROCS_ShapeQuery>
_x1247relevant_x1083L0AP1_x1305L0BP1_

> <ROCS_TanimotoCombo>
1.041 

> <ROCS_ShapeTanimoto>
0.484 

> <ROCS_ColorTanimoto>
0.556 

> <ROCS_RefTversky>
0.424 

> <ROCS_RefColorTversky>
0.706 

> <ROCS_RefTverskyCombo>
1.131 

> <ROCS_FitTversky>
1.413 

> <ROCS_FitColorTversky>
0.724 

> <ROCS_FitTverskyCombo>
2.137 

> <ROCS_ColorScore>
-6.818

> <ROCS_Overlap>
1045.762

> <ROCS_Rank>
206                 

$$$$
untitled-dbase-23941_0
  -OEChem-06232314403D

 28 30  0     1  0  0  0  0  0999 V2000
  -10.7843   13.3815  -36.7978 C   0  0  0  0  0  0  0  0  0  0  0  0
   -9.6270   13.6779  -36.1910 C   0  0  0  0  0  0  0  0  0  0  0  0
  -11.4658   14.3572  -37.6150 C   0  0  0  0  0  0  0  0  0  0  0  0
  -10.9321   15.5846  -37.7690 C   0  0  0  0  0  0  0  0  0  0  0  0
   -9.0283   15.0354  -36.3583 C   0  0  0  0  0  0  0  0  0  0  0  0
  -11.6249   16.6310  -38.6110 C   0  0  0  0  0  0  0  0  0  0  0  0
  -13.9331   14.6004  -37.4878 C   0  0  0  0  0  0  0  0  0  0  0  0
  -14.0375   16.0491  -37.9786 C   0  0  0  0  0  0  0  0  0  0  0  0
  -12.7749   14.0137  -38.3037 C   0  0  1  0  0  0  0  0  0  0  0  0
  -13.0140   16.1559  -39.1228 C   0  0  2  0  0  0  0  0  0  0  0  0
  -13.9081   14.3128  -40.4680 C   0  0  0  0  0  0  0  0  0  0  0  0
   -9.7453   15.9132  -37.1563 N   0  0  0  0  0  0  0  0  0  0  0  0
  -12.8367   14.7634  -39.5848 N   0  0  2  0  0  0  0  0  0  0  0  0
   -7.9673   15.3166  -35.8068 O   0  0  0  0  0  0  0  0  0  0  0  0
  -11.2275   12.3986  -36.6801 H   0  0  0  0  0  0  0  0  0  0  0  0
   -9.1035   12.9578  -35.5736 H   0  0  0  0  0  0  0  0  0  0  0  0
  -11.7416   17.5582  -38.0369 H   0  0  0  0  0  0  0  0  0  0  0  0
  -10.9854   16.8568  -39.4744 H   0  0  0  0  0  0  0  0  0  0  0  0
  -13.7706   14.5550  -36.4050 H   0  0  0  0  0  0  0  0  0  0  0  0
  -14.8682   14.0688  -37.7005 H   0  0  0  0  0  0  0  0  0  0  0  0
  -15.0527   16.2359  -38.3474 H   0  0  0  0  0  0  0  0  0  0  0  0
  -13.8404   16.7627  -37.1717 H   0  0  0  0  0  0  0  0  0  0  0  0
  -12.8635   12.9325  -38.4577 H   0  0  0  0  0  0  0  0  0  0  0  0
  -13.3556   16.8363  -39.9111 H   0  0  0  0  0  0  0  0  0  0  0  0
  -13.8959   14.9076  -41.3932 H   0  0  0  0  0  0  0  0  0  0  0  0
  -13.7589   13.2508  -40.7130 H   0  0  0  0  0  0  0  0  0  0  0  0
  -14.8771   14.4400  -39.9632 H   0  0  0  0  0  0  0  0  0  0  0  0
   -9.3746   16.8486  -37.2961 H   0  0  0  0  0  0  0  0  0  0  0  0
  1  2  2  0  0  0  0
  1  3  1  0  0  0  0
  2  5  1  0  0  0  0
  3  4  2  0  0  0  0
  3  9  1  0  0  0  0
  4  6  1  0  0  0  0
  4 12  1  0  0  0  0
  5 12  1  0  0  0  0
  5 14  2  0  0  0  0
  6 10  1  0  0  0  0
  7  8  1  0  0  0  0
  7  9  1  0  0  0  0
  8 10  1  0  0  0  0
  9 13  1  0  0  0  0
 10 13  1  0  0  0  0
 11 13  1  0  0  0  0
  1 15  1  0  0  0  0
  2 16  1  0  0  0  0
  6 17  1  0  0  0  0
  6 18  1  0  0  0  0
  7 19  1  0  0  0  0
  7 20  1  0  0  0  0
  8 21  1  0  0  0  0
  8 22  1  0  0  0  0
  9 23  1  0  0  0  0
 10 24  1  0  0  0  0
 11 25  1  0  0  0  0
 11 26  1  0  0  0  0
 11 27  1  0  0  0  0
 12 28  1  0  0  0  0
M  END
> <id>
EN300-8941065

> <smiles>
CN1C2CCC1C=3C=CC(=O)NC3C2

> <MDLNUMBER>
MFCD26129192

> <IUPAC Name>
12-methyl-6,12-diazatricyclo[7.2.1.0,2,7]dodeca-2(7),3-dien-5-one

> <CAS>
1707568-49-7

> <Purity>
95

> <URL>
https://www.enaminestore.com/catalog/EN300-8941065

> <ROCS_ShapeQuery>
_x1247relevant_x1083L0AP1_x1305L0BP1_

> <ROCS_TanimotoCombo>
1.041 

> <ROCS_ShapeTanimoto>
0.523 

> <ROCS_ColorTanimoto>
0.517 

> <ROCS_RefTversky>
0.447 

> <ROCS_RefColorTversky>
0.686 

> <ROCS_RefTverskyCombo>
1.133 

> <ROCS_FitTversky>
1.487 

> <ROCS_FitColorTversky>
0.678 

> <ROCS_FitTverskyCombo>
2.165 

> <ROCS_ColorScore>
-6.633

> <ROCS_Overlap>
1101.550

> <ROCS_Rank>
207                 

$$$$
untitled-dbase-26431_0
  -OEChem-06232314403D

 20 22  0     1  0  0  0  0  0999 V2000
   -9.4165   14.3838  -36.5842 C   0  0  0  0  0  0  0  0  0  0  0  0
  -11.5289   14.3787  -37.1223 C   0  0  0  0  0  0  0  0  0  0  0  0
  -11.1329   15.5179  -37.7941 C   0  0  0  0  0  0  0  0  0  0  0  0
  -12.9569   13.9392  -37.1572 C   0  0  0  0  0  0  0  0  0  0  0  0
  -12.3559   15.6568  -39.9585 C   0  0  0  0  0  0  0  0  0  0  0  0
  -13.3735   14.5654  -39.6255 C   0  0  0  0  0  0  0  0  0  0  0  0
  -12.0809   16.3262  -38.6194 C   0  0  1  0  0  0  0  0  0  0  0  0
  -13.7535   14.8191  -38.1635 C   0  0  2  0  0  0  0  0  0  0  0  0
  -10.5457   13.7229  -36.4211 N   0  0  0  0  0  0  0  0  0  0  0  0
  -13.3638   16.2021  -37.9498 O   0  0  0  0  0  0  0  0  0  0  0  0
   -9.4802   15.8011  -37.5668 S   0  0  0  0  0  0  0  0  0  0  0  0
   -8.4904   14.0612  -36.1285 H   0  0  0  0  0  0  0  0  0  0  0  0
  -13.0387   12.8786  -37.4151 H   0  0  0  0  0  0  0  0  0  0  0  0
  -13.3744   14.0817  -36.1533 H   0  0  0  0  0  0  0  0  0  0  0  0
  -11.4600   15.2636  -40.4493 H   0  0  0  0  0  0  0  0  0  0  0  0
  -12.8234   16.3765  -40.6413 H   0  0  0  0  0  0  0  0  0  0  0  0
  -14.2514   14.6792  -40.2721 H   0  0  0  0  0  0  0  0  0  0  0  0
  -12.9804   13.5570  -39.7896 H   0  0  0  0  0  0  0  0  0  0  0  0
  -11.7979   17.3791  -38.6978 H   0  0  0  0  0  0  0  0  0  0  0  0
  -14.8293   14.7067  -37.9970 H   0  0  0  0  0  0  0  0  0  0  0  0
  1  9  2  0  0  0  0
  1 11  1  0  0  0  0
  2  3  2  0  0  0  0
  2  4  1  0  0  0  0
  2  9  1  0  0  0  0
  3  7  1  0  0  0  0
  3 11  1  0  0  0  0
  4  8  1  0  0  0  0
  5  6  1  0  0  0  0
  5  7  1  0  0  0  0
  6  8  1  0  0  0  0
  7 10  1  0  0  0  0
  8 10  1  0  0  0  0
  1 12  1  0  0  0  0
  4 13  1  0  0  0  0
  4 14  1  0  0  0  0
  5 15  1  0  0  0  0
  5 16  1  0  0  0  0
  6 17  1  0  0  0  0
  6 18  1  0  0  0  0
  7 19  1  0  0  0  0
  8 20  1  0  0  0  0
M  END
> <id>
EN300-6778802

> <smiles>
C1CC2OC1CC=3N=CSC23

> <MDLNUMBER>
MFCD34594836

> <IUPAC Name>
11-oxa-3-thia-5-azatricyclo[6.2.1.0,2,6]undeca-2(6),4-diene

> <CAS>
2751615-66-2

> <Purity>
95

> <URL>
https://www.enaminestore.com/catalog/EN300-6778802

> <ROCS_ShapeQuery>
_x1247relevant_x1083L0AP1_x1305L0BP1_

> <ROCS_TanimotoCombo>
1.040 

> <ROCS_ShapeTanimoto>
0.504 

> <ROCS_ColorTanimoto>
0.536 

> <ROCS_RefTversky>
0.417 

> <ROCS_RefColorTversky>
0.671 

> <ROCS_RefTverskyCombo>
1.088 

> <ROCS_FitTversky>
1.706 

> <ROCS_FitColorTversky>
0.728 

> <ROCS_FitTverskyCombo>
2.434 

> <ROCS_ColorScore>
-6.456

> <ROCS_Overlap>
1024.900

> <ROCS_Rank>
208                 

$$$$
untitled-dbase-35695_0
  -OEChem-06232314403D

 25 27  0     1  0  0  0  0  0999 V2000
  -13.2833   14.8161  -39.6708 C   0  0  0  0  0  0  0  0  0  0  0  0
  -12.1639   15.8706  -39.6806 C   0  0  0  0  0  0  0  0  0  0  0  0
   -9.8817   14.4938  -37.9852 C   0  0  0  0  0  0  0  0  0  0  0  0
  -13.3935   16.0720  -37.6517 C   0  0  0  0  0  0  0  0  0  0  0  0
  -12.4320   13.8857  -37.4948 C   0  0  0  0  0  0  0  0  0  0  0  0
   -9.6269   14.2767  -36.4867 C   0  0  0  0  0  0  0  0  0  0  0  0
  -13.5946   14.6484  -38.1731 C   0  0  2  0  0  0  0  0  0  0  0  0
  -11.9587   16.1707  -38.1849 C   0  0  1  0  0  0  0  0  0  0  0  0
  -11.3021   14.9352  -37.5466 C   0  0  2  0  0  0  0  0  0  0  0  0
  -10.7174   15.2340  -36.2084 N   0  0  0  0  0  0  0  0  0  0  0  0
  -14.1587   15.1932  -40.2109 H   0  0  0  0  0  0  0  0  0  0  0  0
  -12.9691   13.8792  -40.1414 H   0  0  0  0  0  0  0  0  0  0  0  0
  -11.2608   15.4978  -40.1731 H   0  0  0  0  0  0  0  0  0  0  0  0
  -12.4993   16.7675  -40.2140 H   0  0  0  0  0  0  0  0  0  0  0  0
   -9.2739   15.2934  -38.4251 H   0  0  0  0  0  0  0  0  0  0  0  0
   -9.8146   13.6038  -38.6159 H   0  0  0  0  0  0  0  0  0  0  0  0
  -14.0726   16.8003  -38.1072 H   0  0  0  0  0  0  0  0  0  0  0  0
  -13.4598   16.1381  -36.5606 H   0  0  0  0  0  0  0  0  0  0  0  0
  -12.7049   13.6177  -36.4677 H   0  0  0  0  0  0  0  0  0  0  0  0
  -12.1786   12.9705  -38.0397 H   0  0  0  0  0  0  0  0  0  0  0  0
   -9.8335   13.2578  -36.1390 H   0  0  0  0  0  0  0  0  0  0  0  0
   -8.6422   14.5838  -36.1248 H   0  0  0  0  0  0  0  0  0  0  0  0
  -14.5741   14.2069  -37.9789 H   0  0  0  0  0  0  0  0  0  0  0  0
  -11.4460   17.1160  -37.9923 H   0  0  0  0  0  0  0  0  0  0  0  0
  -11.2996   14.9998  -35.4064 H   0  0  0  0  0  0  0  0  0  0  0  0
  1  2  1  0  0  0  0
  1  7  1  0  0  0  0
  2  8  1  0  0  0  0
  3  6  1  0  0  0  0
  3  9  1  0  0  0  0
  4  7  1  0  0  0  0
  4  8  1  0  0  0  0
  5  7  1  0  0  0  0
  5  9  1  0  0  0  0
  6 10  1  0  0  0  0
  8  9  1  0  0  0  0
  9 10  1  0  0  0  0
  1 11  1  0  0  0  0
  1 12  1  0  0  0  0
  2 13  1  0  0  0  0
  2 14  1  0  0  0  0
  3 15  1  0  0  0  0
  3 16  1  0  0  0  0
  4 17  1  0  0  0  0
  4 18  1  0  0  0  0
  5 19  1  0  0  0  0
  5 20  1  0  0  0  0
  6 21  1  0  0  0  0
  6 22  1  0  0  0  0
  7 23  1  0  0  0  0
  8 24  1  0  0  0  0
 10 25  1  0  0  0  0
M  END
> <id>
EN300-1241513

> <smiles>
C1CC2(CC3CCC2C3)N1

> <MDLNUMBER>
MFCD24121896

> <IUPAC Name>
spiro[azetidine-2,2'-bicyclo[2.2.1]heptane]

> <CAS>
28890-93-9

> <Purity>
95

> <URL>
https://www.enaminestore.com/catalog/EN300-1241513

> <ROCS_ShapeQuery>
_x1247relevant_x1083L0AP1_x1305L0BP1_

> <ROCS_TanimotoCombo>
1.040 

> <ROCS_ShapeTanimoto>
0.485 

> <ROCS_ColorTanimoto>
0.555 

> <ROCS_RefTversky>
0.400 

> <ROCS_RefColorTversky>
0.703 

> <ROCS_RefTverskyCombo>
1.104 

> <ROCS_FitTversky>
1.769 

> <ROCS_FitColorTversky>
0.726 

> <ROCS_FitTverskyCombo>
2.495 

> <ROCS_ColorScore>
-6.785

> <ROCS_Overlap>
983.301

> <ROCS_Rank>
209                 

$$$$
untitled-dbase-25277_0
  -OEChem-06232314403D

 27 29  0     0  0  0  0  0  0999 V2000
   -9.2453   13.8794  -36.2687 C   0  5  0  0  0  0  0  0  0  0  0  0
  -13.6188   14.1962  -39.4278 C   0  0  0  0  0  0  0  0  0  0  0  0
  -12.6293   16.4970  -39.5706 C   0  0  0  0  0  0  0  0  0  0  0  0
  -14.0819   15.8748  -37.6222 C   0  0  0  0  0  0  0  0  0  0  0  0
  -11.1537   14.5243  -39.1016 C   0  0  0  0  0  0  0  0  0  0  0  0
  -12.6073   13.9014  -37.1518 C   0  0  0  0  0  0  0  0  0  0  0  0
  -11.6173   16.2039  -37.2945 C   0  0  0  0  0  0  0  0  0  0  0  0
  -12.3910   15.0079  -39.8778 C   0  0  0  0  0  0  0  0  0  0  0  0
  -13.8521   14.3821  -37.9179 C   0  0  0  0  0  0  0  0  0  0  0  0
  -12.8569   16.6964  -38.0615 C   0  0  0  0  0  0  0  0  0  0  0  0
  -11.3740   14.7126  -37.5895 C   0  0  0  0  0  0  0  0  0  0  0  0
  -10.2209   14.2612  -36.8741 N   0  3  0  0  0  0  0  0  0  0  0  0
  -14.5060   14.5196  -39.9860 H   0  0  0  0  0  0  0  0  0  0  0  0
  -13.4690   13.1337  -39.6554 H   0  0  0  0  0  0  0  0  0  0  0  0
  -11.7680   17.0903  -39.9013 H   0  0  0  0  0  0  0  0  0  0  0  0
  -13.4999   16.8596  -40.1310 H   0  0  0  0  0  0  0  0  0  0  0  0
  -14.9768   16.2270  -38.1497 H   0  0  0  0  0  0  0  0  0  0  0  0
  -14.2658   16.0204  -36.5506 H   0  0  0  0  0  0  0  0  0  0  0  0
  -10.9578   13.4681  -39.3274 H   0  0  0  0  0  0  0  0  0  0  0  0
  -10.2641   15.0784  -39.4278 H   0  0  0  0  0  0  0  0  0  0  0  0
  -12.7669   14.0070  -36.0710 H   0  0  0  0  0  0  0  0  0  0  0  0
  -12.4426   12.8318  -37.3352 H   0  0  0  0  0  0  0  0  0  0  0  0
  -10.7383   16.7955  -37.5813 H   0  0  0  0  0  0  0  0  0  0  0  0
  -11.7547   16.3604  -36.2167 H   0  0  0  0  0  0  0  0  0  0  0  0
  -12.2309   14.8723  -40.9530 H   0  0  0  0  0  0  0  0  0  0  0  0
  -14.7275   13.8030  -37.6042 H   0  0  0  0  0  0  0  0  0  0  0  0
  -13.0270   17.7577  -37.8495 H   0  0  0  0  0  0  0  0  0  0  0  0
  1 12  3  0  0  0  0
  2  8  1  0  0  0  0
  2  9  1  0  0  0  0
  3  8  1  0  0  0  0
  3 10  1  0  0  0  0
  4  9  1  0  0  0  0
  4 10  1  0  0  0  0
  5  8  1  0  0  0  0
  5 11  1  0  0  0  0
  6  9  1  0  0  0  0
  6 11  1  0  0  0  0
  7 10  1  0  0  0  0
  7 11  1  0  0  0  0
 11 12  1  0  0  0  0
  2 13  1  0  0  0  0
  2 14  1  0  0  0  0
  3 15  1  0  0  0  0
  3 16  1  0  0  0  0
  4 17  1  0  0  0  0
  4 18  1  0  0  0  0
  5 19  1  0  0  0  0
  5 20  1  0  0  0  0
  6 21  1  0  0  0  0
  6 22  1  0  0  0  0
  7 23  1  0  0  0  0
  7 24  1  0  0  0  0
  8 25  1  0  0  0  0
  9 26  1  0  0  0  0
 10 27  1  0  0  0  0
M  CHG  2   1  -1  12   1
M  END
> <id>
EN300-6512545

> <smiles>
[C-]#[N+]C1(CC2CC3CC(C2)C1)C3

> <IUPAC Name>
1-isocyanoadamantane

> <CAS>
22110-53-8

> <URL>
https://www.enaminestore.com/catalog/EN300-6512545

> <ROCS_ShapeQuery>
_x1247relevant_x1083L0AP1_x1305L0BP1_

> <ROCS_TanimotoCombo>
1.040 

> <ROCS_ShapeTanimoto>
0.496 

> <ROCS_ColorTanimoto>
0.544 

> <ROCS_RefTversky>
0.418 

> <ROCS_RefColorTversky>
0.598 

> <ROCS_RefTverskyCombo>
1.016 

> <ROCS_FitTversky>
1.606 

> <ROCS_FitColorTversky>
0.858 

> <ROCS_FitTverskyCombo>
2.464 

> <ROCS_ColorScore>
-5.688

> <ROCS_Overlap>
1027.439

> <ROCS_Rank>
210                 

$$$$
untitled-dbase-24926_3
  -OEChem-06232314403D

 26 29  0     1  0  0  0  0  0999 V2000
  -10.1346   15.8798  -36.5658 C   0  0  0  0  0  0  0  0  0  0  0  0
  -10.1075   14.4859  -35.9491 C   0  0  0  0  0  0  0  0  0  0  0  0
  -13.1199   14.9689  -37.0633 C   0  0  0  0  0  0  0  0  0  0  0  0
  -10.9855   15.7929  -37.8317 C   0  0  2  0  0  0  0  0  0  0  0  0
  -12.4757   16.2183  -37.6886 C   0  0  1  0  0  0  0  0  0  0  0  0
  -12.6344   14.0506  -38.1984 C   0  0  2  0  0  0  0  0  0  0  0  0
  -11.0934   14.2793  -38.1935 C   0  0  2  0  0  0  0  0  0  0  0  0
  -13.0537   16.2145  -39.1028 C   0  0  1  0  0  0  0  0  0  0  0  0
  -13.1610   14.7615  -39.4447 C   0  0  2  0  0  0  0  0  0  0  0  0
  -10.3016   13.5288  -37.1194 C   0  0  1  0  0  0  0  0  0  0  0  0
  -14.3219   15.5868  -39.3124 O   0  0  0  0  0  0  0  0  0  0  0  0
   -9.0206   13.1771  -37.6435 O   0  0  0  0  0  0  0  0  0  0  0  0
  -10.5512   16.6067  -35.8407 H   0  0  0  0  0  0  0  0  0  0  0  0
   -9.1117   16.2391  -36.7908 H   0  0  0  0  0  0  0  0  0  0  0  0
   -9.1431   14.2995  -35.4477 H   0  0  0  0  0  0  0  0  0  0  0  0
  -10.8856   14.3569  -35.1817 H   0  0  0  0  0  0  0  0  0  0  0  0
  -12.7315   14.7086  -36.0751 H   0  0  0  0  0  0  0  0  0  0  0  0
  -14.2118   15.0337  -36.9978 H   0  0  0  0  0  0  0  0  0  0  0  0
  -10.4941   16.3435  -38.6519 H   0  0  0  0  0  0  0  0  0  0  0  0
  -12.6407   17.1540  -37.1492 H   0  0  0  0  0  0  0  0  0  0  0  0
  -12.9471   13.0054  -38.1260 H   0  0  0  0  0  0  0  0  0  0  0  0
  -10.6725   14.0891  -39.1976 H   0  0  0  0  0  0  0  0  0  0  0  0
  -12.6562   16.9194  -39.8123 H   0  0  0  0  0  0  0  0  0  0  0  0
  -12.8435   14.3964  -40.4061 H   0  0  0  0  0  0  0  0  0  0  0  0
  -10.7858   12.6028  -36.7969 H   0  0  0  0  0  0  0  0  0  0  0  0
   -9.1743   12.5684  -38.3857 H   0  0  0  0  0  0  0  0  0  0  0  0
  1  2  1  0  0  0  0
  1  4  1  0  0  0  0
  2 10  1  0  0  0  0
  3  5  1  0  0  0  0
  3  6  1  0  0  0  0
  4  5  1  0  0  0  0
  4  7  1  0  0  0  0
  5  8  1  0  0  0  0
  6  7  1  0  0  0  0
  6  9  1  0  0  0  0
  7 10  1  0  0  0  0
  8  9  1  0  0  0  0
  8 11  1  0  0  0  0
  9 11  1  0  0  0  0
 10 12  1  0  0  0  0
  1 13  1  0  0  0  0
  1 14  1  0  0  0  0
  2 15  1  0  0  0  0
  2 16  1  0  0  0  0
  3 17  1  0  0  0  0
  3 18  1  0  0  0  0
  4 19  1  0  0  0  0
  5 20  1  0  0  0  0
  6 21  1  0  0  0  0
  7 22  1  0  0  0  0
  8 23  1  0  0  0  0
  9 24  1  0  0  0  0
 10 25  1  0  0  0  0
 12 26  1  0  0  0  0
M  END
> <id>
EN300-6490397

> <smiles>
OC1CCC2C3CC(C4OC43)C12

> <MDLNUMBER>
MFCD31736525

> <IUPAC Name>
9-oxatetracyclo[5.3.1.0^{2,6}.0^{8,10}]undecan-3-ol

> <Purity>
95

> <URL>
https://www.enaminestore.com/catalog/EN300-6490397

> <ROCS_ShapeQuery>
_x1247relevant_x1083L0AP1_x1305L0BP1_

> <ROCS_TanimotoCombo>
1.040 

> <ROCS_ShapeTanimoto>
0.520 

> <ROCS_ColorTanimoto>
0.520 

> <ROCS_RefTversky>
0.433 

> <ROCS_RefColorTversky>
1.034 

> <ROCS_RefTverskyCombo>
1.467 

> <ROCS_FitTversky>
1.625 

> <ROCS_FitColorTversky>
0.511 

> <ROCS_FitTverskyCombo>
2.136 

> <ROCS_ColorScore>
-10.595

> <ROCS_Overlap>
1066.490

> <ROCS_Rank>
211                 

$$$$
untitled-dbase-9067_10
  -OEChem-06232314403D

 39 41  0     1  0  0  0  0  0999 V2000
  -11.0859   13.5017  -36.5596 C   0  0  0  0  0  0  0  0  0  0  0  0
   -9.7589   13.8143  -36.2506 C   0  0  0  0  0  0  0  0  0  0  0  0
   -9.7586   15.7212  -37.7869 C   0  0  0  0  0  0  0  0  0  0  0  0
  -11.7190   14.3020  -37.4825 C   0  0  0  0  0  0  0  0  0  0  0  0
  -11.0618   15.4008  -38.0904 C   0  0  0  0  0  0  0  0  0  0  0  0
   -9.1041   14.9091  -36.8560 C   0  0  0  0  0  0  0  0  0  0  0  0
  -13.2512   14.4522  -40.6047 C   0  0  0  0  0  0  0  0  0  0  0  0
  -13.8488   15.5102  -37.4170 C   0  0  0  0  0  0  0  0  0  0  0  0
  -13.1184   16.7314  -38.0922 C   0  0  0  0  0  0  0  0  0  0  0  0
  -13.1259   14.2941  -38.0390 C   0  0  1  0  0  0  0  0  0  0  0  0
  -12.0794   16.0439  -39.0062 C   0  0  2  0  0  0  0  0  0  0  0  0
  -15.2608   13.8650  -42.5487 C   0  0  0  0  0  0  0  0  0  0  0  0
  -16.0725   12.1369  -40.9165 C   0  0  0  0  0  0  0  0  0  0  0  0
  -16.0935   14.5662  -40.2794 C   0  0  0  0  0  0  0  0  0  0  0  0
  -15.3664   13.4819  -41.0733 C   0  0  0  0  0  0  0  0  0  0  0  0
  -12.8464   14.8553  -39.3587 N   0  0  0  0  0  0  0  0  0  0  0  0
   -7.7627   15.1897  -36.5093 N   0  0  0  0  0  0  0  0  0  0  0  0
  -12.9412   15.0201  -41.6489 O   0  0  0  0  0  0  0  0  0  0  0  0
  -14.0437   13.3390  -40.5439 O   0  0  0  0  0  0  0  0  0  0  0  0
  -11.5890   12.6663  -36.0879 H   0  0  0  0  0  0  0  0  0  0  0  0
   -9.2288   13.1996  -35.5259 H   0  0  0  0  0  0  0  0  0  0  0  0
   -9.2658   16.5681  -38.2511 H   0  0  0  0  0  0  0  0  0  0  0  0
  -13.7636   15.5508  -36.3260 H   0  0  0  0  0  0  0  0  0  0  0  0
  -14.9101   15.5211  -37.6898 H   0  0  0  0  0  0  0  0  0  0  0  0
  -13.8398   17.3103  -38.6799 H   0  0  0  0  0  0  0  0  0  0  0  0
  -12.6654   17.3871  -37.3409 H   0  0  0  0  0  0  0  0  0  0  0  0
  -13.6495   13.3390  -38.0459 H   0  0  0  0  0  0  0  0  0  0  0  0
  -11.6866   16.6191  -39.8464 H   0  0  0  0  0  0  0  0  0  0  0  0
  -14.7546   14.8299  -42.6655 H   0  0  0  0  0  0  0  0  0  0  0  0
  -14.7109   13.1121  -43.1226 H   0  0  0  0  0  0  0  0  0  0  0  0
  -16.2553   13.9818  -42.9945 H   0  0  0  0  0  0  0  0  0  0  0  0
  -16.1504   11.8580  -39.8595 H   0  0  0  0  0  0  0  0  0  0  0  0
  -15.5033   11.3379  -41.4054 H   0  0  0  0  0  0  0  0  0  0  0  0
  -17.0798   12.1570  -41.3449 H   0  0  0  0  0  0  0  0  0  0  0  0
  -16.1693   14.2916  -39.2211 H   0  0  0  0  0  0  0  0  0  0  0  0
  -15.5802   15.5307  -40.3503 H   0  0  0  0  0  0  0  0  0  0  0  0
  -17.1207   14.6911  -40.6408 H   0  0  0  0  0  0  0  0  0  0  0  0
   -7.3177   14.6367  -35.8072 H   0  0  0  0  0  0  0  0  0  0  0  0
   -7.3182   15.9921  -36.9036 H   0  0  0  0  0  0  0  0  0  0  0  0
  1  2  1  0  0  0  0
  1  4  2  0  0  0  0
  2  6  2  0  0  0  0
  3  5  2  0  0  0  0
  3  6  1  0  0  0  0
  4  5  1  0  0  0  0
  4 10  1  0  0  0  0
  5 11  1  0  0  0  0
  6 17  1  0  0  0  0
  7 16  1  0  0  0  0
  7 18  2  0  0  0  0
  7 19  1  0  0  0  0
  8  9  1  0  0  0  0
  8 10  1  0  0  0  0
  9 11  1  0  0  0  0
 10 16  1  0  0  0  0
 11 16  1  0  0  0  0
 12 15  1  0  0  0  0
 13 15  1  0  0  0  0
 14 15  1  0  0  0  0
 15 19  1  0  0  0  0
  1 20  1  0  0  0  0
  2 21  1  0  0  0  0
  3 22  1  0  0  0  0
  8 23  1  0  0  0  0
  8 24  1  0  0  0  0
  9 25  1  0  0  0  0
  9 26  1  0  0  0  0
 10 27  1  0  0  0  0
 11 28  1  0  0  0  0
 12 29  1  0  0  0  0
 12 30  1  0  0  0  0
 12 31  1  0  0  0  0
 13 32  1  0  0  0  0
 13 33  1  0  0  0  0
 13 34  1  0  0  0  0
 14 35  1  0  0  0  0
 14 36  1  0  0  0  0
 14 37  1  0  0  0  0
 17 38  1  0  0  0  0
 17 39  1  0  0  0  0
M  END
> <id>
EN300-311685

> <smiles>
CC(C)(C)OC(=O)N1C2CCC1C=3C=C(N)C=CC23

> <MDLNUMBER>
MFCD26142556

> <IUPAC Name>
tert-butyl 4-amino-11-azatricyclo[6.2.1.0,2,7]undeca-2,4,6-triene-11-carboxylate

> <CAS>
942492-11-7

> <Purity>
95

> <URL>
https://www.enaminestore.com/catalog/EN300-311685

> <ROCS_ShapeQuery>
_x1247relevant_x1083L0AP1_x1305L0BP1_

> <ROCS_TanimotoCombo>
1.039 

> <ROCS_ShapeTanimoto>
0.538 

> <ROCS_ColorTanimoto>
0.501 

> <ROCS_RefTversky>
0.485 

> <ROCS_RefColorTversky>
0.723 

> <ROCS_RefTverskyCombo>
1.209 

> <ROCS_FitTversky>
1.253 

> <ROCS_FitColorTversky>
0.620 

> <ROCS_FitTverskyCombo>
1.873 

> <ROCS_ColorScore>
-7.054

> <ROCS_Overlap>
1202.355

> <ROCS_Rank>
212                 

$$$$
untitled-dbase-22040_0
  -OEChem-06232314403D

 22 24  0     1  0  0  0  0  0999 V2000
   -9.7455   15.0959  -37.8231 C   0  0  0  0  0  0  0  0  0  0  0  0
  -12.9342   15.9525  -39.7009 C   0  0  0  0  0  0  0  0  0  0  0  0
  -13.1788   13.9684  -38.0260 C   0  0  0  0  0  0  0  0  0  0  0  0
  -13.1148   15.8848  -37.1286 C   0  0  0  0  0  0  0  0  0  0  0  0
  -11.4263   15.6541  -39.6319 C   0  0  0  0  0  0  0  0  0  0  0  0
  -13.6875   15.3718  -38.4889 C   0  0  0  0  0  0  0  0  0  0  0  0
  -11.1878   14.2733  -36.2164 C   0  0  2  0  0  0  0  0  0  0  0  0
  -12.0344   14.7828  -37.3455 C   0  0  0  0  0  0  0  0  0  0  0  0
  -11.0200   15.2210  -38.3059 N   0  0  0  0  0  0  0  0  0  0  0  0
   -8.6962   15.3739  -38.3852 O   0  0  0  0  0  0  0  0  0  0  0  0
   -9.8179   14.5868  -36.5475 O   0  0  0  0  0  0  0  0  0  0  0  0
  -11.2843   12.9201  -36.1550 F   0  0  0  0  0  0  0  0  0  0  0  0
  -13.0941   17.0368  -39.7352 H   0  0  0  0  0  0  0  0  0  0  0  0
  -13.3454   15.5376  -40.6281 H   0  0  0  0  0  0  0  0  0  0  0  0
  -13.8452   13.4482  -37.3275 H   0  0  0  0  0  0  0  0  0  0  0  0
  -12.8875   13.2709  -38.8164 H   0  0  0  0  0  0  0  0  0  0  0  0
  -12.7654   16.9213  -37.1070 H   0  0  0  0  0  0  0  0  0  0  0  0
  -13.7700   15.7186  -36.2649 H   0  0  0  0  0  0  0  0  0  0  0  0
  -11.1726   14.8393  -40.3200 H   0  0  0  0  0  0  0  0  0  0  0  0
  -10.8279   16.5206  -39.9327 H   0  0  0  0  0  0  0  0  0  0  0  0
  -14.7732   15.4642  -38.5911 H   0  0  0  0  0  0  0  0  0  0  0  0
  -11.4396   14.6978  -35.2406 H   0  0  0  0  0  0  0  0  0  0  0  0
  1  9  1  0  0  0  0
  1 10  2  0  0  0  0
  1 11  1  0  0  0  0
  2  5  1  0  0  0  0
  2  6  1  0  0  0  0
  3  6  1  0  0  0  0
  3  8  1  0  0  0  0
  4  6  1  0  0  0  0
  4  8  1  0  0  0  0
  5  9  1  0  0  0  0
  7  8  1  0  0  0  0
  7 11  1  0  0  0  0
  7 12  1  0  0  0  0
  8  9  1  0  0  0  0
  2 13  1  0  0  0  0
  2 14  1  0  0  0  0
  3 15  1  0  0  0  0
  3 16  1  0  0  0  0
  4 17  1  0  0  0  0
  4 18  1  0  0  0  0
  5 19  1  0  0  0  0
  5 20  1  0  0  0  0
  6 21  1  0  0  0  0
  7 22  1  0  0  0  0
M  END
> <id>
EN300-37430129

> <smiles>
FC1OC(=O)N2CCC3CC12C3

> <IUPAC Name>
2-fluoro-3-oxa-5-azatricyclo[6.1.1.0,1,5]decan-4-one

> <CAS>
2792200-70-3

> <Purity>
95

> <URL>
https://www.enaminestore.com/catalog/EN300-37430129

> <ROCS_ShapeQuery>
_x1247relevant_x1083L0AP1_x1305L0BP1_

> <ROCS_TanimotoCombo>
1.039 

> <ROCS_ShapeTanimoto>
0.486 

> <ROCS_ColorTanimoto>
0.554 

> <ROCS_RefTversky>
0.415 

> <ROCS_RefColorTversky>
0.662 

> <ROCS_RefTverskyCombo>
1.077 

> <ROCS_FitTversky>
1.545 

> <ROCS_FitColorTversky>
0.772 

> <ROCS_FitTverskyCombo>
2.317 

> <ROCS_ColorScore>
-6.348

> <ROCS_Overlap>
1020.334

> <ROCS_Rank>
213                 

$$$$
untitled-dbase-24164_0
  -OEChem-06232314403D

 23 25  0     1  0  0  0  0  0999 V2000
   -9.3160   13.9329  -37.0483 C   0  0  0  0  0  0  0  0  0  0  0  0
   -9.1686   15.2331  -36.8028 C   0  0  0  0  0  0  0  0  0  0  0  0
  -13.9786   14.7415  -38.5585 C   0  0  0  0  0  0  0  0  0  0  0  0
  -13.8303   16.0513  -38.3109 C   0  0  0  0  0  0  0  0  0  0  0  0
  -10.6007   13.3427  -37.4659 C   0  0  0  0  0  0  0  0  0  0  0  0
  -10.2773   16.1968  -36.9268 C   0  0  0  0  0  0  0  0  0  0  0  0
  -11.9547   15.3719  -39.4725 C   0  0  0  0  0  0  0  0  0  0  0  0
  -12.5966   14.1684  -38.7747 C   0  0  1  0  0  0  0  0  0  0  0  0
  -12.3494   16.3508  -38.3620 C   0  0  2  0  0  0  0  0  0  0  0  0
  -11.8638   14.1745  -37.4051 C   0  0  2  0  0  0  0  0  0  0  0  0
  -11.6917   15.6931  -37.1180 C   0  0  1  0  0  0  0  0  0  0  0  0
  -10.6258   12.1658  -37.8279 O   0  0  0  0  0  0  0  0  0  0  0  0
  -10.0325   17.4006  -36.8391 O   0  0  0  0  0  0  0  0  0  0  0  0
   -8.4657   13.2629  -36.9717 H   0  0  0  0  0  0  0  0  0  0  0  0
   -8.1979   15.6295  -36.5248 H   0  0  0  0  0  0  0  0  0  0  0  0
  -14.9040   14.1885  -38.5486 H   0  0  0  0  0  0  0  0  0  0  0  0
  -14.6141   16.7495  -38.0645 H   0  0  0  0  0  0  0  0  0  0  0  0
  -10.8723   15.2750  -39.6084 H   0  0  0  0  0  0  0  0  0  0  0  0
  -12.4108   15.6070  -40.4431 H   0  0  0  0  0  0  0  0  0  0  0  0
  -12.5682   13.2438  -39.3532 H   0  0  0  0  0  0  0  0  0  0  0  0
  -12.0985   17.3922  -38.5689 H   0  0  0  0  0  0  0  0  0  0  0  0
  -12.4908   13.7234  -36.6238 H   0  0  0  0  0  0  0  0  0  0  0  0
  -12.2376   15.9563  -36.2015 H   0  0  0  0  0  0  0  0  0  0  0  0
  1  2  2  0  0  0  0
  1  5  1  0  0  0  0
  2  6  1  0  0  0  0
  3  4  2  0  0  0  0
  3  8  1  0  0  0  0
  4  9  1  0  0  0  0
  5 10  1  0  0  0  0
  5 12  2  0  0  0  0
  6 11  1  0  0  0  0
  6 13  2  0  0  0  0
  7  8  1  0  0  0  0
  7  9  1  0  0  0  0
  8 10  1  0  0  0  0
  9 11  1  0  0  0  0
 10 11  1  0  0  0  0
  1 14  1  0  0  0  0
  2 15  1  0  0  0  0
  3 16  1  0  0  0  0
  4 17  1  0  0  0  0
  7 18  1  0  0  0  0
  7 19  1  0  0  0  0
  8 20  1  0  0  0  0
  9 21  1  0  0  0  0
 10 22  1  0  0  0  0
 11 23  1  0  0  0  0
M  END
> <id>
EN300-135113

> <smiles>
O=C1C=CC(=O)C2C3CC(C=C3)C21

> <MDLNUMBER>
MFCD00084648

> <IUPAC Name>
tricyclo[6.2.1.0,2,7]undeca-4,9-diene-3,6-dione

> <CAS>
1200-89-1

> <Purity>
95

> <URL>
https://www.enaminestore.com/catalog/EN300-135113

> <MP>
75-77

> <ROCS_ShapeQuery>
_x1247relevant_x1083L0AP1_x1305L0BP1_

> <ROCS_TanimotoCombo>
1.039 

> <ROCS_ShapeTanimoto>
0.480 

> <ROCS_ColorTanimoto>
0.560 

> <ROCS_RefTversky>
0.416 

> <ROCS_RefColorTversky>
0.709 

> <ROCS_RefTverskyCombo>
1.125 

> <ROCS_FitTversky>
1.466 

> <ROCS_FitColorTversky>
0.726 

> <ROCS_FitTverskyCombo>
2.192 

> <ROCS_ColorScore>
-6.844

> <ROCS_Overlap>
1025.408

> <ROCS_Rank>
214                 

$$$$
untitled-dbase-47245_0
  -OEChem-06232314403D

 18 19  0     0  0  0  0  0  0999 V2000
  -12.8219   14.1052  -38.8079 C   0  0  0  0  0  0  0  0  0  0  0  0
  -13.3675   15.6459  -37.4327 C   0  0  0  0  0  0  0  0  0  0  0  0
  -11.9723   14.9205  -37.7253 C   0  0  0  0  0  0  0  0  0  0  0  0
  -13.2943   15.5467  -38.9515 C   0  0  0  0  0  0  0  0  0  0  0  0
  -11.8456   16.0086  -38.8942 C   0  0  0  0  0  0  0  0  0  0  0  0
  -10.9464   14.4380  -36.7780 C   0  0  0  0  0  0  0  0  0  0  0  0
  -14.2719   16.0048  -39.8530 N   0  0  0  0  0  0  0  0  0  0  0  0
  -11.5862   17.2805  -38.5228 F   0  0  0  0  0  0  0  0  0  0  0  0
  -11.0293   15.7077  -39.9267 F   0  0  0  0  0  0  0  0  0  0  0  0
  -12.2666   13.6649  -39.6421 H   0  0  0  0  0  0  0  0  0  0  0  0
  -13.5363   13.3714  -38.4207 H   0  0  0  0  0  0  0  0  0  0  0  0
  -14.1319   15.0523  -36.9199 H   0  0  0  0  0  0  0  0  0  0  0  0
  -13.3214   16.6433  -36.9838 H   0  0  0  0  0  0  0  0  0  0  0  0
  -10.5369   15.2539  -36.1524 H   0  0  0  0  0  0  0  0  0  0  0  0
  -10.0847   13.9737  -37.2944 H   0  0  0  0  0  0  0  0  0  0  0  0
  -11.3448   13.6759  -36.0814 H   0  0  0  0  0  0  0  0  0  0  0  0
  -14.0021   15.8182  -40.8090 H   0  0  0  0  0  0  0  0  0  0  0  0
  -15.1597   15.5508  -39.6888 H   0  0  0  0  0  0  0  0  0  0  0  0
  1  3  1  0  0  0  0
  1  4  1  0  0  0  0
  2  3  1  0  0  0  0
  2  4  1  0  0  0  0
  3  5  1  0  0  0  0
  3  6  1  1  0  0  0
  4  5  1  0  0  0  0
  4  7  1  1  0  0  0
  5  8  1  0  0  0  0
  5  9  1  0  0  0  0
  1 10  1  0  0  0  0
  1 11  1  0  0  0  0
  2 12  1  0  0  0  0
  2 13  1  0  0  0  0
  6 14  1  0  0  0  0
  6 15  1  0  0  0  0
  6 16  1  0  0  0  0
  7 17  1  0  0  0  0
  7 18  1  0  0  0  0
M  END
> <id>
EN300-37466802

> <smiles>
C[C@]1(C[C@@]2(N)C1)C2(F)F

> <IUPAC Name>
(1s,3r)-2,2-difluoro-3-methylbicyclo[1.1.1]pentan-1-amine

> <URL>
https://www.enaminestore.com/catalog/EN300-37466802

> <ROCS_ShapeQuery>
_x1247relevant_x1083L0AP1_x1305L0BP1_

> <ROCS_TanimotoCombo>
1.039 

> <ROCS_ShapeTanimoto>
0.425 

> <ROCS_ColorTanimoto>
0.614 

> <ROCS_RefTversky>
0.360 

> <ROCS_RefColorTversky>
0.755 

> <ROCS_RefTverskyCombo>
1.116 

> <ROCS_FitTversky>
1.734 

> <ROCS_FitColorTversky>
0.767 

> <ROCS_FitTverskyCombo>
2.500 

> <ROCS_ColorScore>
-7.295

> <ROCS_Overlap>
883.961

> <ROCS_Rank>
215                 

$$$$
untitled-dbase-53424_0
  -OEChem-06232314403D

 18 19  0     0  0  0  0  0  0999 V2000
  -12.8219   14.1052  -38.8079 C   0  0  0  0  0  0  0  0  0  0  0  0
  -13.3675   15.6459  -37.4327 C   0  0  0  0  0  0  0  0  0  0  0  0
  -11.9723   14.9205  -37.7253 C   0  0  0  0  0  0  0  0  0  0  0  0
  -13.2943   15.5467  -38.9515 C   0  0  0  0  0  0  0  0  0  0  0  0
  -11.8456   16.0086  -38.8942 C   0  0  0  0  0  0  0  0  0  0  0  0
  -10.9464   14.4380  -36.7780 C   0  0  0  0  0  0  0  0  0  0  0  0
  -14.2719   16.0048  -39.8530 N   0  0  0  0  0  0  0  0  0  0  0  0
  -11.5862   17.2805  -38.5228 F   0  0  0  0  0  0  0  0  0  0  0  0
  -11.0293   15.7077  -39.9267 F   0  0  0  0  0  0  0  0  0  0  0  0
  -12.2666   13.6649  -39.6421 H   0  0  0  0  0  0  0  0  0  0  0  0
  -13.5363   13.3714  -38.4207 H   0  0  0  0  0  0  0  0  0  0  0  0
  -14.1319   15.0523  -36.9199 H   0  0  0  0  0  0  0  0  0  0  0  0
  -13.3214   16.6433  -36.9838 H   0  0  0  0  0  0  0  0  0  0  0  0
  -10.5369   15.2539  -36.1524 H   0  0  0  0  0  0  0  0  0  0  0  0
  -10.0847   13.9737  -37.2944 H   0  0  0  0  0  0  0  0  0  0  0  0
  -11.3448   13.6759  -36.0814 H   0  0  0  0  0  0  0  0  0  0  0  0
  -14.0021   15.8182  -40.8090 H   0  0  0  0  0  0  0  0  0  0  0  0
  -15.1597   15.5508  -39.6888 H   0  0  0  0  0  0  0  0  0  0  0  0
  1  3  1  0  0  0  0
  1  4  1  0  0  0  0
  2  3  1  0  0  0  0
  2  4  1  0  0  0  0
  3  5  1  0  0  0  0
  3  6  1  1  0  0  0
  4  5  1  0  0  0  0
  4  7  1  1  0  0  0
  5  8  1  0  0  0  0
  5  9  1  0  0  0  0
  1 10  1  0  0  0  0
  1 11  1  0  0  0  0
  2 12  1  0  0  0  0
  2 13  1  0  0  0  0
  6 14  1  0  0  0  0
  6 15  1  0  0  0  0
  6 16  1  0  0  0  0
  7 17  1  0  0  0  0
  7 18  1  0  0  0  0
M  END
> <id>
EN300-37466869

> <smiles>
Cl.C[C@]1(C[C@@]2(N)C1)C2(F)F

> <IUPAC Name>
(1s,3r)-2,2-difluoro-3-methylbicyclo[1.1.1]pentan-1-amine hydrochloride

> <URL>
https://www.enaminestore.com/catalog/EN300-37466869

> <ROCS_ShapeQuery>
_x1247relevant_x1083L0AP1_x1305L0BP1_

> <ROCS_TanimotoCombo>
1.039 

> <ROCS_ShapeTanimoto>
0.425 

> <ROCS_ColorTanimoto>
0.614 

> <ROCS_RefTversky>
0.360 

> <ROCS_RefColorTversky>
0.755 

> <ROCS_RefTverskyCombo>
1.116 

> <ROCS_FitTversky>
1.734 

> <ROCS_FitColorTversky>
0.767 

> <ROCS_FitTverskyCombo>
2.500 

> <ROCS_ColorScore>
-7.295

> <ROCS_Overlap>
883.961

> <ROCS_Rank>
216                 

$$$$
untitled-dbase-50491_0
  -OEChem-06232314403D

 18 19  0     0  0  0  0  0  0999 V2000
  -13.3652   15.6515  -37.4327 C   0  0  0  0  0  0  0  0  0  0  0  0
  -12.8265   14.1044  -38.8036 C   0  0  0  0  0  0  0  0  0  0  0  0
  -11.9727   14.9206  -37.7249 C   0  0  0  0  0  0  0  0  0  0  0  0
  -13.2944   15.5470  -38.9513 C   0  0  0  0  0  0  0  0  0  0  0  0
  -11.8441   16.0043  -38.8975 C   0  0  0  0  0  0  0  0  0  0  0  0
  -10.9469   14.4381  -36.7774 C   0  0  0  0  0  0  0  0  0  0  0  0
  -14.2715   16.0056  -39.8531 N   0  0  0  0  0  0  0  0  0  0  0  0
  -11.5800   17.2766  -38.5307 F   0  0  0  0  0  0  0  0  0  0  0  0
  -11.0302   15.6973  -39.9301 F   0  0  0  0  0  0  0  0  0  0  0  0
  -14.1306   15.0619  -36.9174 H   0  0  0  0  0  0  0  0  0  0  0  0
  -13.3150   16.6499  -36.9866 H   0  0  0  0  0  0  0  0  0  0  0  0
  -12.2730   13.6595  -39.6367 H   0  0  0  0  0  0  0  0  0  0  0  0
  -13.5435   13.3744  -38.4137 H   0  0  0  0  0  0  0  0  0  0  0  0
  -10.0868   13.9705  -37.2934 H   0  0  0  0  0  0  0  0  0  0  0  0
  -11.3463   13.6787  -36.0786 H   0  0  0  0  0  0  0  0  0  0  0  0
  -10.5350   15.2547  -36.1543 H   0  0  0  0  0  0  0  0  0  0  0  0
  -15.1586   15.5488  -39.6926 H   0  0  0  0  0  0  0  0  0  0  0  0
  -14.4155   17.0014  -39.7582 H   0  0  0  0  0  0  0  0  0  0  0  0
  1  3  1  0  0  0  0
  1  4  1  0  0  0  0
  2  3  1  0  0  0  0
  2  4  1  0  0  0  0
  3  5  1  0  0  0  0
  3  6  1  0  0  0  0
  4  5  1  0  0  0  0
  4  7  1  0  0  0  0
  5  8  1  0  0  0  0
  5  9  1  0  0  0  0
  1 10  1  0  0  0  0
  1 11  1  0  0  0  0
  2 12  1  0  0  0  0
  2 13  1  0  0  0  0
  6 14  1  0  0  0  0
  6 15  1  0  0  0  0
  6 16  1  0  0  0  0
  7 17  1  0  0  0  0
  7 18  1  0  0  0  0
M  END
> <id>
EN300-7542601

> <smiles>
CC1(CC2(N)C1)C2(F)F

> <IUPAC Name>
2,2-difluoro-3-methylbicyclo[1.1.1]pentan-1-amine

> <CAS>
2768327-08-6

> <URL>
https://www.enaminestore.com/catalog/EN300-7542601

> <ROCS_ShapeQuery>
_x1247relevant_x1083L0AP1_x1305L0BP1_

> <ROCS_TanimotoCombo>
1.039 

> <ROCS_ShapeTanimoto>
0.425 

> <ROCS_ColorTanimoto>
0.614 

> <ROCS_RefTversky>
0.360 

> <ROCS_RefColorTversky>
0.755 

> <ROCS_RefTverskyCombo>
1.116 

> <ROCS_FitTversky>
1.734 

> <ROCS_FitColorTversky>
0.767 

> <ROCS_FitTverskyCombo>
2.500 

> <ROCS_ColorScore>
-7.295

> <ROCS_Overlap>
883.924

> <ROCS_Rank>
217                 

$$$$
untitled-dbase-50525_0
  -OEChem-06232314403D

 18 19  0     0  0  0  0  0  0999 V2000
  -13.3652   15.6515  -37.4327 C   0  0  0  0  0  0  0  0  0  0  0  0
  -12.8265   14.1044  -38.8036 C   0  0  0  0  0  0  0  0  0  0  0  0
  -11.9727   14.9206  -37.7249 C   0  0  0  0  0  0  0  0  0  0  0  0
  -13.2944   15.5470  -38.9513 C   0  0  0  0  0  0  0  0  0  0  0  0
  -11.8441   16.0043  -38.8975 C   0  0  0  0  0  0  0  0  0  0  0  0
  -10.9469   14.4381  -36.7774 C   0  0  0  0  0  0  0  0  0  0  0  0
  -14.2715   16.0056  -39.8531 N   0  0  0  0  0  0  0  0  0  0  0  0
  -11.5800   17.2766  -38.5307 F   0  0  0  0  0  0  0  0  0  0  0  0
  -11.0302   15.6973  -39.9301 F   0  0  0  0  0  0  0  0  0  0  0  0
  -14.1306   15.0619  -36.9174 H   0  0  0  0  0  0  0  0  0  0  0  0
  -13.3150   16.6499  -36.9866 H   0  0  0  0  0  0  0  0  0  0  0  0
  -12.2730   13.6595  -39.6367 H   0  0  0  0  0  0  0  0  0  0  0  0
  -13.5435   13.3744  -38.4137 H   0  0  0  0  0  0  0  0  0  0  0  0
  -10.0868   13.9705  -37.2934 H   0  0  0  0  0  0  0  0  0  0  0  0
  -11.3463   13.6787  -36.0786 H   0  0  0  0  0  0  0  0  0  0  0  0
  -10.5350   15.2547  -36.1543 H   0  0  0  0  0  0  0  0  0  0  0  0
  -15.1586   15.5488  -39.6926 H   0  0  0  0  0  0  0  0  0  0  0  0
  -14.4155   17.0014  -39.7582 H   0  0  0  0  0  0  0  0  0  0  0  0
  1  3  1  0  0  0  0
  1  4  1  0  0  0  0
  2  3  1  0  0  0  0
  2  4  1  0  0  0  0
  3  5  1  0  0  0  0
  3  6  1  0  0  0  0
  4  5  1  0  0  0  0
  4  7  1  0  0  0  0
  5  8  1  0  0  0  0
  5  9  1  0  0  0  0
  1 10  1  0  0  0  0
  1 11  1  0  0  0  0
  2 12  1  0  0  0  0
  2 13  1  0  0  0  0
  6 14  1  0  0  0  0
  6 15  1  0  0  0  0
  6 16  1  0  0  0  0
  7 17  1  0  0  0  0
  7 18  1  0  0  0  0
M  END
> <id>
EN300-37380597

> <smiles>
Cl.CC1(CC2(N)C1)C2(F)F

> <IUPAC Name>
2,2-difluoro-3-methylbicyclo[1.1.1]pentan-1-amine hydrochloride

> <CAS>
2768327-09-7

> <Purity>
95

> <URL>
https://www.enaminestore.com/catalog/EN300-37380597

> <ROCS_ShapeQuery>
_x1247relevant_x1083L0AP1_x1305L0BP1_

> <ROCS_TanimotoCombo>
1.039 

> <ROCS_ShapeTanimoto>
0.425 

> <ROCS_ColorTanimoto>
0.614 

> <ROCS_RefTversky>
0.360 

> <ROCS_RefColorTversky>
0.755 

> <ROCS_RefTverskyCombo>
1.116 

> <ROCS_FitTversky>
1.734 

> <ROCS_FitColorTversky>
0.767 

> <ROCS_FitTverskyCombo>
2.500 

> <ROCS_ColorScore>
-7.295

> <ROCS_Overlap>
883.924

> <ROCS_Rank>
218                 

$$$$
untitled-dbase-38523_0
  -OEChem-06232314403D

 25 27  0     1  0  0  0  0  0999 V2000
  -13.1620   14.2040  -37.2396 C   0  0  0  0  0  0  0  0  0  0  0  0
  -13.6363   15.6765  -37.1960 C   0  0  0  0  0  0  0  0  0  0  0  0
  -10.0734   16.0582  -38.4109 C   0  0  0  0  0  0  0  0  0  0  0  0
  -10.4173   15.9157  -36.9442 C   0  0  0  0  0  0  0  0  0  0  0  0
  -12.6142   14.4343  -39.6676 C   0  0  0  0  0  0  0  0  0  0  0  0
  -12.0000   14.2354  -38.2592 C   0  0  1  0  0  0  0  0  0  0  0  0
  -12.7066   16.3834  -38.2147 C   0  0  2  0  0  0  0  0  0  0  0  0
  -13.0450   15.9281  -39.6621 C   0  0  2  0  0  0  0  0  0  0  0  0
  -11.4415   15.6021  -37.9955 C   0  0  0  0  0  0  0  0  0  0  0  0
  -14.4330   16.1200  -40.0448 N   0  0  0  0  0  0  0  0  0  0  0  0
  -12.8014   13.9032  -36.2491 H   0  0  0  0  0  0  0  0  0  0  0  0
  -13.9638   13.5200  -37.5345 H   0  0  0  0  0  0  0  0  0  0  0  0
  -14.6999   15.7775  -37.4290 H   0  0  0  0  0  0  0  0  0  0  0  0
  -13.4742   16.0809  -36.1896 H   0  0  0  0  0  0  0  0  0  0  0  0
   -9.9660   17.0609  -38.8057 H   0  0  0  0  0  0  0  0  0  0  0  0
   -9.3976   15.3289  -38.8398 H   0  0  0  0  0  0  0  0  0  0  0  0
   -9.9709   15.0912  -36.4020 H   0  0  0  0  0  0  0  0  0  0  0  0
  -10.5356   16.8245  -36.3675 H   0  0  0  0  0  0  0  0  0  0  0  0
  -11.8580   14.2771  -40.4461 H   0  0  0  0  0  0  0  0  0  0  0  0
  -13.4394   13.7392  -39.8578 H   0  0  0  0  0  0  0  0  0  0  0  0
  -11.3152   13.3884  -38.1846 H   0  0  0  0  0  0  0  0  0  0  0  0
  -12.6484   17.4669  -38.0863 H   0  0  0  0  0  0  0  0  0  0  0  0
  -12.4079   16.4756  -40.3691 H   0  0  0  0  0  0  0  0  0  0  0  0
  -14.6401   17.0928  -40.0148 H   0  0  0  0  0  0  0  0  0  0  0  0
  -14.5600   15.7687  -40.9670 H   0  0  0  0  0  0  0  0  0  0  0  0
  1  2  1  0  0  0  0
  1  6  1  0  0  0  0
  2  7  1  1  0  0  0
  3  4  1  0  0  0  0
  3  9  1  0  0  0  0
  4  9  1  0  0  0  0
  5  6  1  1  0  0  0
  5  8  1  0  0  0  0
  6  9  1  0  0  0  0
  7  8  1  0  0  0  0
  7  9  1  0  0  0  0
  8 10  1  1  0  0  0
  1 11  1  0  0  0  0
  1 12  1  0  0  0  0
  2 13  1  0  0  0  0
  2 14  1  0  0  0  0
  3 15  1  0  0  0  0
  3 16  1  0  0  0  0
  4 17  1  0  0  0  0
  4 18  1  0  0  0  0
  5 19  1  0  0  0  0
  5 20  1  0  0  0  0
  6 21  1  0  0  0  0
  7 22  1  0  0  0  0
  8 23  1  0  0  0  0
 10 24  1  0  0  0  0
 10 25  1  0  0  0  0
M  END
> <id>
EN300-7543357

> <smiles>
Cl.N[C@@H]1C[C@@H]2CC[C@H]1C32CC3 |&1:2,4,7,r|

> <IUPAC Name>
rac-(1R,4R,6S)-spiro[bicyclo[2.2.1]heptane-7,1'-cyclopropan]-6-amine hydrochloride

> <CAS>
2411181-34-3

> <Purity>
95

> <URL>
https://www.enaminestore.com/catalog/EN300-7543357

> <Saltdate>
Cl

> <ROCS_ShapeQuery>
_x1247relevant_x1083L0AP1_x1305L0BP1_

> <ROCS_TanimotoCombo>
1.039 

> <ROCS_ShapeTanimoto>
0.427 

> <ROCS_ColorTanimoto>
0.612 

> <ROCS_RefTversky>
0.366 

> <ROCS_RefColorTversky>
0.712 

> <ROCS_RefTverskyCombo>
1.078 

> <ROCS_FitTversky>
1.635 

> <ROCS_FitColorTversky>
0.814 

> <ROCS_FitTverskyCombo>
2.449 

> <ROCS_ColorScore>
-6.831

> <ROCS_Overlap>
899.519

> <ROCS_Rank>
219                 

$$$$
untitled-dbase-38489_0
  -OEChem-06232314403D

 25 27  0     1  0  0  0  0  0999 V2000
  -13.1620   14.2040  -37.2396 C   0  0  0  0  0  0  0  0  0  0  0  0
  -13.6363   15.6765  -37.1960 C   0  0  0  0  0  0  0  0  0  0  0  0
  -10.0734   16.0582  -38.4109 C   0  0  0  0  0  0  0  0  0  0  0  0
  -10.4173   15.9157  -36.9442 C   0  0  0  0  0  0  0  0  0  0  0  0
  -12.6142   14.4343  -39.6676 C   0  0  0  0  0  0  0  0  0  0  0  0
  -12.0000   14.2354  -38.2592 C   0  0  1  0  0  0  0  0  0  0  0  0
  -12.7066   16.3834  -38.2147 C   0  0  2  0  0  0  0  0  0  0  0  0
  -13.0450   15.9281  -39.6621 C   0  0  2  0  0  0  0  0  0  0  0  0
  -11.4415   15.6021  -37.9955 C   0  0  0  0  0  0  0  0  0  0  0  0
  -14.4330   16.1200  -40.0448 N   0  0  0  0  0  0  0  0  0  0  0  0
  -12.8014   13.9032  -36.2491 H   0  0  0  0  0  0  0  0  0  0  0  0
  -13.9638   13.5200  -37.5345 H   0  0  0  0  0  0  0  0  0  0  0  0
  -14.6999   15.7775  -37.4290 H   0  0  0  0  0  0  0  0  0  0  0  0
  -13.4742   16.0809  -36.1896 H   0  0  0  0  0  0  0  0  0  0  0  0
   -9.9660   17.0609  -38.8057 H   0  0  0  0  0  0  0  0  0  0  0  0
   -9.3976   15.3289  -38.8398 H   0  0  0  0  0  0  0  0  0  0  0  0
   -9.9709   15.0912  -36.4020 H   0  0  0  0  0  0  0  0  0  0  0  0
  -10.5356   16.8245  -36.3675 H   0  0  0  0  0  0  0  0  0  0  0  0
  -11.8580   14.2771  -40.4461 H   0  0  0  0  0  0  0  0  0  0  0  0
  -13.4394   13.7392  -39.8578 H   0  0  0  0  0  0  0  0  0  0  0  0
  -11.3152   13.3884  -38.1846 H   0  0  0  0  0  0  0  0  0  0  0  0
  -12.6484   17.4669  -38.0863 H   0  0  0  0  0  0  0  0  0  0  0  0
  -12.4079   16.4756  -40.3691 H   0  0  0  0  0  0  0  0  0  0  0  0
  -14.6401   17.0928  -40.0148 H   0  0  0  0  0  0  0  0  0  0  0  0
  -14.5600   15.7687  -40.9670 H   0  0  0  0  0  0  0  0  0  0  0  0
  1  2  1  0  0  0  0
  1  6  1  0  0  0  0
  2  7  1  1  0  0  0
  3  4  1  0  0  0  0
  3  9  1  0  0  0  0
  4  9  1  0  0  0  0
  5  6  1  1  0  0  0
  5  8  1  0  0  0  0
  6  9  1  0  0  0  0
  7  8  1  0  0  0  0
  7  9  1  0  0  0  0
  8 10  1  1  0  0  0
  1 11  1  0  0  0  0
  1 12  1  0  0  0  0
  2 13  1  0  0  0  0
  2 14  1  0  0  0  0
  3 15  1  0  0  0  0
  3 16  1  0  0  0  0
  4 17  1  0  0  0  0
  4 18  1  0  0  0  0
  5 19  1  0  0  0  0
  5 20  1  0  0  0  0
  6 21  1  0  0  0  0
  7 22  1  0  0  0  0
  8 23  1  0  0  0  0
 10 24  1  0  0  0  0
 10 25  1  0  0  0  0
M  END
> <id>
EN300-7543358

> <smiles>
N[C@@H]1C[C@@H]2CC[C@H]1C32CC3 |&1:1,3,6,r|

> <IUPAC Name>
rac-(1R,4R,6S)-spiro[bicyclo[2.2.1]heptane-7,1'-cyclopropan]-6-amine

> <CAS>
1932510-43-4

> <URL>
https://www.enaminestore.com/catalog/EN300-7543358

> <ROCS_ShapeQuery>
_x1247relevant_x1083L0AP1_x1305L0BP1_

> <ROCS_TanimotoCombo>
1.039 

> <ROCS_ShapeTanimoto>
0.427 

> <ROCS_ColorTanimoto>
0.612 

> <ROCS_RefTversky>
0.366 

> <ROCS_RefColorTversky>
0.712 

> <ROCS_RefTverskyCombo>
1.078 

> <ROCS_FitTversky>
1.635 

> <ROCS_FitColorTversky>
0.814 

> <ROCS_FitTverskyCombo>
2.449 

> <ROCS_ColorScore>
-6.831

> <ROCS_Overlap>
899.519

> <ROCS_Rank>
220                 

$$$$
untitled-dbase-30319_1
  -OEChem-06232314403D

 24 26  0     1  0  0  0  0  0999 V2000
  -12.4997   14.6448  -39.6730 C   0  0  0  0  0  0  0  0  0  0  0  0
  -12.2603   15.9592  -39.5608 C   0  0  0  0  0  0  0  0  0  0  0  0
  -10.5614   13.5628  -37.5732 C   0  0  0  0  0  0  0  0  0  0  0  0
   -9.5412   14.5567  -37.0229 C   0  0  0  0  0  0  0  0  0  0  0  0
  -13.8216   15.4235  -37.9583 C   0  0  0  0  0  0  0  0  0  0  0  0
  -13.0227   14.1651  -38.3397 C   0  0  2  0  0  0  0  0  0  0  0  0
  -12.6206   16.3657  -38.1512 C   0  0  1  0  0  0  0  0  0  0  0  0
  -11.9074   14.2171  -37.2680 C   0  0  2  0  0  0  0  0  0  0  0  0
  -11.6249   15.7515  -37.1337 C   0  0  1  0  0  0  0  0  0  0  0  0
  -10.1308   15.9116  -37.3944 C   0  0  1  0  0  0  0  0  0  0  0  0
   -9.3715   17.3220  -36.3033 Br  0  0  0  0  0  0  0  0  0  0  0  0
  -12.3022   14.0297  -40.5372 H   0  0  0  0  0  0  0  0  0  0  0  0
  -11.8354   16.5995  -40.3183 H   0  0  0  0  0  0  0  0  0  0  0  0
  -10.4156   13.3545  -38.6261 H   0  0  0  0  0  0  0  0  0  0  0  0
  -10.4844   12.6298  -37.0200 H   0  0  0  0  0  0  0  0  0  0  0  0
   -9.3818   14.4171  -35.9572 H   0  0  0  0  0  0  0  0  0  0  0  0
   -8.5837   14.4146  -37.5190 H   0  0  0  0  0  0  0  0  0  0  0  0
  -14.6583   15.6344  -38.6381 H   0  0  0  0  0  0  0  0  0  0  0  0
  -14.1999   15.4041  -36.9289 H   0  0  0  0  0  0  0  0  0  0  0  0
  -13.6034   13.2462  -38.3798 H   0  0  0  0  0  0  0  0  0  0  0  0
  -12.8399   17.4226  -38.0227 H   0  0  0  0  0  0  0  0  0  0  0  0
  -12.3028   13.8282  -36.3176 H   0  0  0  0  0  0  0  0  0  0  0  0
  -11.9128   16.0847  -36.1250 H   0  0  0  0  0  0  0  0  0  0  0  0
   -9.9085   16.1860  -38.4405 H   0  0  0  0  0  0  0  0  0  0  0  0
  1  2  2  0  0  0  0
  1  6  1  1  0  0  0
  2  7  1  1  0  0  0
  3  4  1  0  0  0  0
  3  8  1  1  0  0  0
  4 10  1  0  0  0  0
  5  6  1  0  0  0  0
  5  7  1  0  0  0  0
  6  8  1  0  0  0  0
  7  9  1  0  0  0  0
  8  9  1  0  0  0  0
  9 10  1  1  0  0  0
 10 11  1  0  0  0  0
  1 12  1  0  0  0  0
  2 13  1  0  0  0  0
  3 14  1  0  0  0  0
  3 15  1  0  0  0  0
  4 16  1  0  0  0  0
  4 17  1  0  0  0  0
  5 18  1  0  0  0  0
  5 19  1  0  0  0  0
  6 20  1  0  0  0  0
  7 21  1  0  0  0  0
  8 22  1  0  0  0  0
  9 23  1  0  0  0  0
 10 24  1  0  0  0  0
M  END
> <id>
EN300-27113055

> <smiles>
BrC1CC[C@@H]2[C@H]3C[C@H](C=C3)[C@H]12 |&1:4,5,7,10,r|

> <IUPAC Name>
rac-(1R,2S,6R,7S)-3-bromotricyclo[5.2.1.0,2,6]dec-8-ene

> <CAS>
2490370-90-4

> <Purity>
95

> <URL>
https://www.enaminestore.com/catalog/EN300-27113055

> <ROCS_ShapeQuery>
_x1247relevant_x1083L0AP1_x1305L0BP1_

> <ROCS_TanimotoCombo>
1.039 

> <ROCS_ShapeTanimoto>
0.470 

> <ROCS_ColorTanimoto>
0.569 

> <ROCS_RefTversky>
0.397 

> <ROCS_RefColorTversky>
0.685 

> <ROCS_RefTverskyCombo>
1.081 

> <ROCS_FitTversky>
1.651 

> <ROCS_FitColorTversky>
0.771 

> <ROCS_FitTverskyCombo>
2.422 

> <ROCS_ColorScore>
-6.576

> <ROCS_Overlap>
974.810

> <ROCS_Rank>
221                 

$$$$
untitled-dbase-17635_0
  -OEChem-06232314403D

 28 30  0     0  0  0  0  0  0999 V2000
  -15.5898   13.9205  -40.8440 C   0  0  0  0  0  0  0  0  0  0  0  0
  -14.7186   14.3108  -40.1162 C   0  0  0  0  0  0  0  0  0  0  0  0
  -10.7808   15.1010  -38.5660 C   0  0  0  0  0  0  0  0  0  0  0  0
  -12.2962   14.7973  -36.5909 C   0  0  0  0  0  0  0  0  0  0  0  0
  -12.2539   16.9863  -37.8139 C   0  0  0  0  0  0  0  0  0  0  0  0
  -12.7844   13.6024  -38.7412 C   0  0  0  0  0  0  0  0  0  0  0  0
  -12.7421   15.7957  -39.9669 C   0  0  0  0  0  0  0  0  0  0  0  0
  -14.2602   15.4914  -37.9879 C   0  0  0  0  0  0  0  0  0  0  0  0
  -11.6662   14.0981  -37.8073 C   0  0  0  0  0  0  0  0  0  0  0  0
  -11.6237   16.2983  -39.0367 C   0  0  0  0  0  0  0  0  0  0  0  0
  -13.1468   15.9931  -37.0514 C   0  0  0  0  0  0  0  0  0  0  0  0
  -13.6491   14.7898  -39.2222 C   0  0  0  0  0  0  0  0  0  0  0  0
  -16.3627   13.5743  -41.4898 H   0  0  0  0  0  0  0  0  0  0  0  0
   -9.9677   15.4481  -37.9166 H   0  0  0  0  0  0  0  0  0  0  0  0
  -10.3125   14.6103  -39.4280 H   0  0  0  0  0  0  0  0  0  0  0  0
  -12.9190   14.0881  -36.0320 H   0  0  0  0  0  0  0  0  0  0  0  0
  -11.5097   15.1389  -35.9068 H   0  0  0  0  0  0  0  0  0  0  0  0
  -11.4666   17.3669  -37.1515 H   0  0  0  0  0  0  0  0  0  0  0  0
  -12.8459   17.8521  -38.1351 H   0  0  0  0  0  0  0  0  0  0  0  0
  -12.3433   13.0772  -39.5992 H   0  0  0  0  0  0  0  0  0  0  0  0
  -13.4051   12.8645  -38.2151 H   0  0  0  0  0  0  0  0  0  0  0  0
  -13.3323   16.6482  -40.3293 H   0  0  0  0  0  0  0  0  0  0  0  0
  -12.3001   15.3272  -40.8567 H   0  0  0  0  0  0  0  0  0  0  0  0
  -14.9191   14.8023  -37.4424 H   0  0  0  0  0  0  0  0  0  0  0  0
  -14.8896   16.3360  -38.2995 H   0  0  0  0  0  0  0  0  0  0  0  0
  -11.0602   13.2487  -37.4728 H   0  0  0  0  0  0  0  0  0  0  0  0
  -10.9876   17.0099  -39.5746 H   0  0  0  0  0  0  0  0  0  0  0  0
  -13.5911   16.4883  -36.1809 H   0  0  0  0  0  0  0  0  0  0  0  0
  1  2  3  0  0  0  0
  2 12  1  0  0  0  0
  3  9  1  0  0  0  0
  3 10  1  0  0  0  0
  4  9  1  0  0  0  0
  4 11  1  0  0  0  0
  5 10  1  0  0  0  0
  5 11  1  0  0  0  0
  6  9  1  0  0  0  0
  6 12  1  0  0  0  0
  7 10  1  0  0  0  0
  7 12  1  0  0  0  0
  8 11  1  0  0  0  0
  8 12  1  0  0  0  0
  1 13  1  0  0  0  0
  3 14  1  0  0  0  0
  3 15  1  0  0  0  0
  4 16  1  0  0  0  0
  4 17  1  0  0  0  0
  5 18  1  0  0  0  0
  5 19  1  0  0  0  0
  6 20  1  0  0  0  0
  6 21  1  0  0  0  0
  7 22  1  0  0  0  0
  7 23  1  0  0  0  0
  8 24  1  0  0  0  0
  8 25  1  0  0  0  0
  9 26  1  0  0  0  0
 10 27  1  0  0  0  0
 11 28  1  0  0  0  0
M  END
> <id>
EN300-1472399

> <smiles>
C#CC1(CC2CC3CC(C2)C1)C3

> <MDLNUMBER>
MFCD08061913

> <IUPAC Name>
1-ethynyladamantane

> <CAS>
40430-66-8

> <Purity>
95

> <URL>
https://www.enaminestore.com/catalog/EN300-1472399

> <MP>
80-82

> <ROCS_ShapeQuery>
_x1247relevant_x1083L0AP1_x1305L0BP1_

> <ROCS_TanimotoCombo>
1.039 

> <ROCS_ShapeTanimoto>
0.466 

> <ROCS_ColorTanimoto>
0.573 

> <ROCS_RefTversky>
0.400 

> <ROCS_RefColorTversky>
0.653 

> <ROCS_RefTverskyCombo>
1.053 

> <ROCS_FitTversky>
1.546 

> <ROCS_FitColorTversky>
0.823 

> <ROCS_FitTverskyCombo>
2.369 

> <ROCS_ColorScore>
-6.240

> <ROCS_Overlap>
985.074

> <ROCS_Rank>
222                 

$$$$
untitled-dbase-31461_10
  -OEChem-06232314403D

 39 41  0     1  0  0  0  0  0999 V2000
   -9.7259   13.8124  -36.2888 C   0  0  0  0  0  0  0  0  0  0  0  0
  -11.0474   13.4822  -36.6031 C   0  0  0  0  0  0  0  0  0  0  0  0
   -9.0946   14.9361  -36.8653 C   0  0  0  0  0  0  0  0  0  0  0  0
  -11.6988   14.2950  -37.5021 C   0  0  0  0  0  0  0  0  0  0  0  0
  -11.0651   15.4229  -38.0809 C   0  0  0  0  0  0  0  0  0  0  0  0
   -9.7676   15.7605  -37.7718 C   0  0  0  0  0  0  0  0  0  0  0  0
  -13.2428   14.5009  -40.6153 C   0  0  0  0  0  0  0  0  0  0  0  0
  -13.8518   15.4586  -37.3981 C   0  0  0  0  0  0  0  0  0  0  0  0
  -13.1475   16.7121  -38.0412 C   0  0  0  0  0  0  0  0  0  0  0  0
  -13.1069   14.2747  -38.0552 C   0  0  1  0  0  0  0  0  0  0  0  0
  -12.0979   16.0708  -38.9763 C   0  0  2  0  0  0  0  0  0  0  0  0
  -15.2462   13.9279  -42.5699 C   0  0  0  0  0  0  0  0  0  0  0  0
  -16.0189   12.1397  -40.9841 C   0  0  0  0  0  0  0  0  0  0  0  0
  -16.0859   14.5497  -40.2802 C   0  0  0  0  0  0  0  0  0  0  0  0
  -15.3399   13.5022  -41.1054 C   0  0  0  0  0  0  0  0  0  0  0  0
  -12.8424   14.8774  -39.3595 N   0  0  0  0  0  0  0  0  0  0  0  0
   -9.1407   16.8818  -38.3340 N   0  0  0  0  0  0  0  0  0  0  0  0
  -12.9472   15.1033  -41.6441 O   0  0  0  0  0  0  0  0  0  0  0  0
  -14.0130   13.3709  -40.5833 O   0  0  0  0  0  0  0  0  0  0  0  0
   -9.1723   13.1964  -35.5844 H   0  0  0  0  0  0  0  0  0  0  0  0
  -11.5325   12.6241  -36.1539 H   0  0  0  0  0  0  0  0  0  0  0  0
   -8.0658   15.1562  -36.5874 H   0  0  0  0  0  0  0  0  0  0  0  0
  -13.7637   15.4711  -36.3064 H   0  0  0  0  0  0  0  0  0  0  0  0
  -14.9139   15.4560  -37.6678 H   0  0  0  0  0  0  0  0  0  0  0  0
  -13.8815   17.2925  -38.6116 H   0  0  0  0  0  0  0  0  0  0  0  0
  -12.7060   17.3564  -37.2733 H   0  0  0  0  0  0  0  0  0  0  0  0
  -13.6118   13.3099  -38.0868 H   0  0  0  0  0  0  0  0  0  0  0  0
  -11.7239   16.6756  -39.8041 H   0  0  0  0  0  0  0  0  0  0  0  0
  -14.7594   14.9054  -42.6612 H   0  0  0  0  0  0  0  0  0  0  0  0
  -14.6833   13.2020  -43.1657 H   0  0  0  0  0  0  0  0  0  0  0  0
  -16.2441   14.0372  -43.0099 H   0  0  0  0  0  0  0  0  0  0  0  0
  -16.0882   11.8303  -39.9350 H   0  0  0  0  0  0  0  0  0  0  0  0
  -15.4355   11.3659  -41.4962 H   0  0  0  0  0  0  0  0  0  0  0  0
  -17.0276   12.1517  -41.4094 H   0  0  0  0  0  0  0  0  0  0  0  0
  -16.1532   14.2446  -39.2296 H   0  0  0  0  0  0  0  0  0  0  0  0
  -15.5918   15.5257  -40.3256 H   0  0  0  0  0  0  0  0  0  0  0  0
  -17.1164   14.6642  -40.6355 H   0  0  0  0  0  0  0  0  0  0  0  0
   -8.2098   17.1253  -38.0474 H   0  0  0  0  0  0  0  0  0  0  0  0
   -9.6597   17.4851  -38.9460 H   0  0  0  0  0  0  0  0  0  0  0  0
  1  2  2  0  0  0  0
  1  3  1  0  0  0  0
  2  4  1  0  0  0  0
  3  6  2  0  0  0  0
  4  5  2  0  0  0  0
  4 10  1  0  0  0  0
  5  6  1  0  0  0  0
  5 11  1  0  0  0  0
  6 17  1  0  0  0  0
  7 16  1  0  0  0  0
  7 18  2  0  0  0  0
  7 19  1  0  0  0  0
  8  9  1  0  0  0  0
  8 10  1  0  0  0  0
  9 11  1  0  0  0  0
 10 16  1  0  0  0  0
 11 16  1  0  0  0  0
 12 15  1  0  0  0  0
 13 15  1  0  0  0  0
 14 15  1  0  0  0  0
 15 19  1  0  0  0  0
  1 20  1  0  0  0  0
  2 21  1  0  0  0  0
  3 22  1  0  0  0  0
  8 23  1  0  0  0  0
  8 24  1  0  0  0  0
  9 25  1  0  0  0  0
  9 26  1  0  0  0  0
 10 27  1  0  0  0  0
 11 28  1  0  0  0  0
 12 29  1  0  0  0  0
 12 30  1  0  0  0  0
 12 31  1  0  0  0  0
 13 32  1  0  0  0  0
 13 33  1  0  0  0  0
 13 34  1  0  0  0  0
 14 35  1  0  0  0  0
 14 36  1  0  0  0  0
 14 37  1  0  0  0  0
 17 38  1  0  0  0  0
 17 39  1  0  0  0  0
M  END
> <id>
EN300-12717333

> <smiles>
CC(C)(C)OC(=O)N1C2CCC1C=3C2=CC=CC3N

> <MDLNUMBER>
MFCD27986412

> <IUPAC Name>
tert-butyl 3-amino-11-azatricyclo[6.2.1.0,2,7]undeca-2(7),3,5-triene-11-carboxylate

> <CAS>
668492-18-0

> <Purity>
95

> <URL>
https://www.enaminestore.com/catalog/EN300-12717333

> <MP>
89-90

> <ROCS_ShapeQuery>
_x1247relevant_x1083L0AP1_x1305L0BP1_

> <ROCS_TanimotoCombo>
1.039 

> <ROCS_ShapeTanimoto>
0.537 

> <ROCS_ColorTanimoto>
0.501 

> <ROCS_RefTversky>
0.485 

> <ROCS_RefColorTversky>
0.723 

> <ROCS_RefTverskyCombo>
1.208 

> <ROCS_FitTversky>
1.251 

> <ROCS_FitColorTversky>
0.620 

> <ROCS_FitTverskyCombo>
1.872 

> <ROCS_ColorScore>
-7.055

> <ROCS_Overlap>
1201.815

> <ROCS_Rank>
223                 

$$$$
untitled-dbase-42188_1
  -OEChem-06232314403D

 26 28  0     1  0  0  0  0  0999 V2000
  -12.6799   14.5534  -39.7397 C   0  0  0  0  0  0  0  0  0  0  0  0
  -12.2302   16.0128  -39.5997 C   0  0  0  0  0  0  0  0  0  0  0  0
  -10.5033   13.6621  -37.8152 C   0  0  0  0  0  0  0  0  0  0  0  0
   -9.4933   14.4922  -37.0290 C   0  0  0  0  0  0  0  0  0  0  0  0
  -13.7894   15.4859  -37.8992 C   0  0  0  0  0  0  0  0  0  0  0  0
  -13.0640   14.1906  -38.3035 C   0  0  2  0  0  0  0  0  0  0  0  0
  -12.5406   16.3634  -38.1261 C   0  0  1  0  0  0  0  0  0  0  0  0
  -11.8495   14.2017  -37.3435 C   0  0  2  0  0  0  0  0  0  0  0  0
  -11.6060   15.7076  -37.0876 C   0  0  1  0  0  0  0  0  0  0  0  0
  -10.0976   15.8939  -36.9601 C   0  0  2  0  0  0  0  0  0  0  0  0
   -9.2712   17.1081  -38.2108 Br  0  0  0  0  0  0  0  0  0  0  0  0
  -13.5543   14.4992  -40.3969 H   0  0  0  0  0  0  0  0  0  0  0  0
  -11.9082   13.9142  -40.1698 H   0  0  0  0  0  0  0  0  0  0  0  0
  -11.1855   16.1595  -39.8837 H   0  0  0  0  0  0  0  0  0  0  0  0
  -12.8284   16.6476  -40.2684 H   0  0  0  0  0  0  0  0  0  0  0  0
  -10.3565   13.7167  -38.8864 H   0  0  0  0  0  0  0  0  0  0  0  0
  -10.4125   12.6211  -37.5103 H   0  0  0  0  0  0  0  0  0  0  0  0
   -9.3272   14.0750  -36.0231 H   0  0  0  0  0  0  0  0  0  0  0  0
   -8.5108   14.4853  -37.5226 H   0  0  0  0  0  0  0  0  0  0  0  0
  -14.6229   15.7406  -38.5617 H   0  0  0  0  0  0  0  0  0  0  0  0
  -14.1367   15.4832  -36.8612 H   0  0  0  0  0  0  0  0  0  0  0  0
  -13.6660   13.2852  -38.2333 H   0  0  0  0  0  0  0  0  0  0  0  0
  -12.7065   17.4248  -37.9572 H   0  0  0  0  0  0  0  0  0  0  0  0
  -12.1312   13.7100  -36.4005 H   0  0  0  0  0  0  0  0  0  0  0  0
  -12.0541   15.9524  -36.0727 H   0  0  0  0  0  0  0  0  0  0  0  0
   -9.8689   16.3090  -35.9681 H   0  0  0  0  0  0  0  0  0  0  0  0
  1  2  1  0  0  0  0
  1  6  1  1  0  0  0
  2  7  1  1  0  0  0
  3  4  1  0  0  0  0
  3  8  1  1  0  0  0
  4 10  1  0  0  0  0
  5  6  1  0  0  0  0
  5  7  1  0  0  0  0
  6  8  1  0  0  0  0
  7  9  1  0  0  0  0
  8  9  1  0  0  0  0
  9 10  1  1  0  0  0
 10 11  1  1  0  0  0
  1 12  1  0  0  0  0
  1 13  1  0  0  0  0
  2 14  1  0  0  0  0
  2 15  1  0  0  0  0
  3 16  1  0  0  0  0
  3 17  1  0  0  0  0
  4 18  1  0  0  0  0
  4 19  1  0  0  0  0
  5 20  1  0  0  0  0
  5 21  1  0  0  0  0
  6 22  1  0  0  0  0
  7 23  1  0  0  0  0
  8 24  1  0  0  0  0
  9 25  1  0  0  0  0
 10 26  1  0  0  0  0
M  END
> <id>
EN300-27114522

> <smiles>
Br[C@@H]1CC[C@@H]2[C@@H]3CC[C@@H](C3)[C@H]12 |&1:1,4,5,8,10,r|

> <IUPAC Name>
rac-(1R,2R,3S,6S,7S)-3-bromotricyclo[5.2.1.0,2,6]decane

> <CAS>
2550997-20-9

> <Purity>
95

> <URL>
https://www.enaminestore.com/catalog/EN300-27114522

> <ROCS_ShapeQuery>
_x1247relevant_x1083L0AP1_x1305L0BP1_

> <ROCS_TanimotoCombo>
1.038 

> <ROCS_ShapeTanimoto>
0.466 

> <ROCS_ColorTanimoto>
0.572 

> <ROCS_RefTversky>
0.393 

> <ROCS_RefColorTversky>
0.685 

> <ROCS_RefTverskyCombo>
1.078 

> <ROCS_FitTversky>
1.657 

> <ROCS_FitColorTversky>
0.777 

> <ROCS_FitTverskyCombo>
2.434 

> <ROCS_ColorScore>
-6.574

> <ROCS_Overlap>
966.442

> <ROCS_Rank>
224                 

$$$$
untitled-dbase-37913_0
  -OEChem-06232314403D

 31 33  0     0  0  0  0  0  0999 V2000
  -11.8740   14.1998  -36.9292 C   0  0  0  0  0  0  0  0  0  0  0  0
  -13.9714   15.5168  -37.3042 C   0  0  0  0  0  0  0  0  0  0  0  0
  -13.2911   13.7330  -38.9410 C   0  0  0  0  0  0  0  0  0  0  0  0
  -11.7489   16.6155  -37.5737 C   0  0  0  0  0  0  0  0  0  0  0  0
  -11.0671   14.8275  -39.2144 C   0  0  0  0  0  0  0  0  0  0  0  0
  -13.3172   14.1324  -37.4555 C   0  0  0  0  0  0  0  0  0  0  0  0
  -11.0754   15.2408  -37.7318 C   0  0  0  0  0  0  0  0  0  0  0  0
  -13.1909   16.5711  -38.1256 C   0  0  0  0  0  0  0  0  0  0  0  0
  -12.5095   14.7841  -39.7653 C   0  0  0  0  0  0  0  0  0  0  0  0
  -13.1937   16.1800  -39.6357 C   0  0  0  0  0  0  0  0  0  0  0  0
  -12.4820   17.2446  -40.4979 C   0  0  0  0  0  0  0  0  0  0  0  0
  -14.5665   16.1588  -40.1732 N   0  0  0  0  0  0  0  0  0  0  0  0
  -11.2142   17.3668  -40.0943 F   0  0  0  0  0  0  0  0  0  0  0  0
  -12.5094   16.8679  -41.7794 F   0  0  0  0  0  0  0  0  0  0  0  0
  -13.1095   18.4164  -40.3624 F   0  0  0  0  0  0  0  0  0  0  0  0
  -11.8737   14.4649  -35.8646 H   0  0  0  0  0  0  0  0  0  0  0  0
  -11.3975   13.2152  -37.0110 H   0  0  0  0  0  0  0  0  0  0  0  0
  -15.0245   15.4763  -37.6018 H   0  0  0  0  0  0  0  0  0  0  0  0
  -13.9724   15.8071  -36.2455 H   0  0  0  0  0  0  0  0  0  0  0  0
  -12.8098   12.7524  -39.0490 H   0  0  0  0  0  0  0  0  0  0  0  0
  -14.3112   13.6082  -39.3201 H   0  0  0  0  0  0  0  0  0  0  0  0
  -11.7690   16.8960  -36.5128 H   0  0  0  0  0  0  0  0  0  0  0  0
  -11.1574   17.3873  -38.0768 H   0  0  0  0  0  0  0  0  0  0  0  0
  -10.4436   15.5141  -39.7963 H   0  0  0  0  0  0  0  0  0  0  0  0
  -10.6031   13.8382  -39.3182 H   0  0  0  0  0  0  0  0  0  0  0  0
  -13.8826   13.3898  -36.8816 H   0  0  0  0  0  0  0  0  0  0  0  0
  -10.0479   15.2858  -37.3540 H   0  0  0  0  0  0  0  0  0  0  0  0
  -13.6590   17.5535  -37.9868 H   0  0  0  0  0  0  0  0  0  0  0  0
  -12.4828   14.4692  -40.8160 H   0  0  0  0  0  0  0  0  0  0  0  0
  -15.0780   15.4914  -39.6541 H   0  0  0  0  0  0  0  0  0  0  0  0
  -14.9415   17.0664  -40.0630 H   0  0  0  0  0  0  0  0  0  0  0  0
  1  6  1  0  0  0  0
  1  7  1  0  0  0  0
  2  6  1  0  0  0  0
  2  8  1  0  0  0  0
  3  6  1  0  0  0  0
  3  9  1  0  0  0  0
  4  7  1  0  0  0  0
  4  8  1  0  0  0  0
  5  7  1  0  0  0  0
  5  9  1  0  0  0  0
  8 10  1  0  0  0  0
  9 10  1  0  0  0  0
 10 11  1  0  0  0  0
 10 12  1  0  0  0  0
 11 13  1  0  0  0  0
 11 14  1  0  0  0  0
 11 15  1  0  0  0  0
  1 16  1  0  0  0  0
  1 17  1  0  0  0  0
  2 18  1  0  0  0  0
  2 19  1  0  0  0  0
  3 20  1  0  0  0  0
  3 21  1  0  0  0  0
  4 22  1  0  0  0  0
  4 23  1  0  0  0  0
  5 24  1  0  0  0  0
  5 25  1  0  0  0  0
  6 26  1  0  0  0  0
  7 27  1  0  0  0  0
  8 28  1  0  0  0  0
  9 29  1  0  0  0  0
 12 30  1  0  0  0  0
 12 31  1  0  0  0  0
M  END
> <id>
EN300-392727

> <smiles>
NC1(C2CC3CC(C2)CC1C3)C(F)(F)F

> <IUPAC Name>
2-(trifluoromethyl)adamantan-2-amine

> <CAS>
1268622-60-1

> <URL>
https://www.enaminestore.com/catalog/EN300-392727

> <ROCS_ShapeQuery>
_x1247relevant_x1083L0AP1_x1305L0BP1_

> <ROCS_TanimotoCombo>
1.038 

> <ROCS_ShapeTanimoto>
0.481 

> <ROCS_ColorTanimoto>
0.558 

> <ROCS_RefTversky>
0.428 

> <ROCS_RefColorTversky>
0.675 

> <ROCS_RefTverskyCombo>
1.103 

> <ROCS_FitTversky>
1.341 

> <ROCS_FitColorTversky>
0.762 

> <ROCS_FitTverskyCombo>
2.103 

> <ROCS_ColorScore>
-6.483

> <ROCS_Overlap>
1057.013

> <ROCS_Rank>
225                 

$$$$
untitled-dbase-43725_16
  -OEChem-06232314403D

 40 41  0     1  0  0  0  0  0999 V2000
  -10.2028   14.7489  -37.4314 C   0  0  0  0  0  0  0  0  0  0  0  0
  -13.7711   14.2250  -37.5851 C   0  0  0  0  0  0  0  0  0  0  0  0
  -13.6534   15.6606  -37.0343 C   0  0  0  0  0  0  0  0  0  0  0  0
  -12.5245   14.4085  -39.8131 C   0  0  0  0  0  0  0  0  0  0  0  0
  -12.3332   16.8245  -38.8935 C   0  0  0  0  0  0  0  0  0  0  0  0
  -12.4552   13.9796  -38.3319 C   0  0  1  0  0  0  0  0  0  0  0  0
  -12.2807   16.1516  -37.5049 C   0  0  2  0  0  0  0  0  0  0  0  0
  -12.9095   15.9027  -40.0036 C   0  0  0  0  0  0  0  0  0  0  0  0
   -9.8468   12.9286  -35.5812 C   0  0  0  0  0  0  0  0  0  0  0  0
   -9.4049   11.2423  -37.3896 C   0  0  0  0  0  0  0  0  0  0  0  0
   -7.6635   12.9644  -36.8328 C   0  0  0  0  0  0  0  0  0  0  0  0
  -12.4734   16.3991  -41.3852 C   0  0  0  0  0  0  0  0  0  0  0  0
   -9.1613   12.6759  -36.9232 C   0  0  0  0  0  0  0  0  0  0  0  0
  -11.5532   14.9088  -37.6726 N   0  0  0  0  0  0  0  0  0  0  0  0
   -9.4991   15.5820  -36.8651 O   0  0  0  0  0  0  0  0  0  0  0  0
  -14.3378   16.0196  -39.9631 O   0  0  0  0  0  0  0  0  0  0  0  0
   -9.7359   13.5508  -37.9002 O   0  0  0  0  0  0  0  0  0  0  0  0
  -13.2785   15.4296  -42.6459 Cl  0  0  0  0  0  0  0  0  0  0  0  0
  -12.9284   18.1126  -41.5721 Cl  0  0  0  0  0  0  0  0  0  0  0  0
  -10.7061   16.2330  -41.5461 Cl  0  0  0  0  0  0  0  0  0  0  0  0
  -13.8617   13.5273  -36.7438 H   0  0  0  0  0  0  0  0  0  0  0  0
  -14.6556   14.0928  -38.2153 H   0  0  0  0  0  0  0  0  0  0  0  0
  -14.4765   16.3005  -37.3663 H   0  0  0  0  0  0  0  0  0  0  0  0
  -13.6858   15.6264  -35.9386 H   0  0  0  0  0  0  0  0  0  0  0  0
  -11.5396   14.2233  -40.2621 H   0  0  0  0  0  0  0  0  0  0  0  0
  -13.2442   13.7670  -40.3370 H   0  0  0  0  0  0  0  0  0  0  0  0
  -12.9257   17.7450  -38.8204 H   0  0  0  0  0  0  0  0  0  0  0  0
  -11.3102   17.1214  -39.1608 H   0  0  0  0  0  0  0  0  0  0  0  0
  -12.1175   12.9426  -38.2473 H   0  0  0  0  0  0  0  0  0  0  0  0
  -11.7971   16.8107  -36.7773 H   0  0  0  0  0  0  0  0  0  0  0  0
   -9.6744   13.9566  -35.2429 H   0  0  0  0  0  0  0  0  0  0  0  0
  -10.9268   12.7589  -35.6416 H   0  0  0  0  0  0  0  0  0  0  0  0
   -9.4367   12.2744  -34.8033 H   0  0  0  0  0  0  0  0  0  0  0  0
   -8.9148   11.0566  -38.3521 H   0  0  0  0  0  0  0  0  0  0  0  0
  -10.4740   11.0594  -37.5472 H   0  0  0  0  0  0  0  0  0  0  0  0
   -9.0315   10.5124  -36.6639 H   0  0  0  0  0  0  0  0  0  0  0  0
   -7.1716   12.7833  -37.7953 H   0  0  0  0  0  0  0  0  0  0  0  0
   -7.4695   14.0000  -36.5350 H   0  0  0  0  0  0  0  0  0  0  0  0
   -7.1813   12.2977  -36.1087 H   0  0  0  0  0  0  0  0  0  0  0  0
  -14.6720   15.4728  -40.6879 H   0  0  0  0  0  0  0  0  0  0  0  0
  1 14  1  0  0  0  0
  1 15  2  0  0  0  0
  1 17  1  0  0  0  0
  2  3  1  0  0  0  0
  2  6  1  1  0  0  0
  3  7  1  1  0  0  0
  4  6  1  0  0  0  0
  4  8  1  0  0  0  0
  5  7  1  0  0  0  0
  5  8  1  0  0  0  0
  6 14  1  0  0  0  0
  7 14  1  0  0  0  0
  8 12  1  0  0  0  0
  8 16  1  1  0  0  0
  9 13  1  0  0  0  0
 10 13  1  0  0  0  0
 11 13  1  0  0  0  0
 12 18  1  0  0  0  0
 12 19  1  0  0  0  0
 12 20  1  0  0  0  0
 13 17  1  0  0  0  0
  2 21  1  0  0  0  0
  2 22  1  0  0  0  0
  3 23  1  0  0  0  0
  3 24  1  0  0  0  0
  4 25  1  0  0  0  0
  4 26  1  0  0  0  0
  5 27  1  0  0  0  0
  5 28  1  0  0  0  0
  6 29  1  0  0  0  0
  7 30  1  0  0  0  0
  9 31  1  0  0  0  0
  9 32  1  0  0  0  0
  9 33  1  0  0  0  0
 10 34  1  0  0  0  0
 10 35  1  0  0  0  0
 10 36  1  0  0  0  0
 11 37  1  0  0  0  0
 11 38  1  0  0  0  0
 11 39  1  0  0  0  0
 16 40  1  0  0  0  0
M  END
> <id>
EN300-28229065

> <smiles>
CC(C)(C)OC(=O)N1[C@H]2CC[C@@H]1C[C@](O)(C2)C(Cl)(Cl)Cl

> <IUPAC Name>
tert-butyl (1R,3R,5S)-3-hydroxy-3-(trichloromethyl)-8-azabicyclo[3.2.1]octane-8-carboxylate

> <CAS>
2639371-68-7

> <URL>
https://www.enaminestore.com/catalog/EN300-28229065

> <ROCS_ShapeQuery>
_x1247relevant_x1083L0AP1_x1305L0BP1_

> <ROCS_TanimotoCombo>
1.038 

> <ROCS_ShapeTanimoto>
0.531 

> <ROCS_ColorTanimoto>
0.507 

> <ROCS_RefTversky>
0.479 

> <ROCS_RefColorTversky>
0.677 

> <ROCS_RefTverskyCombo>
1.157 

> <ROCS_FitTversky>
1.257 

> <ROCS_FitColorTversky>
0.668 

> <ROCS_FitTverskyCombo>
1.925 

> <ROCS_ColorScore>
-6.553

> <ROCS_Overlap>
1186.414

> <ROCS_Rank>
226                 

$$$$
untitled-dbase-24770_0
  -OEChem-06232314403D

 21 22  0     1  0  0  0  0  0999 V2000
  -12.0212   14.5272  -39.3033 C   0  0  0  0  0  0  0  0  0  0  0  0
  -14.0562   14.7636  -38.0797 C   0  0  0  0  0  0  0  0  0  0  0  0
  -11.5490   16.2634  -37.7432 C   0  0  0  0  0  0  0  0  0  0  0  0
  -12.6550   14.1385  -37.9656 C   0  0  2  0  0  0  0  0  0  0  0  0
  -12.2666   16.0226  -39.0868 C   0  0  2  0  0  0  0  0  0  0  0  0
  -13.7932   16.0794  -38.8446 C   0  0  1  0  0  0  0  0  0  0  0  0
  -11.8188   14.9633  -36.9780 C   0  0  1  0  0  0  0  0  0  0  0  0
  -14.5600   16.1272  -40.0860 N   0  0  0  0  0  0  0  0  0  0  0  0
  -10.6368   14.3283  -36.7593 F   0  0  0  0  0  0  0  0  0  0  0  0
  -10.9580   14.2717  -39.3670 H   0  0  0  0  0  0  0  0  0  0  0  0
  -12.5452   14.1092  -40.1680 H   0  0  0  0  0  0  0  0  0  0  0  0
  -14.7246   14.0934  -38.6341 H   0  0  0  0  0  0  0  0  0  0  0  0
  -14.5113   14.9480  -37.1007 H   0  0  0  0  0  0  0  0  0  0  0  0
  -10.4735   16.4087  -37.8916 H   0  0  0  0  0  0  0  0  0  0  0  0
  -11.9501   17.1373  -37.2203 H   0  0  0  0  0  0  0  0  0  0  0  0
  -12.6529   13.0674  -37.7547 H   0  0  0  0  0  0  0  0  0  0  0  0
  -11.9115   16.6783  -39.8854 H   0  0  0  0  0  0  0  0  0  0  0  0
  -14.0703   16.9457  -38.2340 H   0  0  0  0  0  0  0  0  0  0  0  0
  -12.3080   15.1243  -36.0133 H   0  0  0  0  0  0  0  0  0  0  0  0
  -15.5254   16.0990  -39.8567 H   0  0  0  0  0  0  0  0  0  0  0  0
  -14.3362   16.9719  -40.5569 H   0  0  0  0  0  0  0  0  0  0  0  0
  1  4  1  0  0  0  0
  1  5  1  0  0  0  0
  2  4  1  0  0  0  0
  2  6  1  0  0  0  0
  3  5  1  0  0  0  0
  3  7  1  0  0  0  0
  4  7  1  0  0  0  0
  5  6  1  0  0  0  0
  6  8  1  0  0  0  0
  7  9  1  0  0  0  0
  1 10  1  0  0  0  0
  1 11  1  0  0  0  0
  2 12  1  0  0  0  0
  2 13  1  0  0  0  0
  3 14  1  0  0  0  0
  3 15  1  0  0  0  0
  4 16  1  0  0  0  0
  5 17  1  0  0  0  0
  6 18  1  0  0  0  0
  7 19  1  0  0  0  0
  8 20  1  0  0  0  0
  8 21  1  0  0  0  0
M  END
> <id>
EN300-6487063

> <smiles>
Cl.NC1CC2CC1CC2F

> <MDLNUMBER>
MFCD31668448

> <IUPAC Name>
5-fluorobicyclo[2.2.1]heptan-2-amine hydrochloride

> <CAS>
2243508-52-1

> <Purity>
95

> <URL>
https://www.enaminestore.com/catalog/EN300-6487063

> <Saltdate>
Cl

> <ROCS_ShapeQuery>
_x1247relevant_x1083L0AP1_x1305L0BP1_

> <ROCS_TanimotoCombo>
1.037 

> <ROCS_ShapeTanimoto>
0.426 

> <ROCS_ColorTanimoto>
0.612 

> <ROCS_RefTversky>
0.360 

> <ROCS_RefColorTversky>
0.711 

> <ROCS_RefTverskyCombo>
1.071 

> <ROCS_FitTversky>
1.755 

> <ROCS_FitColorTversky>
0.814 

> <ROCS_FitTverskyCombo>
2.569 

> <ROCS_ColorScore>
-6.826

> <ROCS_Overlap>
882.677

> <ROCS_Rank>
227                 

$$$$
untitled-dbase-24940_0
  -OEChem-06232314403D

 21 22  0     1  0  0  0  0  0999 V2000
  -12.0212   14.5272  -39.3033 C   0  0  0  0  0  0  0  0  0  0  0  0
  -14.0562   14.7636  -38.0797 C   0  0  0  0  0  0  0  0  0  0  0  0
  -11.5490   16.2634  -37.7432 C   0  0  0  0  0  0  0  0  0  0  0  0
  -12.6550   14.1385  -37.9656 C   0  0  2  0  0  0  0  0  0  0  0  0
  -12.2666   16.0226  -39.0868 C   0  0  2  0  0  0  0  0  0  0  0  0
  -13.7932   16.0794  -38.8446 C   0  0  1  0  0  0  0  0  0  0  0  0
  -11.8188   14.9633  -36.9780 C   0  0  1  0  0  0  0  0  0  0  0  0
  -14.5600   16.1272  -40.0860 N   0  0  0  0  0  0  0  0  0  0  0  0
  -10.6368   14.3283  -36.7593 F   0  0  0  0  0  0  0  0  0  0  0  0
  -10.9580   14.2717  -39.3670 H   0  0  0  0  0  0  0  0  0  0  0  0
  -12.5452   14.1092  -40.1680 H   0  0  0  0  0  0  0  0  0  0  0  0
  -14.7246   14.0934  -38.6341 H   0  0  0  0  0  0  0  0  0  0  0  0
  -14.5113   14.9480  -37.1007 H   0  0  0  0  0  0  0  0  0  0  0  0
  -10.4735   16.4087  -37.8916 H   0  0  0  0  0  0  0  0  0  0  0  0
  -11.9501   17.1373  -37.2203 H   0  0  0  0  0  0  0  0  0  0  0  0
  -12.6529   13.0674  -37.7547 H   0  0  0  0  0  0  0  0  0  0  0  0
  -11.9115   16.6783  -39.8854 H   0  0  0  0  0  0  0  0  0  0  0  0
  -14.0703   16.9457  -38.2340 H   0  0  0  0  0  0  0  0  0  0  0  0
  -12.3080   15.1243  -36.0133 H   0  0  0  0  0  0  0  0  0  0  0  0
  -15.5254   16.0990  -39.8567 H   0  0  0  0  0  0  0  0  0  0  0  0
  -14.3362   16.9719  -40.5569 H   0  0  0  0  0  0  0  0  0  0  0  0
  1  4  1  0  0  0  0
  1  5  1  0  0  0  0
  2  4  1  0  0  0  0
  2  6  1  0  0  0  0
  3  5  1  0  0  0  0
  3  7  1  0  0  0  0
  4  7  1  0  0  0  0
  5  6  1  0  0  0  0
  6  8  1  0  0  0  0
  7  9  1  0  0  0  0
  1 10  1  0  0  0  0
  1 11  1  0  0  0  0
  2 12  1  0  0  0  0
  2 13  1  0  0  0  0
  3 14  1  0  0  0  0
  3 15  1  0  0  0  0
  4 16  1  0  0  0  0
  5 17  1  0  0  0  0
  6 18  1  0  0  0  0
  7 19  1  0  0  0  0
  8 20  1  0  0  0  0
  8 21  1  0  0  0  0
M  END
> <id>
EN300-6487064

> <smiles>
NC1CC2CC1CC2F

> <MDLNUMBER>
MFCD30540926

> <IUPAC Name>
5-fluorobicyclo[2.2.1]heptan-2-amine

> <CAS>
2168204-79-1

> <URL>
https://www.enaminestore.com/catalog/EN300-6487064

> <ROCS_ShapeQuery>
_x1247relevant_x1083L0AP1_x1305L0BP1_

> <ROCS_TanimotoCombo>
1.037 

> <ROCS_ShapeTanimoto>
0.426 

> <ROCS_ColorTanimoto>
0.612 

> <ROCS_RefTversky>
0.360 

> <ROCS_RefColorTversky>
0.711 

> <ROCS_RefTverskyCombo>
1.071 

> <ROCS_FitTversky>
1.755 

> <ROCS_FitColorTversky>
0.814 

> <ROCS_FitTverskyCombo>
2.569 

> <ROCS_ColorScore>
-6.826

> <ROCS_Overlap>
882.677

> <ROCS_Rank>
228                 

$$$$
untitled-dbase-53372_0
  -OEChem-06232314403D

 36 39  0     0  0  0  0  0  0999 V2000
  -14.2120   15.3857  -39.4037 C   0  0  0  0  0  0  0  0  0  0  0  0
  -13.5228   16.2311  -37.1483 C   0  0  0  0  0  0  0  0  0  0  0  0
  -13.3752   13.7773  -37.6784 C   0  0  0  0  0  0  0  0  0  0  0  0
  -12.1249   16.7463  -39.1539 C   0  0  0  0  0  0  0  0  0  0  0  0
  -11.9720   14.2953  -39.6811 C   0  0  0  0  0  0  0  0  0  0  0  0
   -8.8033   14.0973  -36.2281 C   0  0  0  0  0  0  0  0  0  0  0  0
  -11.0416   14.8719  -35.8873 C   0  0  0  0  0  0  0  0  0  0  0  0
   -8.9539   14.3774  -37.7147 C   0  0  0  0  0  0  0  0  0  0  0  0
  -14.1866   15.0645  -37.8993 C   0  0  0  0  0  0  0  0  0  0  0  0
  -12.7772   15.5841  -39.9209 C   0  0  0  0  0  0  0  0  0  0  0  0
  -12.0749   16.4234  -37.6419 C   0  0  0  0  0  0  0  0  0  0  0  0
  -11.9251   13.9684  -38.1705 C   0  0  0  0  0  0  0  0  0  0  0  0
  -11.2228   15.1360  -37.4022 C   0  0  0  0  0  0  0  0  0  0  0  0
  -10.1025   13.7735  -35.6422 N   0  0  0  0  0  0  0  0  0  0  0  0
   -9.9115   15.4095  -37.9466 O   0  0  0  0  0  0  0  0  0  0  0  0
  -14.7000   14.5716  -39.9536 H   0  0  0  0  0  0  0  0  0  0  0  0
  -14.8047   16.2909  -39.5844 H   0  0  0  0  0  0  0  0  0  0  0  0
  -14.0956   17.1521  -37.3161 H   0  0  0  0  0  0  0  0  0  0  0  0
  -13.5482   16.0500  -36.0686 H   0  0  0  0  0  0  0  0  0  0  0  0
  -13.3952   13.4926  -36.6213 H   0  0  0  0  0  0  0  0  0  0  0  0
  -13.8431   12.9485  -38.2250 H   0  0  0  0  0  0  0  0  0  0  0  0
  -11.1175   16.9356  -39.5429 H   0  0  0  0  0  0  0  0  0  0  0  0
  -12.6975   17.6681  -39.3177 H   0  0  0  0  0  0  0  0  0  0  0  0
  -12.4343   13.4627  -40.2264 H   0  0  0  0  0  0  0  0  0  0  0  0
  -10.9586   14.4051  -40.0843 H   0  0  0  0  0  0  0  0  0  0  0  0
   -8.1090   13.2660  -36.0684 H   0  0  0  0  0  0  0  0  0  0  0  0
   -8.3849   14.9728  -35.7174 H   0  0  0  0  0  0  0  0  0  0  0  0
  -10.6579   15.7738  -35.3925 H   0  0  0  0  0  0  0  0  0  0  0  0
  -11.9839   14.6292  -35.3902 H   0  0  0  0  0  0  0  0  0  0  0  0
   -7.9974   14.7237  -38.1202 H   0  0  0  0  0  0  0  0  0  0  0  0
   -9.2260   13.4759  -38.2736 H   0  0  0  0  0  0  0  0  0  0  0  0
  -15.2108   14.9245  -37.5364 H   0  0  0  0  0  0  0  0  0  0  0  0
  -12.7996   15.8131  -40.9920 H   0  0  0  0  0  0  0  0  0  0  0  0
  -11.6151   17.2759  -37.1269 H   0  0  0  0  0  0  0  0  0  0  0  0
  -11.3825   13.0257  -38.0484 H   0  0  0  0  0  0  0  0  0  0  0  0
  -10.4613   12.9163  -36.0604 H   0  0  0  0  0  0  0  0  0  0  0  0
  1  9  1  0  0  0  0
  1 10  1  0  0  0  0
  2  9  1  0  0  0  0
  2 11  1  0  0  0  0
  3  9  1  0  0  0  0
  3 12  1  0  0  0  0
  4 10  1  0  0  0  0
  4 11  1  0  0  0  0
  5 10  1  0  0  0  0
  5 12  1  0  0  0  0
  6  8  1  0  0  0  0
  6 14  1  0  0  0  0
  7 13  1  0  0  0  0
  7 14  1  0  0  0  0
  8 15  1  0  0  0  0
 11 13  1  0  0  0  0
 12 13  1  0  0  0  0
 13 15  1  0  0  0  0
  1 16  1  0  0  0  0
  1 17  1  0  0  0  0
  2 18  1  0  0  0  0
  2 19  1  0  0  0  0
  3 20  1  0  0  0  0
  3 21  1  0  0  0  0
  4 22  1  0  0  0  0
  4 23  1  0  0  0  0
  5 24  1  0  0  0  0
  5 25  1  0  0  0  0
  6 26  1  0  0  0  0
  6 27  1  0  0  0  0
  7 28  1  0  0  0  0
  7 29  1  0  0  0  0
  8 30  1  0  0  0  0
  8 31  1  0  0  0  0
  9 32  1  0  0  0  0
 10 33  1  0  0  0  0
 11 34  1  0  0  0  0
 12 35  1  0  0  0  0
 14 36  1  0  0  0  0
M  END
> <id>
EN300-6763478

> <smiles>
C1COC2(CN1)C3CC4CC(C3)CC2C4

> <IUPAC Name>
spiro[adamantane-2,2'-morpholine]

> <CAS>
101672-27-9

> <URL>
https://www.enaminestore.com/catalog/EN300-6763478

> <ROCS_ShapeQuery>
_x1247relevant_x1083L0AP1_x1305L0BP1_

> <ROCS_TanimotoCombo>
1.037 

> <ROCS_ShapeTanimoto>
0.553 

> <ROCS_ColorTanimoto>
0.485 

> <ROCS_RefTversky>
0.468 

> <ROCS_RefColorTversky>
0.677 

> <ROCS_RefTverskyCombo>
1.145 

> <ROCS_FitTversky>
1.484 

> <ROCS_FitColorTversky>
0.631 

> <ROCS_FitTverskyCombo>
2.115 

> <ROCS_ColorScore>
-6.568

> <ROCS_Overlap>
1155.423

> <ROCS_Rank>
229                 

$$$$
untitled-dbase-26830_0
  -OEChem-06232314403D

 36 39  0     0  0  0  0  0  0999 V2000
  -14.2120   15.3857  -39.4037 C   0  0  0  0  0  0  0  0  0  0  0  0
  -13.5228   16.2311  -37.1483 C   0  0  0  0  0  0  0  0  0  0  0  0
  -13.3752   13.7773  -37.6784 C   0  0  0  0  0  0  0  0  0  0  0  0
  -12.1249   16.7463  -39.1539 C   0  0  0  0  0  0  0  0  0  0  0  0
  -11.9720   14.2953  -39.6811 C   0  0  0  0  0  0  0  0  0  0  0  0
   -8.8033   14.0973  -36.2281 C   0  0  0  0  0  0  0  0  0  0  0  0
  -11.0416   14.8719  -35.8873 C   0  0  0  0  0  0  0  0  0  0  0  0
   -8.9539   14.3774  -37.7147 C   0  0  0  0  0  0  0  0  0  0  0  0
  -14.1866   15.0645  -37.8993 C   0  0  0  0  0  0  0  0  0  0  0  0
  -12.7772   15.5841  -39.9209 C   0  0  0  0  0  0  0  0  0  0  0  0
  -12.0749   16.4234  -37.6419 C   0  0  0  0  0  0  0  0  0  0  0  0
  -11.9251   13.9684  -38.1705 C   0  0  0  0  0  0  0  0  0  0  0  0
  -11.2228   15.1360  -37.4022 C   0  0  0  0  0  0  0  0  0  0  0  0
  -10.1025   13.7735  -35.6422 N   0  0  0  0  0  0  0  0  0  0  0  0
   -9.9115   15.4095  -37.9466 O   0  0  0  0  0  0  0  0  0  0  0  0
  -14.7000   14.5716  -39.9536 H   0  0  0  0  0  0  0  0  0  0  0  0
  -14.8047   16.2909  -39.5844 H   0  0  0  0  0  0  0  0  0  0  0  0
  -14.0956   17.1521  -37.3161 H   0  0  0  0  0  0  0  0  0  0  0  0
  -13.5482   16.0500  -36.0686 H   0  0  0  0  0  0  0  0  0  0  0  0
  -13.3952   13.4926  -36.6213 H   0  0  0  0  0  0  0  0  0  0  0  0
  -13.8431   12.9485  -38.2250 H   0  0  0  0  0  0  0  0  0  0  0  0
  -11.1175   16.9356  -39.5429 H   0  0  0  0  0  0  0  0  0  0  0  0
  -12.6975   17.6681  -39.3177 H   0  0  0  0  0  0  0  0  0  0  0  0
  -12.4343   13.4627  -40.2264 H   0  0  0  0  0  0  0  0  0  0  0  0
  -10.9586   14.4051  -40.0843 H   0  0  0  0  0  0  0  0  0  0  0  0
   -8.1090   13.2660  -36.0684 H   0  0  0  0  0  0  0  0  0  0  0  0
   -8.3849   14.9728  -35.7174 H   0  0  0  0  0  0  0  0  0  0  0  0
  -10.6579   15.7738  -35.3925 H   0  0  0  0  0  0  0  0  0  0  0  0
  -11.9839   14.6292  -35.3902 H   0  0  0  0  0  0  0  0  0  0  0  0
   -7.9974   14.7237  -38.1202 H   0  0  0  0  0  0  0  0  0  0  0  0
   -9.2260   13.4759  -38.2736 H   0  0  0  0  0  0  0  0  0  0  0  0
  -15.2108   14.9245  -37.5364 H   0  0  0  0  0  0  0  0  0  0  0  0
  -12.7996   15.8131  -40.9920 H   0  0  0  0  0  0  0  0  0  0  0  0
  -11.6151   17.2759  -37.1269 H   0  0  0  0  0  0  0  0  0  0  0  0
  -11.3825   13.0257  -38.0484 H   0  0  0  0  0  0  0  0  0  0  0  0
  -10.4613   12.9163  -36.0604 H   0  0  0  0  0  0  0  0  0  0  0  0
  1  9  1  0  0  0  0
  1 10  1  0  0  0  0
  2  9  1  0  0  0  0
  2 11  1  0  0  0  0
  3  9  1  0  0  0  0
  3 12  1  0  0  0  0
  4 10  1  0  0  0  0
  4 11  1  0  0  0  0
  5 10  1  0  0  0  0
  5 12  1  0  0  0  0
  6  8  1  0  0  0  0
  6 14  1  0  0  0  0
  7 13  1  0  0  0  0
  7 14  1  0  0  0  0
  8 15  1  0  0  0  0
 11 13  1  0  0  0  0
 12 13  1  0  0  0  0
 13 15  1  0  0  0  0
  1 16  1  0  0  0  0
  1 17  1  0  0  0  0
  2 18  1  0  0  0  0
  2 19  1  0  0  0  0
  3 20  1  0  0  0  0
  3 21  1  0  0  0  0
  4 22  1  0  0  0  0
  4 23  1  0  0  0  0
  5 24  1  0  0  0  0
  5 25  1  0  0  0  0
  6 26  1  0  0  0  0
  6 27  1  0  0  0  0
  7 28  1  0  0  0  0
  7 29  1  0  0  0  0
  8 30  1  0  0  0  0
  8 31  1  0  0  0  0
  9 32  1  0  0  0  0
 10 33  1  0  0  0  0
 11 34  1  0  0  0  0
 12 35  1  0  0  0  0
 14 36  1  0  0  0  0
M  END
> <id>
EN300-6763477

> <smiles>
Cl.C1COC2(CN1)C3CC4CC(C3)CC2C4

> <MDLNUMBER>
MFCD31810989

> <IUPAC Name>
spiro[adamantane-2,2'-morpholine] hydrochloride

> <CAS>
2305252-92-8

> <Purity>
95

> <URL>
https://www.enaminestore.com/catalog/EN300-6763477

> <Saltdate>
Cl

> <ROCS_ShapeQuery>
_x1247relevant_x1083L0AP1_x1305L0BP1_

> <ROCS_TanimotoCombo>
1.037 

> <ROCS_ShapeTanimoto>
0.553 

> <ROCS_ColorTanimoto>
0.485 

> <ROCS_RefTversky>
0.468 

> <ROCS_RefColorTversky>
0.677 

> <ROCS_RefTverskyCombo>
1.145 

> <ROCS_FitTversky>
1.484 

> <ROCS_FitColorTversky>
0.631 

> <ROCS_FitTverskyCombo>
2.115 

> <ROCS_ColorScore>
-6.568

> <ROCS_Overlap>
1155.423

> <ROCS_Rank>
230                 

$$$$
untitled-dbase-34685_0
  -OEChem-06232314403D

 22 24  0     1  0  0  0  0  0999 V2000
   -8.9830   14.9313  -37.6108 C   0  0  0  0  0  0  0  0  0  0  0  0
   -9.8447   14.8295  -38.7028 C   0  0  0  0  0  0  0  0  0  0  0  0
   -9.5252   15.0559  -36.3246 C   0  0  0  0  0  0  0  0  0  0  0  0
  -11.1908   14.8487  -38.4366 C   0  0  0  0  0  0  0  0  0  0  0  0
  -11.6306   14.9758  -37.1217 C   0  0  0  0  0  0  0  0  0  0  0  0
  -13.5979   16.3211  -37.8264 C   0  0  0  0  0  0  0  0  0  0  0  0
  -12.4196   14.8075  -39.2842 C   0  0  2  0  0  0  0  0  0  0  0  0
  -13.1330   15.0028  -37.1967 C   0  0  1  0  0  0  0  0  0  0  0  0
  -13.0768   16.1995  -39.2876 C   0  0  1  0  0  0  0  0  0  0  0  0
  -10.8515   15.0869  -36.0415 N   0  0  0  0  0  0  0  0  0  0  0  0
  -14.1811   16.2610  -40.2409 N   0  0  0  0  0  0  0  0  0  0  0  0
  -13.2930   14.1079  -38.3390 O   0  0  0  0  0  0  0  0  0  0  0  0
   -7.9075   14.9211  -37.7541 H   0  0  0  0  0  0  0  0  0  0  0  0
   -9.4629   14.7433  -39.7128 H   0  0  0  0  0  0  0  0  0  0  0  0
   -8.8711   15.1388  -35.4618 H   0  0  0  0  0  0  0  0  0  0  0  0
  -14.6923   16.3849  -37.7992 H   0  0  0  0  0  0  0  0  0  0  0  0
  -13.1947   17.2033  -37.3178 H   0  0  0  0  0  0  0  0  0  0  0  0
  -12.3302   14.2697  -40.2302 H   0  0  0  0  0  0  0  0  0  0  0  0
  -13.6645   14.6501  -36.3121 H   0  0  0  0  0  0  0  0  0  0  0  0
  -12.3613   16.9952  -39.5231 H   0  0  0  0  0  0  0  0  0  0  0  0
  -14.6134   17.1507  -40.1587 H   0  0  0  0  0  0  0  0  0  0  0  0
  -13.8110   16.1340  -41.1531 H   0  0  0  0  0  0  0  0  0  0  0  0
  1  2  1  0  0  0  0
  1  3  2  0  0  0  0
  2  4  2  0  0  0  0
  3 10  1  0  0  0  0
  4  5  1  0  0  0  0
  4  7  1  0  0  0  0
  5  8  1  0  0  0  0
  5 10  2  0  0  0  0
  6  8  1  0  0  0  0
  6  9  1  0  0  0  0
  7  9  1  0  0  0  0
  7 12  1  0  0  0  0
  8 12  1  0  0  0  0
  9 11  1  0  0  0  0
  1 13  1  0  0  0  0
  2 14  1  0  0  0  0
  3 15  1  0  0  0  0
  6 16  1  0  0  0  0
  6 17  1  0  0  0  0
  7 18  1  0  0  0  0
  8 19  1  0  0  0  0
  9 20  1  0  0  0  0
 11 21  1  0  0  0  0
 11 22  1  0  0  0  0
M  END
> <id>
EN300-37468730

> <smiles>
NC1CC2OC1C=3C=CC=NC23

> <IUPAC Name>
11-oxa-3-azatricyclo[6.2.1.0,2,7]undeca-2,4,6-trien-9-amine

> <URL>
https://www.enaminestore.com/catalog/EN300-37468730

> <ROCS_ShapeQuery>
_x1247relevant_x1083L0AP1_x1305L0BP1_

> <ROCS_TanimotoCombo>
1.037 

> <ROCS_ShapeTanimoto>
0.501 

> <ROCS_ColorTanimoto>
0.536 

> <ROCS_RefTversky>
0.424 

> <ROCS_RefColorTversky>
0.755 

> <ROCS_RefTverskyCombo>
1.179 

> <ROCS_FitTversky>
1.568 

> <ROCS_FitColorTversky>
0.648 

> <ROCS_FitTverskyCombo>
2.217 

> <ROCS_ColorScore>
-7.361

> <ROCS_Overlap>
1044.515

> <ROCS_Rank>
231                 

$$$$
untitled-dbase-42158_1
  -OEChem-06232314403D

 25 27  0     0  0  0  0  0  0999 V2000
   -8.7989   14.7117  -36.7069 C   0  0  0  0  0  0  0  0  0  0  0  0
   -9.5719   13.7869  -36.0187 C   0  0  0  0  0  0  0  0  0  0  0  0
   -9.4006   15.5632  -37.6295 C   0  0  0  0  0  0  0  0  0  0  0  0
  -10.9458   13.7197  -36.2523 C   0  0  0  0  0  0  0  0  0  0  0  0
  -10.7826   15.4916  -37.8825 C   0  0  0  0  0  0  0  0  0  0  0  0
  -11.5905   14.5664  -37.1779 C   0  0  0  0  0  0  0  0  0  0  0  0
  -11.3954   16.4724  -38.8633 C   0  0  0  0  0  0  0  0  0  0  0  0
  -13.5893   14.0095  -38.8560 C   0  0  0  0  0  0  0  0  0  0  0  0
  -13.9141   15.7878  -37.7312 C   0  0  0  0  0  0  0  0  0  0  0  0
  -13.1543   14.4636  -37.4295 C   0  0  0  0  0  0  0  0  0  0  0  0
  -13.6905   15.5091  -39.2321 C   0  0  0  0  0  0  0  0  0  0  0  0
  -12.3892   15.9187  -39.7878 N   0  0  0  0  0  0  0  0  0  0  0  0
   -7.7292   14.7695  -36.5300 H   0  0  0  0  0  0  0  0  0  0  0  0
   -9.1093   13.1145  -35.3023 H   0  0  0  0  0  0  0  0  0  0  0  0
   -8.7829   16.2876  -38.1552 H   0  0  0  0  0  0  0  0  0  0  0  0
  -11.5343   12.9885  -35.7011 H   0  0  0  0  0  0  0  0  0  0  0  0
  -11.9240   17.2465  -38.2921 H   0  0  0  0  0  0  0  0  0  0  0  0
  -10.6049   17.0130  -39.3956 H   0  0  0  0  0  0  0  0  0  0  0  0
  -12.9139   13.3627  -39.4145 H   0  0  0  0  0  0  0  0  0  0  0  0
  -14.5674   13.5124  -38.8551 H   0  0  0  0  0  0  0  0  0  0  0  0
  -14.9727   15.7512  -37.4333 H   0  0  0  0  0  0  0  0  0  0  0  0
  -13.4890   16.7072  -37.3085 H   0  0  0  0  0  0  0  0  0  0  0  0
  -13.6430   13.8631  -36.6499 H   0  0  0  0  0  0  0  0  0  0  0  0
  -14.5267   15.7240  -39.9059 H   0  0  0  0  0  0  0  0  0  0  0  0
  -12.4385   16.4794  -40.6373 H   0  0  0  0  0  0  0  0  0  0  0  0
  1  2  2  0  0  0  0
  1  3  1  0  0  0  0
  2  4  1  0  0  0  0
  3  5  2  0  0  0  0
  4  6  2  0  0  0  0
  5  6  1  0  0  0  0
  5  7  1  0  0  0  0
  6 10  1  0  0  0  0
  7 12  1  0  0  0  0
  8 10  1  0  0  0  0
  8 11  1  6  0  0  0
  9 10  1  1  0  0  0
  9 11  1  0  0  0  0
 11 12  1  0  0  0  0
  1 13  1  0  0  0  0
  2 14  1  0  0  0  0
  3 15  1  0  0  0  0
  4 16  1  0  0  0  0
  7 17  1  0  0  0  0
  7 18  1  0  0  0  0
  8 19  1  0  0  0  0
  8 20  1  0  0  0  0
  9 21  1  0  0  0  0
  9 22  1  0  0  0  0
 10 23  1  0  0  0  0
 11 24  1  0  0  0  0
 12 25  1  0  0  0  0
M  END
> <id>
EN300-39870066

> <smiles>
C1[C@H]2C[C@@H]1C=3C=CC=CC3CN2

> <IUPAC Name>
(1s,10s)-9-azatricyclo[8.1.1.0,2,7]dodeca-2,4,6-triene

> <URL>
https://www.enaminestore.com/catalog/EN300-39870066

> <ROCS_ShapeQuery>
_x1247relevant_x1083L0AP1_x1305L0BP1_

> <ROCS_TanimotoCombo>
1.037 

> <ROCS_ShapeTanimoto>
0.504 

> <ROCS_ColorTanimoto>
0.533 

> <ROCS_RefTversky>
0.422 

> <ROCS_RefColorTversky>
0.662 

> <ROCS_RefTverskyCombo>
1.084 

> <ROCS_FitTversky>
1.624 

> <ROCS_FitColorTversky>
0.733 

> <ROCS_FitTverskyCombo>
2.357 

> <ROCS_ColorScore>
-6.363

> <ROCS_Overlap>
1038.076

> <ROCS_Rank>
232                 

$$$$
untitled-dbase-50767_1
  -OEChem-06232314403D

 25 27  0     0  0  0  0  0  0999 V2000
   -8.7989   14.7117  -36.7069 C   0  0  0  0  0  0  0  0  0  0  0  0
   -9.5719   13.7869  -36.0187 C   0  0  0  0  0  0  0  0  0  0  0  0
   -9.4006   15.5632  -37.6295 C   0  0  0  0  0  0  0  0  0  0  0  0
  -10.9458   13.7197  -36.2523 C   0  0  0  0  0  0  0  0  0  0  0  0
  -10.7826   15.4916  -37.8825 C   0  0  0  0  0  0  0  0  0  0  0  0
  -11.5905   14.5664  -37.1779 C   0  0  0  0  0  0  0  0  0  0  0  0
  -11.3954   16.4724  -38.8633 C   0  0  0  0  0  0  0  0  0  0  0  0
  -13.5893   14.0095  -38.8560 C   0  0  0  0  0  0  0  0  0  0  0  0
  -13.9141   15.7878  -37.7312 C   0  0  0  0  0  0  0  0  0  0  0  0
  -13.1543   14.4636  -37.4295 C   0  0  0  0  0  0  0  0  0  0  0  0
  -13.6905   15.5091  -39.2321 C   0  0  0  0  0  0  0  0  0  0  0  0
  -12.3892   15.9187  -39.7878 N   0  0  0  0  0  0  0  0  0  0  0  0
   -7.7292   14.7695  -36.5300 H   0  0  0  0  0  0  0  0  0  0  0  0
   -9.1093   13.1145  -35.3023 H   0  0  0  0  0  0  0  0  0  0  0  0
   -8.7829   16.2876  -38.1552 H   0  0  0  0  0  0  0  0  0  0  0  0
  -11.5343   12.9885  -35.7011 H   0  0  0  0  0  0  0  0  0  0  0  0
  -11.9240   17.2465  -38.2921 H   0  0  0  0  0  0  0  0  0  0  0  0
  -10.6049   17.0130  -39.3956 H   0  0  0  0  0  0  0  0  0  0  0  0
  -12.9139   13.3627  -39.4145 H   0  0  0  0  0  0  0  0  0  0  0  0
  -14.5674   13.5124  -38.8551 H   0  0  0  0  0  0  0  0  0  0  0  0
  -14.9727   15.7512  -37.4333 H   0  0  0  0  0  0  0  0  0  0  0  0
  -13.4890   16.7072  -37.3085 H   0  0  0  0  0  0  0  0  0  0  0  0
  -13.6430   13.8631  -36.6499 H   0  0  0  0  0  0  0  0  0  0  0  0
  -14.5267   15.7240  -39.9059 H   0  0  0  0  0  0  0  0  0  0  0  0
  -12.4385   16.4794  -40.6373 H   0  0  0  0  0  0  0  0  0  0  0  0
  1  2  2  0  0  0  0
  1  3  1  0  0  0  0
  2  4  1  0  0  0  0
  3  5  2  0  0  0  0
  4  6  2  0  0  0  0
  5  6  1  0  0  0  0
  5  7  1  0  0  0  0
  6 10  1  0  0  0  0
  7 12  1  0  0  0  0
  8 10  1  0  0  0  0
  8 11  1  6  0  0  0
  9 10  1  1  0  0  0
  9 11  1  0  0  0  0
 11 12  1  0  0  0  0
  1 13  1  0  0  0  0
  2 14  1  0  0  0  0
  3 15  1  0  0  0  0
  4 16  1  0  0  0  0
  7 17  1  0  0  0  0
  7 18  1  0  0  0  0
  8 19  1  0  0  0  0
  8 20  1  0  0  0  0
  9 21  1  0  0  0  0
  9 22  1  0  0  0  0
 10 23  1  0  0  0  0
 11 24  1  0  0  0  0
 12 25  1  0  0  0  0
M  END
> <id>
EN300-37468183

> <smiles>
Cl.C1[C@H]2C[C@@H]1C=3C=CC=CC3CN2

> <IUPAC Name>
(1s,10s)-9-azatricyclo[8.1.1.0,2,7]dodeca-2,4,6-triene hydrochloride

> <URL>
https://www.enaminestore.com/catalog/EN300-37468183

> <ROCS_ShapeQuery>
_x1247relevant_x1083L0AP1_x1305L0BP1_

> <ROCS_TanimotoCombo>
1.037 

> <ROCS_ShapeTanimoto>
0.504 

> <ROCS_ColorTanimoto>
0.533 

> <ROCS_RefTversky>
0.422 

> <ROCS_RefColorTversky>
0.662 

> <ROCS_RefTverskyCombo>
1.084 

> <ROCS_FitTversky>
1.624 

> <ROCS_FitColorTversky>
0.733 

> <ROCS_FitTverskyCombo>
2.357 

> <ROCS_ColorScore>
-6.363

> <ROCS_Overlap>
1038.076

> <ROCS_Rank>
233                 

$$$$
untitled-dbase-32001_1
  -OEChem-06232314403D

 36 39  0     0  0  0  0  0  0999 V2000
  -14.2671   15.3547  -39.3379 C   0  0  0  0  0  0  0  0  0  0  0  0
  -12.0600   14.2282  -39.6785 C   0  0  0  0  0  0  0  0  0  0  0  0
  -12.1604   16.7060  -39.2577 C   0  0  0  0  0  0  0  0  0  0  0  0
  -13.3495   13.8191  -37.5835 C   0  0  0  0  0  0  0  0  0  0  0  0
  -13.4567   16.2986  -37.1665 C   0  0  0  0  0  0  0  0  0  0  0  0
  -10.2178   13.8733  -35.6007 C   0  0  0  0  0  0  0  0  0  0  0  0
   -8.8321   14.0594  -36.1967 C   0  0  0  0  0  0  0  0  0  0  0  0
   -9.7224   15.3411  -37.9527 C   0  0  0  0  0  0  0  0  0  0  0  0
  -12.8593   15.5158  -39.9351 C   0  0  0  0  0  0  0  0  0  0  0  0
  -14.1645   15.1021  -37.8247 C   0  0  0  0  0  0  0  0  0  0  0  0
  -11.9212   13.9739  -38.1598 C   0  0  0  0  0  0  0  0  0  0  0  0
  -12.0266   16.4549  -37.7391 C   0  0  0  0  0  0  0  0  0  0  0  0
  -11.1807   15.1660  -37.4588 C   0  0  0  0  0  0  0  0  0  0  0  0
  -11.1077   14.9692  -35.9874 N   0  0  0  0  0  0  0  0  0  0  0  0
   -8.9227   14.2051  -37.6122 O   0  0  0  0  0  0  0  0  0  0  0  0
  -14.8621   16.2563  -39.5289 H   0  0  0  0  0  0  0  0  0  0  0  0
  -14.7888   14.5213  -39.8241 H   0  0  0  0  0  0  0  0  0  0  0  0
  -12.5703   13.3771  -40.1485 H   0  0  0  0  0  0  0  0  0  0  0  0
  -11.0765   14.2898  -40.1568 H   0  0  0  0  0  0  0  0  0  0  0  0
  -11.1823   16.8830  -39.7154 H   0  0  0  0  0  0  0  0  0  0  0  0
  -12.7429   17.6202  -39.4290 H   0  0  0  0  0  0  0  0  0  0  0  0
  -13.3168   13.5911  -36.5114 H   0  0  0  0  0  0  0  0  0  0  0  0
  -13.8504   12.9665  -38.0608 H   0  0  0  0  0  0  0  0  0  0  0  0
  -14.0300   17.2156  -37.3514 H   0  0  0  0  0  0  0  0  0  0  0  0
  -13.4285   16.1684  -36.0789 H   0  0  0  0  0  0  0  0  0  0  0  0
  -10.6450   12.9250  -35.9440 H   0  0  0  0  0  0  0  0  0  0  0  0
  -10.1585   13.8104  -34.5093 H   0  0  0  0  0  0  0  0  0  0  0  0
   -8.3694   14.9661  -35.7947 H   0  0  0  0  0  0  0  0  0  0  0  0
   -8.1723   13.2169  -35.9570 H   0  0  0  0  0  0  0  0  0  0  0  0
   -9.6854   15.4913  -39.0402 H   0  0  0  0  0  0  0  0  0  0  0  0
   -9.2301   16.2091  -37.5093 H   0  0  0  0  0  0  0  0  0  0  0  0
  -12.9364   15.6951  -41.0133 H   0  0  0  0  0  0  0  0  0  0  0  0
  -15.1690   14.9882  -37.4022 H   0  0  0  0  0  0  0  0  0  0  0  0
  -11.3692   13.0407  -38.0032 H   0  0  0  0  0  0  0  0  0  0  0  0
  -11.5575   17.3396  -37.2895 H   0  0  0  0  0  0  0  0  0  0  0  0
  -12.0451   14.7660  -35.6379 H   0  0  0  0  0  0  0  0  0  0  0  0
  1  9  1  0  0  0  0
  1 10  1  0  0  0  0
  2  9  1  0  0  0  0
  2 11  1  0  0  0  0
  3  9  1  0  0  0  0
  3 12  1  0  0  0  0
  4 10  1  0  0  0  0
  4 11  1  0  0  0  0
  5 10  1  0  0  0  0
  5 12  1  0  0  0  0
  6  7  1  0  0  0  0
  6 14  1  0  0  0  0
  7 15  1  0  0  0  0
  8 13  1  0  0  0  0
  8 15  1  0  0  0  0
 11 13  1  0  0  0  0
 12 13  1  0  0  0  0
 13 14  1  0  0  0  0
  1 16  1  0  0  0  0
  1 17  1  0  0  0  0
  2 18  1  0  0  0  0
  2 19  1  0  0  0  0
  3 20  1  0  0  0  0
  3 21  1  0  0  0  0
  4 22  1  0  0  0  0
  4 23  1  0  0  0  0
  5 24  1  0  0  0  0
  5 25  1  0  0  0  0
  6 26  1  0  0  0  0
  6 27  1  0  0  0  0
  7 28  1  0  0  0  0
  7 29  1  0  0  0  0
  8 30  1  0  0  0  0
  8 31  1  0  0  0  0
  9 32  1  0  0  0  0
 10 33  1  0  0  0  0
 11 34  1  0  0  0  0
 12 35  1  0  0  0  0
 14 36  1  0  0  0  0
M  END
> <id>
EN300-26871880

> <smiles>
Cl.C1COCC2(N1)C3CC4CC(C3)CC2C4

> <MDLNUMBER>
MFCD32692049

> <IUPAC Name>
spiro[adamantane-2,3'-morpholine] hydrochloride

> <CAS>
2445793-36-0

> <Purity>
95

> <URL>
https://www.enaminestore.com/catalog/EN300-26871880

> <Saltdate>
Cl

> <ROCS_ShapeQuery>
_x1247relevant_x1083L0AP1_x1305L0BP1_

> <ROCS_TanimotoCombo>
1.037 

> <ROCS_ShapeTanimoto>
0.554 

> <ROCS_ColorTanimoto>
0.483 

> <ROCS_RefTversky>
0.469 

> <ROCS_RefColorTversky>
0.675 

> <ROCS_RefTverskyCombo>
1.143 

> <ROCS_FitTversky>
1.489 

> <ROCS_FitColorTversky>
0.630 

> <ROCS_FitTverskyCombo>
2.118 

> <ROCS_ColorScore>
-6.549

> <ROCS_Overlap>
1156.284

> <ROCS_Rank>
234                 

$$$$
untitled-dbase-32054_1
  -OEChem-06232314403D

 36 39  0     0  0  0  0  0  0999 V2000
  -14.2671   15.3547  -39.3379 C   0  0  0  0  0  0  0  0  0  0  0  0
  -12.0600   14.2282  -39.6785 C   0  0  0  0  0  0  0  0  0  0  0  0
  -12.1604   16.7060  -39.2577 C   0  0  0  0  0  0  0  0  0  0  0  0
  -13.3495   13.8191  -37.5835 C   0  0  0  0  0  0  0  0  0  0  0  0
  -13.4567   16.2986  -37.1665 C   0  0  0  0  0  0  0  0  0  0  0  0
  -10.2178   13.8733  -35.6007 C   0  0  0  0  0  0  0  0  0  0  0  0
   -8.8321   14.0594  -36.1967 C   0  0  0  0  0  0  0  0  0  0  0  0
   -9.7224   15.3411  -37.9527 C   0  0  0  0  0  0  0  0  0  0  0  0
  -12.8593   15.5158  -39.9351 C   0  0  0  0  0  0  0  0  0  0  0  0
  -14.1645   15.1021  -37.8247 C   0  0  0  0  0  0  0  0  0  0  0  0
  -11.9212   13.9739  -38.1598 C   0  0  0  0  0  0  0  0  0  0  0  0
  -12.0266   16.4549  -37.7391 C   0  0  0  0  0  0  0  0  0  0  0  0
  -11.1807   15.1660  -37.4588 C   0  0  0  0  0  0  0  0  0  0  0  0
  -11.1077   14.9692  -35.9874 N   0  0  0  0  0  0  0  0  0  0  0  0
   -8.9227   14.2051  -37.6122 O   0  0  0  0  0  0  0  0  0  0  0  0
  -14.8621   16.2563  -39.5289 H   0  0  0  0  0  0  0  0  0  0  0  0
  -14.7888   14.5213  -39.8241 H   0  0  0  0  0  0  0  0  0  0  0  0
  -12.5703   13.3771  -40.1485 H   0  0  0  0  0  0  0  0  0  0  0  0
  -11.0765   14.2898  -40.1568 H   0  0  0  0  0  0  0  0  0  0  0  0
  -11.1823   16.8830  -39.7154 H   0  0  0  0  0  0  0  0  0  0  0  0
  -12.7429   17.6202  -39.4290 H   0  0  0  0  0  0  0  0  0  0  0  0
  -13.3168   13.5911  -36.5114 H   0  0  0  0  0  0  0  0  0  0  0  0
  -13.8504   12.9665  -38.0608 H   0  0  0  0  0  0  0  0  0  0  0  0
  -14.0300   17.2156  -37.3514 H   0  0  0  0  0  0  0  0  0  0  0  0
  -13.4285   16.1684  -36.0789 H   0  0  0  0  0  0  0  0  0  0  0  0
  -10.6450   12.9250  -35.9440 H   0  0  0  0  0  0  0  0  0  0  0  0
  -10.1585   13.8104  -34.5093 H   0  0  0  0  0  0  0  0  0  0  0  0
   -8.3694   14.9661  -35.7947 H   0  0  0  0  0  0  0  0  0  0  0  0
   -8.1723   13.2169  -35.9570 H   0  0  0  0  0  0  0  0  0  0  0  0
   -9.6854   15.4913  -39.0402 H   0  0  0  0  0  0  0  0  0  0  0  0
   -9.2301   16.2091  -37.5093 H   0  0  0  0  0  0  0  0  0  0  0  0
  -12.9364   15.6951  -41.0133 H   0  0  0  0  0  0  0  0  0  0  0  0
  -15.1690   14.9882  -37.4022 H   0  0  0  0  0  0  0  0  0  0  0  0
  -11.3692   13.0407  -38.0032 H   0  0  0  0  0  0  0  0  0  0  0  0
  -11.5575   17.3396  -37.2895 H   0  0  0  0  0  0  0  0  0  0  0  0
  -12.0451   14.7660  -35.6379 H   0  0  0  0  0  0  0  0  0  0  0  0
  1  9  1  0  0  0  0
  1 10  1  0  0  0  0
  2  9  1  0  0  0  0
  2 11  1  0  0  0  0
  3  9  1  0  0  0  0
  3 12  1  0  0  0  0
  4 10  1  0  0  0  0
  4 11  1  0  0  0  0
  5 10  1  0  0  0  0
  5 12  1  0  0  0  0
  6  7  1  0  0  0  0
  6 14  1  0  0  0  0
  7 15  1  0  0  0  0
  8 13  1  0  0  0  0
  8 15  1  0  0  0  0
 11 13  1  0  0  0  0
 12 13  1  0  0  0  0
 13 14  1  0  0  0  0
  1 16  1  0  0  0  0
  1 17  1  0  0  0  0
  2 18  1  0  0  0  0
  2 19  1  0  0  0  0
  3 20  1  0  0  0  0
  3 21  1  0  0  0  0
  4 22  1  0  0  0  0
  4 23  1  0  0  0  0
  5 24  1  0  0  0  0
  5 25  1  0  0  0  0
  6 26  1  0  0  0  0
  6 27  1  0  0  0  0
  7 28  1  0  0  0  0
  7 29  1  0  0  0  0
  8 30  1  0  0  0  0
  8 31  1  0  0  0  0
  9 32  1  0  0  0  0
 10 33  1  0  0  0  0
 11 34  1  0  0  0  0
 12 35  1  0  0  0  0
 14 36  1  0  0  0  0
M  END
> <id>
EN300-9509223

> <smiles>
C1COCC2(N1)C3CC4CC(C3)CC2C4

> <IUPAC Name>
spiro[adamantane-2,3'-morpholine]

> <CAS>
180258-93-9

> <URL>
https://www.enaminestore.com/catalog/EN300-9509223

> <ROCS_ShapeQuery>
_x1247relevant_x1083L0AP1_x1305L0BP1_

> <ROCS_TanimotoCombo>
1.037 

> <ROCS_ShapeTanimoto>
0.554 

> <ROCS_ColorTanimoto>
0.483 

> <ROCS_RefTversky>
0.469 

> <ROCS_RefColorTversky>
0.675 

> <ROCS_RefTverskyCombo>
1.143 

> <ROCS_FitTversky>
1.489 

> <ROCS_FitColorTversky>
0.630 

> <ROCS_FitTverskyCombo>
2.118 

> <ROCS_ColorScore>
-6.549

> <ROCS_Overlap>
1156.284

> <ROCS_Rank>
235                 

$$$$
untitled-dbase-25297_3
  -OEChem-06232314403D

 27 29  0     1  0  0  0  0  0999 V2000
  -13.0949   16.0160  -39.5954 C   0  0  0  0  0  0  0  0  0  0  0  0
  -12.2709   14.7309  -39.7672 C   0  0  0  0  0  0  0  0  0  0  0  0
  -13.6115   14.5247  -37.8135 C   0  0  0  0  0  0  0  0  0  0  0  0
  -12.1500   16.3457  -37.2935 C   0  0  0  0  0  0  0  0  0  0  0  0
   -9.8068   15.2127  -37.8161 C   0  0  0  0  0  0  0  0  0  0  0  0
  -10.8518   14.4019  -36.1318 C   0  0  0  0  0  0  0  0  0  0  0  0
  -13.4289   16.0161  -38.0950 C   0  0  1  0  0  0  0  0  0  0  0  0
  -12.2195   14.1555  -38.3411 C   0  0  2  0  0  0  0  0  0  0  0  0
   -9.4950   14.0991  -36.7974 C   0  0  0  0  0  0  0  0  0  0  0  0
  -11.3179   15.0592  -37.4683 C   0  0  0  0  0  0  0  0  0  0  0  0
   -9.3380   12.7759  -37.3449 O   0  0  0  0  0  0  0  0  0  0  0  0
  -12.5364   16.9057  -39.9027 H   0  0  0  0  0  0  0  0  0  0  0  0
  -14.0080   15.9596  -40.1984 H   0  0  0  0  0  0  0  0  0  0  0  0
  -12.7896   14.0419  -40.4441 H   0  0  0  0  0  0  0  0  0  0  0  0
  -11.2808   14.9362  -40.1857 H   0  0  0  0  0  0  0  0  0  0  0  0
  -13.7439   14.3050  -36.7494 H   0  0  0  0  0  0  0  0  0  0  0  0
  -14.4242   14.0713  -38.3900 H   0  0  0  0  0  0  0  0  0  0  0  0
  -11.6433   17.2358  -37.6846 H   0  0  0  0  0  0  0  0  0  0  0  0
  -12.4012   16.5241  -36.2404 H   0  0  0  0  0  0  0  0  0  0  0  0
   -9.3631   16.1902  -37.5954 H   0  0  0  0  0  0  0  0  0  0  0  0
   -9.5540   14.9474  -38.8521 H   0  0  0  0  0  0  0  0  0  0  0  0
  -11.4136   13.4999  -35.8494 H   0  0  0  0  0  0  0  0  0  0  0  0
  -10.8088   15.0591  -35.2554 H   0  0  0  0  0  0  0  0  0  0  0  0
  -14.2773   16.6544  -37.8390 H   0  0  0  0  0  0  0  0  0  0  0  0
  -11.9689   13.0941  -38.3012 H   0  0  0  0  0  0  0  0  0  0  0  0
   -8.6376   14.3442  -36.1525 H   0  0  0  0  0  0  0  0  0  0  0  0
   -9.1493   12.1995  -36.5925 H   0  0  0  0  0  0  0  0  0  0  0  0
  1  2  1  0  0  0  0
  1  7  1  0  0  0  0
  2  8  1  0  0  0  0
  3  7  1  0  0  0  0
  3  8  1  0  0  0  0
  4  7  1  0  0  0  0
  4 10  1  0  0  0  0
  5  9  1  0  0  0  0
  5 10  1  0  0  0  0
  6  9  1  0  0  0  0
  6 10  1  0  0  0  0
  8 10  1  0  0  0  0
  9 11  1  0  0  0  0
  1 12  1  0  0  0  0
  1 13  1  0  0  0  0
  2 14  1  0  0  0  0
  2 15  1  0  0  0  0
  3 16  1  0  0  0  0
  3 17  1  0  0  0  0
  4 18  1  0  0  0  0
  4 19  1  0  0  0  0
  5 20  1  0  0  0  0
  5 21  1  0  0  0  0
  6 22  1  0  0  0  0
  6 23  1  0  0  0  0
  7 24  1  0  0  0  0
  8 25  1  0  0  0  0
  9 26  1  0  0  0  0
 11 27  1  0  0  0  0
M  END
> <id>
EN300-6497649

> <smiles>
OC1CC2(C1)CC3CCC2C3

> <MDLNUMBER>
MFCD31719068

> <IUPAC Name>
spiro[bicyclo[2.2.1]heptane-2,1'-cyclobutane]-3'-ol

> <CAS>
2248403-10-1

> <Purity>
95

> <URL>
https://www.enaminestore.com/catalog/EN300-6497649

> <ROCS_ShapeQuery>
_x1247relevant_x1083L0AP1_x1305L0BP1_

> <ROCS_TanimotoCombo>
1.037 

> <ROCS_ShapeTanimoto>
0.474 

> <ROCS_ColorTanimoto>
0.562 

> <ROCS_RefTversky>
0.399 

> <ROCS_RefColorTversky>
0.709 

> <ROCS_RefTverskyCombo>
1.108 

> <ROCS_FitTversky>
1.658 

> <ROCS_FitColorTversky>
0.732 

> <ROCS_FitTverskyCombo>
2.390 

> <ROCS_ColorScore>
-6.838

> <ROCS_Overlap>
980.670

> <ROCS_Rank>
236                 

$$$$
untitled-dbase-39861_0
  -OEChem-06232314403D

 25 27  0     0  0  0  0  0  0999 V2000
   -8.8024   14.7084  -36.6982 C   0  0  0  0  0  0  0  0  0  0  0  0
   -9.5768   13.7794  -36.0167 C   0  0  0  0  0  0  0  0  0  0  0  0
   -9.4017   15.5641  -37.6183 C   0  0  0  0  0  0  0  0  0  0  0  0
  -10.9504   13.7121  -36.2543 C   0  0  0  0  0  0  0  0  0  0  0  0
  -10.7829   15.4930  -37.8736 C   0  0  0  0  0  0  0  0  0  0  0  0
  -11.5936   14.5640  -37.1760 C   0  0  0  0  0  0  0  0  0  0  0  0
  -11.3971   16.4792  -38.8465 C   0  0  0  0  0  0  0  0  0  0  0  0
  -13.9261   15.7787  -37.7433 C   0  0  0  0  0  0  0  0  0  0  0  0
  -13.5842   13.9997  -38.8617 C   0  0  0  0  0  0  0  0  0  0  0  0
  -13.1585   14.4590  -37.4338 C   0  0  0  0  0  0  0  0  0  0  0  0
  -13.6849   15.4993  -39.2424 C   0  0  0  0  0  0  0  0  0  0  0  0
  -12.3840   15.9326  -39.7758 N   0  0  0  0  0  0  0  0  0  0  0  0
   -7.7345   14.7704  -36.5117 H   0  0  0  0  0  0  0  0  0  0  0  0
   -9.1168   13.1087  -35.2973 H   0  0  0  0  0  0  0  0  0  0  0  0
   -8.7835   16.2934  -38.1363 H   0  0  0  0  0  0  0  0  0  0  0  0
  -11.5397   12.9783  -35.7079 H   0  0  0  0  0  0  0  0  0  0  0  0
  -11.7810   17.3525  -38.3075 H   0  0  0  0  0  0  0  0  0  0  0  0
  -10.5861   16.8687  -39.4760 H   0  0  0  0  0  0  0  0  0  0  0  0
  -14.9892   15.7188  -37.4693 H   0  0  0  0  0  0  0  0  0  0  0  0
  -13.5493   16.7043  -37.3030 H   0  0  0  0  0  0  0  0  0  0  0  0
  -12.8669   13.3863  -39.4165 H   0  0  0  0  0  0  0  0  0  0  0  0
  -14.5513   13.4807  -38.8760 H   0  0  0  0  0  0  0  0  0  0  0  0
  -13.6510   13.8768  -36.6433 H   0  0  0  0  0  0  0  0  0  0  0  0
  -14.5231   15.7397  -39.9033 H   0  0  0  0  0  0  0  0  0  0  0  0
  -12.4915   16.5929  -40.5466 H   0  0  0  0  0  0  0  0  0  0  0  0
  1  2  2  0  0  0  0
  1  3  1  0  0  0  0
  2  4  1  0  0  0  0
  3  5  2  0  0  0  0
  4  6  2  0  0  0  0
  5  6  1  0  0  0  0
  5  7  1  0  0  0  0
  6 10  1  0  0  0  0
  7 12  1  0  0  0  0
  8 10  1  0  0  0  0
  8 11  1  0  0  0  0
  9 10  1  0  0  0  0
  9 11  1  0  0  0  0
 11 12  1  0  0  0  0
  1 13  1  0  0  0  0
  2 14  1  0  0  0  0
  3 15  1  0  0  0  0
  4 16  1  0  0  0  0
  7 17  1  0  0  0  0
  7 18  1  0  0  0  0
  8 19  1  0  0  0  0
  8 20  1  0  0  0  0
  9 21  1  0  0  0  0
  9 22  1  0  0  0  0
 10 23  1  0  0  0  0
 11 24  1  0  0  0  0
 12 25  1  0  0  0  0
M  END
> <id>
EN300-6745485

> <smiles>
Cl.C1C2CC1C=3C=CC=CC3CN2

> <MDLNUMBER>
MFCD31794619

> <IUPAC Name>
9-azatricyclo[8.1.1.0,2,7]dodeca-2,4,6-triene hydrochloride

> <CAS>
104127-09-5

> <Purity>
95

> <URL>
https://www.enaminestore.com/catalog/EN300-6745485

> <Saltdate>
Cl

> <MP>
216-217

> <ROCS_ShapeQuery>
_x1247relevant_x1083L0AP1_x1305L0BP1_

> <ROCS_TanimotoCombo>
1.036 

> <ROCS_ShapeTanimoto>
0.503 

> <ROCS_ColorTanimoto>
0.533 

> <ROCS_RefTversky>
0.422 

> <ROCS_RefColorTversky>
0.661 

> <ROCS_RefTverskyCombo>
1.083 

> <ROCS_FitTversky>
1.623 

> <ROCS_FitColorTversky>
0.733 

> <ROCS_FitTverskyCombo>
2.356 

> <ROCS_ColorScore>
-6.358

> <ROCS_Overlap>
1037.574

> <ROCS_Rank>
237                 

$$$$
untitled-dbase-39829_0
  -OEChem-06232314403D

 25 27  0     0  0  0  0  0  0999 V2000
   -8.8024   14.7084  -36.6982 C   0  0  0  0  0  0  0  0  0  0  0  0
   -9.5768   13.7794  -36.0167 C   0  0  0  0  0  0  0  0  0  0  0  0
   -9.4017   15.5641  -37.6183 C   0  0  0  0  0  0  0  0  0  0  0  0
  -10.9504   13.7121  -36.2543 C   0  0  0  0  0  0  0  0  0  0  0  0
  -10.7829   15.4930  -37.8736 C   0  0  0  0  0  0  0  0  0  0  0  0
  -11.5936   14.5640  -37.1760 C   0  0  0  0  0  0  0  0  0  0  0  0
  -11.3971   16.4792  -38.8465 C   0  0  0  0  0  0  0  0  0  0  0  0
  -13.9261   15.7787  -37.7433 C   0  0  0  0  0  0  0  0  0  0  0  0
  -13.5842   13.9997  -38.8617 C   0  0  0  0  0  0  0  0  0  0  0  0
  -13.1585   14.4590  -37.4338 C   0  0  0  0  0  0  0  0  0  0  0  0
  -13.6849   15.4993  -39.2424 C   0  0  0  0  0  0  0  0  0  0  0  0
  -12.3840   15.9326  -39.7758 N   0  0  0  0  0  0  0  0  0  0  0  0
   -7.7345   14.7704  -36.5117 H   0  0  0  0  0  0  0  0  0  0  0  0
   -9.1168   13.1087  -35.2973 H   0  0  0  0  0  0  0  0  0  0  0  0
   -8.7835   16.2934  -38.1363 H   0  0  0  0  0  0  0  0  0  0  0  0
  -11.5397   12.9783  -35.7079 H   0  0  0  0  0  0  0  0  0  0  0  0
  -11.7810   17.3525  -38.3075 H   0  0  0  0  0  0  0  0  0  0  0  0
  -10.5861   16.8687  -39.4760 H   0  0  0  0  0  0  0  0  0  0  0  0
  -14.9892   15.7188  -37.4693 H   0  0  0  0  0  0  0  0  0  0  0  0
  -13.5493   16.7043  -37.3030 H   0  0  0  0  0  0  0  0  0  0  0  0
  -12.8669   13.3863  -39.4165 H   0  0  0  0  0  0  0  0  0  0  0  0
  -14.5513   13.4807  -38.8760 H   0  0  0  0  0  0  0  0  0  0  0  0
  -13.6510   13.8768  -36.6433 H   0  0  0  0  0  0  0  0  0  0  0  0
  -14.5231   15.7397  -39.9033 H   0  0  0  0  0  0  0  0  0  0  0  0
  -12.4915   16.5929  -40.5466 H   0  0  0  0  0  0  0  0  0  0  0  0
  1  2  2  0  0  0  0
  1  3  1  0  0  0  0
  2  4  1  0  0  0  0
  3  5  2  0  0  0  0
  4  6  2  0  0  0  0
  5  6  1  0  0  0  0
  5  7  1  0  0  0  0
  6 10  1  0  0  0  0
  7 12  1  0  0  0  0
  8 10  1  0  0  0  0
  8 11  1  0  0  0  0
  9 10  1  0  0  0  0
  9 11  1  0  0  0  0
 11 12  1  0  0  0  0
  1 13  1  0  0  0  0
  2 14  1  0  0  0  0
  3 15  1  0  0  0  0
  4 16  1  0  0  0  0
  7 17  1  0  0  0  0
  7 18  1  0  0  0  0
  8 19  1  0  0  0  0
  8 20  1  0  0  0  0
  9 21  1  0  0  0  0
  9 22  1  0  0  0  0
 10 23  1  0  0  0  0
 11 24  1  0  0  0  0
 12 25  1  0  0  0  0
M  END
> <id>
EN300-6745486

> <smiles>
C1C2CC1C=3C=CC=CC3CN2

> <MDLNUMBER>
MFCD20663826

> <IUPAC Name>
9-azatricyclo[8.1.1.0,2,7]dodeca-2,4,6-triene

> <CAS>
94641-45-9

> <URL>
https://www.enaminestore.com/catalog/EN300-6745486

> <ROCS_ShapeQuery>
_x1247relevant_x1083L0AP1_x1305L0BP1_

> <ROCS_TanimotoCombo>
1.036 

> <ROCS_ShapeTanimoto>
0.503 

> <ROCS_ColorTanimoto>
0.533 

> <ROCS_RefTversky>
0.422 

> <ROCS_RefColorTversky>
0.661 

> <ROCS_RefTverskyCombo>
1.083 

> <ROCS_FitTversky>
1.623 

> <ROCS_FitColorTversky>
0.733 

> <ROCS_FitTverskyCombo>
2.356 

> <ROCS_ColorScore>
-6.358

> <ROCS_Overlap>
1037.574

> <ROCS_Rank>
238                 

$$$$
untitled-dbase-29066_0
  -OEChem-06232314403D

 27 29  0     1  0  0  0  0  0999 V2000
  -12.3166   16.2725  -39.4663 C   0  0  0  0  0  0  0  0  0  0  0  0
  -13.0498   14.0459  -37.4493 C   0  0  0  0  0  0  0  0  0  0  0  0
  -13.7394   15.9441  -39.1379 C   0  0  2  0  0  0  0  0  0  0  0  0
  -14.0968   14.8571  -38.1499 C   0  0  1  0  0  0  0  0  0  0  0  0
  -11.2944   15.6205  -38.5986 C   0  0  2  0  0  0  0  0  0  0  0  0
  -14.4160   14.6708  -39.6270 C   0  0  0  0  0  0  0  0  0  0  0  0
  -11.6375   14.5286  -37.6124 C   0  0  2  0  0  0  0  0  0  0  0  0
  -15.8662   14.7790  -40.0327 C   0  0  0  0  0  0  0  0  0  0  0  0
  -13.6469   13.6689  -40.4519 C   0  0  0  0  0  0  0  0  0  0  0  0
  -10.5565   13.6104  -37.1354 C   0  0  0  0  0  0  0  0  0  0  0  0
  -11.4455   15.8924  -37.1973 O   0  0  0  0  0  0  0  0  0  0  0  0
  -12.1156   16.0228  -40.5145 H   0  0  0  0  0  0  0  0  0  0  0  0
  -12.1808   17.3585  -39.3892 H   0  0  0  0  0  0  0  0  0  0  0  0
  -13.2817   14.0372  -36.3765 H   0  0  0  0  0  0  0  0  0  0  0  0
  -13.1242   13.0022  -37.7774 H   0  0  0  0  0  0  0  0  0  0  0  0
  -14.3449   16.8454  -39.1186 H   0  0  0  0  0  0  0  0  0  0  0  0
  -14.9351   15.0516  -37.4873 H   0  0  0  0  0  0  0  0  0  0  0  0
  -10.2953   15.6795  -39.0091 H   0  0  0  0  0  0  0  0  0  0  0  0
  -16.2479   13.8084  -40.3658 H   0  0  0  0  0  0  0  0  0  0  0  0
  -15.9858   15.4939  -40.8531 H   0  0  0  0  0  0  0  0  0  0  0  0
  -16.4789   15.1176  -39.1909 H   0  0  0  0  0  0  0  0  0  0  0  0
  -14.2815   12.8167  -40.7178 H   0  0  0  0  0  0  0  0  0  0  0  0
  -12.7825   13.2906  -39.8958 H   0  0  0  0  0  0  0  0  0  0  0  0
  -13.2837   14.1265  -41.3783 H   0  0  0  0  0  0  0  0  0  0  0  0
   -9.5605   14.0479  -37.2958 H   0  0  0  0  0  0  0  0  0  0  0  0
  -10.5855   12.6483  -37.6671 H   0  0  0  0  0  0  0  0  0  0  0  0
  -10.6567   13.3989  -36.0610 H   0  0  0  0  0  0  0  0  0  0  0  0
  1  3  1  0  0  0  0
  1  5  1  0  0  0  0
  2  4  1  0  0  0  0
  2  7  1  0  0  0  0
  3  4  1  0  0  0  0
  3  6  1  0  0  0  0
  4  6  1  0  0  0  0
  5  7  1  0  0  0  0
  5 11  1  0  0  0  0
  6  8  1  0  0  0  0
  6  9  1  0  0  0  0
  7 10  1  0  0  0  0
  7 11  1  0  0  0  0
  1 12  1  0  0  0  0
  1 13  1  0  0  0  0
  2 14  1  0  0  0  0
  2 15  1  0  0  0  0
  3 16  1  0  0  0  0
  4 17  1  0  0  0  0
  5 18  1  0  0  0  0
  8 19  1  0  0  0  0
  8 20  1  0  0  0  0
  8 21  1  0  0  0  0
  9 22  1  0  0  0  0
  9 23  1  0  0  0  0
  9 24  1  0  0  0  0
 10 25  1  0  0  0  0
 10 26  1  0  0  0  0
 10 27  1  0  0  0  0
M  END
> <id>
EN300-248203

> <smiles>
CC1(C)C2CC3OC3(C)CC21

> <MDLNUMBER>
MFCD04037813

> <IUPAC Name>
3,8,8-trimethyl-4-oxatricyclo[5.1.0.0,3,5]octane

> <CAS>
2225-98-1

> <Purity>
95

> <URL>
https://www.enaminestore.com/catalog/EN300-248203

> <ROCS_ShapeQuery>
_x1247relevant_x1083L0AP1_x1305L0BP1_

> <ROCS_TanimotoCombo>
1.036 

> <ROCS_ShapeTanimoto>
0.474 

> <ROCS_ColorTanimoto>
0.561 

> <ROCS_RefTversky>
0.398 

> <ROCS_RefColorTversky>
0.734 

> <ROCS_RefTverskyCombo>
1.132 

> <ROCS_FitTversky>
1.677 

> <ROCS_FitColorTversky>
0.705 

> <ROCS_FitTverskyCombo>
2.382 

> <ROCS_ColorScore>
-7.111

> <ROCS_Overlap>
978.243

> <ROCS_Rank>
239                 

$$$$
untitled-dbase-30526_13
  -OEChem-06232314403D

 40 41  0     1  0  0  0  0  0999 V2000
  -10.2217   14.6286  -37.4610 C   0  0  0  0  0  0  0  0  0  0  0  0
  -13.6511   15.6705  -37.0315 C   0  0  0  0  0  0  0  0  0  0  0  0
  -13.7893   14.2368  -37.5824 C   0  0  0  0  0  0  0  0  0  0  0  0
  -12.3078   16.8216  -38.8815 C   0  0  0  0  0  0  0  0  0  0  0  0
  -12.5466   14.4144  -39.8137 C   0  0  0  0  0  0  0  0  0  0  0  0
  -12.2683   16.1407  -37.4967 C   0  0  2  0  0  0  0  0  0  0  0  0
  -12.4805   13.9761  -38.3346 C   0  0  1  0  0  0  0  0  0  0  0  0
  -12.9033   15.9157  -39.9960 C   0  0  0  0  0  0  0  0  0  0  0  0
   -9.1848   12.8481  -35.4802 C   0  0  0  0  0  0  0  0  0  0  0  0
   -8.6270   11.3303  -37.4022 C   0  0  0  0  0  0  0  0  0  0  0  0
   -7.5579   13.5977  -37.2481 C   0  0  0  0  0  0  0  0  0  0  0  0
  -12.4605   16.4022  -41.3790 C   0  0  0  0  0  0  0  0  0  0  0  0
   -8.8165   12.7802  -36.9616 C   0  0  0  0  0  0  0  0  0  0  0  0
  -11.5625   14.8826  -37.6730 N   0  0  0  0  0  0  0  0  0  0  0  0
   -9.4116   15.4696  -37.0782 O   0  0  0  0  0  0  0  0  0  0  0  0
  -14.3323   16.0264  -39.9658 O   0  0  0  0  0  0  0  0  0  0  0  0
   -9.8980   13.3253  -37.7254 O   0  0  0  0  0  0  0  0  0  0  0  0
  -11.1236   16.3693  -41.4670 F   0  0  0  0  0  0  0  0  0  0  0  0
  -12.9814   15.6123  -42.3281 F   0  0  0  0  0  0  0  0  0  0  0  0
  -12.8813   17.6593  -41.5759 F   0  0  0  0  0  0  0  0  0  0  0  0
  -14.4632   16.3237  -37.3644 H   0  0  0  0  0  0  0  0  0  0  0  0
  -13.6873   15.6360  -35.9359 H   0  0  0  0  0  0  0  0  0  0  0  0
  -13.8859   13.5391  -36.7417 H   0  0  0  0  0  0  0  0  0  0  0  0
  -14.6773   14.1178  -38.2103 H   0  0  0  0  0  0  0  0  0  0  0  0
  -12.8864   17.7508  -38.8054 H   0  0  0  0  0  0  0  0  0  0  0  0
  -11.2797   17.1018  -39.1469 H   0  0  0  0  0  0  0  0  0  0  0  0
  -11.5660   14.2149  -40.2660 H   0  0  0  0  0  0  0  0  0  0  0  0
  -13.2762   13.7853  -40.3384 H   0  0  0  0  0  0  0  0  0  0  0  0
  -11.7823   16.7900  -36.7627 H   0  0  0  0  0  0  0  0  0  0  0  0
  -12.1506   12.9355  -38.2572 H   0  0  0  0  0  0  0  0  0  0  0  0
   -9.3217   13.8872  -35.1600 H   0  0  0  0  0  0  0  0  0  0  0  0
  -10.1052   12.2946  -35.2675 H   0  0  0  0  0  0  0  0  0  0  0  0
   -8.3818   12.4363  -34.8583 H   0  0  0  0  0  0  0  0  0  0  0  0
   -8.3627   11.2768  -38.4645 H   0  0  0  0  0  0  0  0  0  0  0  0
   -9.5573   10.7625  -37.2867 H   0  0  0  0  0  0  0  0  0  0  0  0
   -7.8424   10.8316  -36.8241 H   0  0  0  0  0  0  0  0  0  0  0  0
   -7.2935   13.5491  -38.3107 H   0  0  0  0  0  0  0  0  0  0  0  0
   -7.6884   14.6492  -36.9723 H   0  0  0  0  0  0  0  0  0  0  0  0
   -6.6992   13.1972  -36.6972 H   0  0  0  0  0  0  0  0  0  0  0  0
  -14.5321   16.9596  -40.1239 H   0  0  0  0  0  0  0  0  0  0  0  0
  1 14  1  0  0  0  0
  1 15  2  0  0  0  0
  1 17  1  0  0  0  0
  2  3  1  0  0  0  0
  2  6  1  0  0  0  0
  3  7  1  0  0  0  0
  4  6  1  0  0  0  0
  4  8  1  0  0  0  0
  5  7  1  0  0  0  0
  5  8  1  0  0  0  0
  6 14  1  0  0  0  0
  7 14  1  0  0  0  0
  8 12  1  0  0  0  0
  8 16  1  0  0  0  0
  9 13  1  0  0  0  0
 10 13  1  0  0  0  0
 11 13  1  0  0  0  0
 12 18  1  0  0  0  0
 12 19  1  0  0  0  0
 12 20  1  0  0  0  0
 13 17  1  0  0  0  0
  2 21  1  0  0  0  0
  2 22  1  0  0  0  0
  3 23  1  0  0  0  0
  3 24  1  0  0  0  0
  4 25  1  0  0  0  0
  4 26  1  0  0  0  0
  5 27  1  0  0  0  0
  5 28  1  0  0  0  0
  6 29  1  0  0  0  0
  7 30  1  0  0  0  0
  9 31  1  0  0  0  0
  9 32  1  0  0  0  0
  9 33  1  0  0  0  0
 10 34  1  0  0  0  0
 10 35  1  0  0  0  0
 10 36  1  0  0  0  0
 11 37  1  0  0  0  0
 11 38  1  0  0  0  0
 11 39  1  0  0  0  0
 16 40  1  0  0  0  0
M  END
> <id>
EN300-12464143

> <smiles>
CC(C)(C)OC(=O)N1C2CCC1CC(O)(C2)C(F)(F)F

> <MDLNUMBER>
MFCD24467654

> <IUPAC Name>
tert-butyl 3-hydroxy-3-(trifluoromethyl)-8-azabicyclo[3.2.1]octane-8-carboxylate

> <CAS>
1701433-46-6

> <URL>
https://www.enaminestore.com/catalog/EN300-12464143

> <ROCS_ShapeQuery>
_x1247relevant_x1083L0AP1_x1305L0BP1_

> <ROCS_TanimotoCombo>
1.035 

> <ROCS_ShapeTanimoto>
0.529 

> <ROCS_ColorTanimoto>
0.507 

> <ROCS_RefTversky>
0.484 

> <ROCS_RefColorTversky>
0.677 

> <ROCS_RefTverskyCombo>
1.161 

> <ROCS_FitTversky>
1.212 

> <ROCS_FitColorTversky>
0.668 

> <ROCS_FitTverskyCombo>
1.880 

> <ROCS_ColorScore>
-6.551

> <ROCS_Overlap>
1199.649

> <ROCS_Rank>
240                 

$$$$
untitled-dbase-45396_77
  -OEChem-06232314403D

 33 34  0     1  0  0  0  0  0999 V2000
   -9.7657   14.8545  -37.2347 C   0  0  0  0  0  0  0  0  0  0  0  0
  -11.6877   16.3656  -37.6209 C   0  0  0  0  0  0  0  0  0  0  0  0
  -12.0536   13.9499  -37.7502 C   0  0  0  0  0  0  0  0  0  0  0  0
  -13.0096   16.1293  -38.3081 C   0  0  2  0  0  0  0  0  0  0  0  0
  -13.3776   14.6521  -38.0665 C   0  0  1  0  0  0  0  0  0  0  0  0
  -12.9921   15.8485  -39.8356 C   0  0  0  0  0  0  0  0  0  0  0  0
  -13.8455   14.5879  -39.5528 C   0  0  0  0  0  0  0  0  0  0  0  0
   -9.5105   12.8205  -35.6031 C   0  0  0  0  0  0  0  0  0  0  0  0
   -8.9320   11.3712  -37.5713 C   0  0  0  0  0  0  0  0  0  0  0  0
   -7.2505   13.0173  -36.6932 C   0  0  0  0  0  0  0  0  0  0  0  0
   -8.7358   12.7373  -36.9175 C   0  0  0  0  0  0  0  0  0  0  0  0
  -11.1088   15.0396  -37.5422 N   0  0  0  0  0  0  0  0  0  0  0  0
   -9.1086   15.6129  -36.5249 O   0  0  0  0  0  0  0  0  0  0  0  0
   -9.2552   13.7240  -37.8157 O   0  0  0  0  0  0  0  0  0  0  0  0
  -11.7792   15.6097  -40.3861 F   0  0  0  0  0  0  0  0  0  0  0  0
  -13.5862   16.7894  -40.6033 F   0  0  0  0  0  0  0  0  0  0  0  0
  -15.1745   14.7550  -39.7539 F   0  0  0  0  0  0  0  0  0  0  0  0
  -13.4920   13.4782  -40.2392 F   0  0  0  0  0  0  0  0  0  0  0  0
  -14.6232   14.3289  -36.8288 Cl  0  0  0  0  0  0  0  0  0  0  0  0
  -11.0286   17.0524  -38.1601 H   0  0  0  0  0  0  0  0  0  0  0  0
  -11.8234   16.7302  -36.5972 H   0  0  0  0  0  0  0  0  0  0  0  0
  -12.0861   13.3403  -36.8408 H   0  0  0  0  0  0  0  0  0  0  0  0
  -11.6925   13.3232  -38.5723 H   0  0  0  0  0  0  0  0  0  0  0  0
  -13.7828   16.8595  -38.0393 H   0  0  0  0  0  0  0  0  0  0  0  0
   -9.3722   13.7996  -35.1306 H   0  0  0  0  0  0  0  0  0  0  0  0
  -10.5822   12.6561  -35.7553 H   0  0  0  0  0  0  0  0  0  0  0  0
   -9.1448   12.0768  -34.8858 H   0  0  0  0  0  0  0  0  0  0  0  0
   -8.3780   11.3070  -38.5148 H   0  0  0  0  0  0  0  0  0  0  0  0
   -9.9864   11.2057  -37.8207 H   0  0  0  0  0  0  0  0  0  0  0  0
   -8.5987   10.5588  -36.9176 H   0  0  0  0  0  0  0  0  0  0  0  0
   -6.6947   12.9577  -37.6359 H   0  0  0  0  0  0  0  0  0  0  0  0
   -7.0882   14.0089  -36.2585 H   0  0  0  0  0  0  0  0  0  0  0  0
   -6.8092   12.2681  -36.0261 H   0  0  0  0  0  0  0  0  0  0  0  0
  1 12  1  0  0  0  0
  1 13  2  0  0  0  0
  1 14  1  0  0  0  0
  2  4  1  0  0  0  0
  2 12  1  0  0  0  0
  3  5  1  0  0  0  0
  3 12  1  0  0  0  0
  4  5  1  0  0  0  0
  4  6  1  0  0  0  0
  5  7  1  0  0  0  0
  5 19  1  0  0  0  0
  6  7  1  0  0  0  0
  6 15  1  0  0  0  0
  6 16  1  0  0  0  0
  7 17  1  0  0  0  0
  7 18  1  0  0  0  0
  8 11  1  0  0  0  0
  9 11  1  0  0  0  0
 10 11  1  0  0  0  0
 11 14  1  0  0  0  0
  2 20  1  0  0  0  0
  2 21  1  0  0  0  0
  3 22  1  0  0  0  0
  3 23  1  0  0  0  0
  4 24  1  0  0  0  0
  8 25  1  0  0  0  0
  8 26  1  0  0  0  0
  8 27  1  0  0  0  0
  9 28  1  0  0  0  0
  9 29  1  0  0  0  0
  9 30  1  0  0  0  0
 10 31  1  0  0  0  0
 10 32  1  0  0  0  0
 10 33  1  0  0  0  0
M  END
> <id>
EN300-28291020

> <smiles>
CC(C)(C)OC(=O)N1CC2C(F)(F)C(F)(F)C2(Cl)C1

> <IUPAC Name>
tert-butyl 1-chloro-6,6,7,7-tetrafluoro-3-azabicyclo[3.2.0]heptane-3-carboxylate

> <CAS>
2680746-00-1

> <URL>
https://www.enaminestore.com/catalog/EN300-28291020

> <ROCS_ShapeQuery>
_x1247relevant_x1083L0AP1_x1305L0BP1_

> <ROCS_TanimotoCombo>
1.035 

> <ROCS_ShapeTanimoto>
0.588 

> <ROCS_ColorTanimoto>
0.447 

> <ROCS_RefTversky>
0.511 

> <ROCS_RefColorTversky>
0.553 

> <ROCS_RefTverskyCombo>
1.064 

> <ROCS_FitTversky>
1.344 

> <ROCS_FitColorTversky>
0.701 

> <ROCS_FitTverskyCombo>
2.044 

> <ROCS_ColorScore>
-5.279

> <ROCS_Overlap>
1265.714

> <ROCS_Rank>
241                 

$$$$
untitled-dbase-52699_0
  -OEChem-06232314403D

 23 25  0     1  0  0  0  0  0999 V2000
  -12.3691   14.6613  -39.6709 C   0  0  0  0  0  0  0  0  0  0  0  0
  -12.1488   15.9753  -39.5245 C   0  0  0  0  0  0  0  0  0  0  0  0
   -9.7032   14.6734  -37.6570 C   0  0  0  0  0  0  0  0  0  0  0  0
  -10.6593   13.5301  -37.4513 C   0  0  0  0  0  0  0  0  0  0  0  0
  -10.2463   15.9920  -37.1776 C   0  0  0  0  0  0  0  0  0  0  0  0
  -13.8562   15.4172  -38.0802 C   0  0  0  0  0  0  0  0  0  0  0  0
  -13.0161   14.1715  -38.3964 C   0  0  2  0  0  0  0  0  0  0  0  0
  -12.6486   16.3627  -38.1524 C   0  0  1  0  0  0  0  0  0  0  0  0
  -12.0006   14.2135  -37.2209 C   0  0  2  0  0  0  0  0  0  0  0  0
  -11.7436   15.7449  -37.0505 C   0  0  1  0  0  0  0  0  0  0  0  0
   -8.5687   14.5322  -38.0986 O   0  0  0  0  0  0  0  0  0  0  0  0
  -12.0878   14.0543  -40.5163 H   0  0  0  0  0  0  0  0  0  0  0  0
  -11.6567   16.6253  -40.2300 H   0  0  0  0  0  0  0  0  0  0  0  0
  -10.6598   12.8554  -38.3102 H   0  0  0  0  0  0  0  0  0  0  0  0
  -10.3466   12.9861  -36.5544 H   0  0  0  0  0  0  0  0  0  0  0  0
   -9.8071   16.2016  -36.1972 H   0  0  0  0  0  0  0  0  0  0  0  0
   -9.9983   16.7983  -37.8721 H   0  0  0  0  0  0  0  0  0  0  0  0
  -14.6255   15.6301  -38.8338 H   0  0  0  0  0  0  0  0  0  0  0  0
  -14.3272   15.3860  -37.0909 H   0  0  0  0  0  0  0  0  0  0  0  0
  -13.5852   13.2466  -38.4978 H   0  0  0  0  0  0  0  0  0  0  0  0
  -12.8852   17.4209  -38.0328 H   0  0  0  0  0  0  0  0  0  0  0  0
  -12.4805   13.8091  -36.3204 H   0  0  0  0  0  0  0  0  0  0  0  0
  -12.0994   16.0799  -36.0676 H   0  0  0  0  0  0  0  0  0  0  0  0
  1  2  2  0  0  0  0
  1  7  1  6  0  0  0
  2  8  1  6  0  0  0
  3  4  1  0  0  0  0
  3  5  1  0  0  0  0
  3 11  2  0  0  0  0
  4  9  1  6  0  0  0
  5 10  1  6  0  0  0
  6  7  1  0  0  0  0
  6  8  1  0  0  0  0
  7  9  1  0  0  0  0
  8 10  1  0  0  0  0
  9 10  1  0  0  0  0
  1 12  1  0  0  0  0
  2 13  1  0  0  0  0
  4 14  1  0  0  0  0
  4 15  1  0  0  0  0
  5 16  1  0  0  0  0
  5 17  1  0  0  0  0
  6 18  1  0  0  0  0
  6 19  1  0  0  0  0
  7 20  1  0  0  0  0
  8 21  1  0  0  0  0
  9 22  1  0  0  0  0
 10 23  1  0  0  0  0
M  END
> <id>
EN300-20156765

> <smiles>
O=C1C[C@H]2[C@@H]3C[C@@H](C=C3)[C@H]2C1

> <IUPAC Name>
(1R,2S,6R,7S)-tricyclo[5.2.1.0,2,6]dec-8-en-4-one

> <CAS>
51176-00-2

> <URL>
https://www.enaminestore.com/catalog/EN300-20156765

> <ROCS_ShapeQuery>
_x1247relevant_x1083L0AP1_x1305L0BP1_

> <ROCS_TanimotoCombo>
1.035 

> <ROCS_ShapeTanimoto>
0.477 

> <ROCS_ColorTanimoto>
0.558 

> <ROCS_RefTversky>
0.403 

> <ROCS_RefColorTversky>
0.676 

> <ROCS_RefTverskyCombo>
1.079 

> <ROCS_FitTversky>
1.628 

> <ROCS_FitColorTversky>
0.761 

> <ROCS_FitTverskyCombo>
2.389 

> <ROCS_ColorScore>
-6.494

> <ROCS_Overlap>
990.861

> <ROCS_Rank>
242                 

$$$$
untitled-dbase-29531_47
  -OEChem-06232314403D

 40 41  0     1  0  0  0  0  0999 V2000
  -10.2039   14.5915  -37.5274 C   0  0  0  0  0  0  0  0  0  0  0  0
  -13.5886   15.7424  -37.0274 C   0  0  0  0  0  0  0  0  0  0  0  0
  -13.7828   14.2966  -37.5274 C   0  0  0  0  0  0  0  0  0  0  0  0
  -12.2732   16.7968  -38.9534 C   0  0  0  0  0  0  0  0  0  0  0  0
  -12.6063   14.3693  -39.8001 C   0  0  0  0  0  0  0  0  0  0  0  0
  -12.2088   16.1587  -37.5494 C   0  0  2  0  0  0  0  0  0  0  0  0
  -12.5057   13.9758  -38.3105 C   0  0  1  0  0  0  0  0  0  0  0  0
  -12.9276   15.8736  -40.0196 C   0  0  0  0  0  0  0  0  0  0  0  0
   -9.6956   14.3534  -34.9683 C   0  0  0  0  0  0  0  0  0  0  0  0
   -9.8687   11.8595  -35.2124 C   0  0  0  0  0  0  0  0  0  0  0  0
   -7.8437   13.0637  -36.0828 C   0  0  0  0  0  0  0  0  0  0  0  0
  -12.5153   16.3039  -41.4304 C   0  0  0  0  0  0  0  0  0  0  0  0
   -9.3505   13.1497  -35.8440 C   0  0  0  0  0  0  0  0  0  0  0  0
  -11.5433   14.8764  -37.7066 N   0  0  0  0  0  0  0  0  0  0  0  0
   -9.2951   15.3964  -37.7183 O   0  0  0  0  0  0  0  0  0  0  0  0
  -14.3515   16.0253  -39.9495 O   0  0  0  0  0  0  0  0  0  0  0  0
  -10.0044   13.3039  -37.1085 O   0  0  0  0  0  0  0  0  0  0  0  0
  -13.2810   15.2275  -42.6273 Cl  0  0  0  0  0  0  0  0  0  0  0  0
  -13.0423   17.9825  -41.7179 Cl  0  0  0  0  0  0  0  0  0  0  0  0
  -10.7428   16.2027  -41.5887 Cl  0  0  0  0  0  0  0  0  0  0  0  0
  -14.3927   16.4074  -37.3562 H   0  0  0  0  0  0  0  0  0  0  0  0
  -13.5914   15.7432  -35.9307 H   0  0  0  0  0  0  0  0  0  0  0  0
  -13.8719   13.6285  -36.6623 H   0  0  0  0  0  0  0  0  0  0  0  0
  -14.6930   14.1830  -38.1239 H   0  0  0  0  0  0  0  0  0  0  0  0
  -12.8237   17.7438  -38.8897 H   0  0  0  0  0  0  0  0  0  0  0  0
  -11.2467   17.0395  -39.2589 H   0  0  0  0  0  0  0  0  0  0  0  0
  -11.6461   14.1282  -40.2755 H   0  0  0  0  0  0  0  0  0  0  0  0
  -13.3688   13.7449  -40.2819 H   0  0  0  0  0  0  0  0  0  0  0  0
  -11.6826   16.8168  -36.8518 H   0  0  0  0  0  0  0  0  0  0  0  0
  -12.2020   12.9292  -38.2097 H   0  0  0  0  0  0  0  0  0  0  0  0
   -9.3253   15.2815  -35.4182 H   0  0  0  0  0  0  0  0  0  0  0  0
  -10.7761   14.4466  -34.8183 H   0  0  0  0  0  0  0  0  0  0  0  0
   -9.2155   14.2730  -33.9863 H   0  0  0  0  0  0  0  0  0  0  0  0
   -9.6233   10.9932  -35.8374 H   0  0  0  0  0  0  0  0  0  0  0  0
  -10.9611   11.8784  -35.1263 H   0  0  0  0  0  0  0  0  0  0  0  0
   -9.4450   11.6990  -34.2157 H   0  0  0  0  0  0  0  0  0  0  0  0
   -7.5960   12.2004  -36.7109 H   0  0  0  0  0  0  0  0  0  0  0  0
   -7.4603   13.9665  -36.5693 H   0  0  0  0  0  0  0  0  0  0  0  0
   -7.3069   12.9227  -35.1377 H   0  0  0  0  0  0  0  0  0  0  0  0
  -14.5307   16.9584  -40.1314 H   0  0  0  0  0  0  0  0  0  0  0  0
  1 14  1  0  0  0  0
  1 15  2  0  0  0  0
  1 17  1  0  0  0  0
  2  3  1  0  0  0  0
  2  6  1  0  0  0  0
  3  7  1  0  0  0  0
  4  6  1  0  0  0  0
  4  8  1  0  0  0  0
  5  7  1  0  0  0  0
  5  8  1  0  0  0  0
  6 14  1  0  0  0  0
  7 14  1  0  0  0  0
  8 12  1  0  0  0  0
  8 16  1  0  0  0  0
  9 13  1  0  0  0  0
 10 13  1  0  0  0  0
 11 13  1  0  0  0  0
 12 18  1  0  0  0  0
 12 19  1  0  0  0  0
 12 20  1  0  0  0  0
 13 17  1  0  0  0  0
  2 21  1  0  0  0  0
  2 22  1  0  0  0  0
  3 23  1  0  0  0  0
  3 24  1  0  0  0  0
  4 25  1  0  0  0  0
  4 26  1  0  0  0  0
  5 27  1  0  0  0  0
  5 28  1  0  0  0  0
  6 29  1  0  0  0  0
  7 30  1  0  0  0  0
  9 31  1  0  0  0  0
  9 32  1  0  0  0  0
  9 33  1  0  0  0  0
 10 34  1  0  0  0  0
 10 35  1  0  0  0  0
 10 36  1  0  0  0  0
 11 37  1  0  0  0  0
 11 38  1  0  0  0  0
 11 39  1  0  0  0  0
 16 40  1  0  0  0  0
M  END
> <id>
EN300-7472961

> <smiles>
CC(C)(C)OC(=O)N1C2CCC1CC(O)(C2)C(Cl)(Cl)Cl

> <IUPAC Name>
tert-butyl 3-hydroxy-3-(trichloromethyl)-8-azabicyclo[3.2.1]octane-8-carboxylate

> <URL>
https://www.enaminestore.com/catalog/EN300-7472961

> <ROCS_ShapeQuery>
_x1247relevant_x1083L0AP1_x1305L0BP1_

> <ROCS_TanimotoCombo>
1.035 

> <ROCS_ShapeTanimoto>
0.528 

> <ROCS_ColorTanimoto>
0.507 

> <ROCS_RefTversky>
0.477 

> <ROCS_RefColorTversky>
0.678 

> <ROCS_RefTverskyCombo>
1.155 

> <ROCS_FitTversky>
1.252 

> <ROCS_FitColorTversky>
0.668 

> <ROCS_FitTverskyCombo>
1.920 

> <ROCS_ColorScore>
-6.555

> <ROCS_Overlap>
1181.476

> <ROCS_Rank>
243                 

$$$$
untitled-dbase-45143_2
  -OEChem-06232314403D

 30 32  0     1  0  0  0  0  0999 V2000
  -11.1677   14.7705  -37.2931 C   0  0  0  0  0  0  0  0  0  0  0  0
  -11.9600   14.0073  -39.5333 C   0  0  0  0  0  0  0  0  0  0  0  0
  -13.4811   13.8531  -37.4839 C   0  0  0  0  0  0  0  0  0  0  0  0
  -14.2267   15.0795  -39.5399 C   0  0  0  0  0  0  0  0  0  0  0  0
  -12.1840   16.5356  -39.5151 C   0  0  0  0  0  0  0  0  0  0  0  0
  -13.7109   16.3807  -37.4582 C   0  0  0  0  0  0  0  0  0  0  0  0
  -12.0492   13.7911  -38.0207 C   0  0  0  0  0  0  0  0  0  0  0  0
  -12.7777   15.2117  -40.0171 C   0  0  1  0  0  0  0  0  0  0  0  0
  -14.2680   15.0606  -38.0094 C   0  0  2  0  0  0  0  0  0  0  0  0
  -12.3232   16.7351  -38.0024 C   0  0  0  0  0  0  0  0  0  0  0  0
   -8.9902   13.9759  -37.3591 C   0  0  0  0  0  0  0  0  0  0  0  0
  -11.2591   16.0482  -37.2645 N   0  0  0  0  0  0  0  0  0  0  0  0
  -10.1781   14.1553  -36.6064 O   0  0  0  0  0  0  0  0  0  0  0  0
  -10.9134   14.1187  -39.8434 H   0  0  0  0  0  0  0  0  0  0  0  0
  -12.3392   13.1075  -40.0355 H   0  0  0  0  0  0  0  0  0  0  0  0
  -14.0064   12.9383  -37.7884 H   0  0  0  0  0  0  0  0  0  0  0  0
  -13.4787   13.8592  -36.3866 H   0  0  0  0  0  0  0  0  0  0  0  0
  -14.8276   15.9136  -39.9231 H   0  0  0  0  0  0  0  0  0  0  0  0
  -14.6721   14.1601  -39.9398 H   0  0  0  0  0  0  0  0  0  0  0  0
  -11.1327   16.6174  -39.8180 H   0  0  0  0  0  0  0  0  0  0  0  0
  -12.7157   17.3547  -40.0175 H   0  0  0  0  0  0  0  0  0  0  0  0
  -14.4043   17.1836  -37.7425 H   0  0  0  0  0  0  0  0  0  0  0  0
  -13.6985   16.3571  -36.3614 H   0  0  0  0  0  0  0  0  0  0  0  0
  -11.6586   12.7868  -37.8063 H   0  0  0  0  0  0  0  0  0  0  0  0
  -12.7627   15.2205  -41.1140 H   0  0  0  0  0  0  0  0  0  0  0  0
  -15.3102   14.9621  -37.6816 H   0  0  0  0  0  0  0  0  0  0  0  0
  -12.1635   17.8027  -37.8034 H   0  0  0  0  0  0  0  0  0  0  0  0
   -8.2394   13.4754  -36.7427 H   0  0  0  0  0  0  0  0  0  0  0  0
   -8.6165   14.9484  -37.6893 H   0  0  0  0  0  0  0  0  0  0  0  0
   -9.2125   13.3577  -38.2321 H   0  0  0  0  0  0  0  0  0  0  0  0
  1  7  1  0  0  0  0
  1 12  2  0  0  0  0
  1 13  1  0  0  0  0
  2  7  1  0  0  0  0
  2  8  1  0  0  0  0
  3  7  1  0  0  0  0
  3  9  1  0  0  0  0
  4  8  1  0  0  0  0
  4  9  1  0  0  0  0
  5  8  1  0  0  0  0
  5 10  1  0  0  0  0
  6  9  1  0  0  0  0
  6 10  1  0  0  0  0
 10 12  1  0  0  0  0
 11 13  1  0  0  0  0
  2 14  1  0  0  0  0
  2 15  1  0  0  0  0
  3 16  1  0  0  0  0
  3 17  1  0  0  0  0
  4 18  1  0  0  0  0
  4 19  1  0  0  0  0
  5 20  1  0  0  0  0
  5 21  1  0  0  0  0
  6 22  1  0  0  0  0
  6 23  1  0  0  0  0
  7 24  1  0  0  0  0
  8 25  1  0  0  0  0
  9 26  1  0  0  0  0
 10 27  1  0  0  0  0
 11 28  1  0  0  0  0
 11 29  1  0  0  0  0
 11 30  1  0  0  0  0
M  END
> <id>
EN300-27754157

> <smiles>
COC1=NC2CC3CC(C2)CC1C3

> <MDLNUMBER>
MFCD34183698

> <IUPAC Name>
5-methoxy-4-azatricyclo[4.3.1.1,3,8]undec-4-ene

> <CAS>
31556-14-6

> <Purity>
95

> <URL>
https://www.enaminestore.com/catalog/EN300-27754157

> <ROCS_ShapeQuery>
_x1247relevant_x1083L0AP1_x1305L0BP1_

> <ROCS_TanimotoCombo>
1.035 

> <ROCS_ShapeTanimoto>
0.521 

> <ROCS_ColorTanimoto>
0.514 

> <ROCS_RefTversky>
0.438 

> <ROCS_RefColorTversky>
0.560 

> <ROCS_RefTverskyCombo>
0.998 

> <ROCS_FitTversky>
1.573 

> <ROCS_FitColorTversky>
0.860 

> <ROCS_FitTverskyCombo>
2.434 

> <ROCS_ColorScore>
-5.313

> <ROCS_Overlap>
1078.805

> <ROCS_Rank>
244                 

$$$$
untitled-dbase-30945_0
  -OEChem-06232314403D

 17 18  0     1  0  0  0  0  0999 V2000
  -13.9223   16.0367  -38.4905 C   0  0  0  0  0  0  0  0  0  0  0  0
  -13.8868   14.8633  -39.1344 C   0  0  0  0  0  0  0  0  0  0  0  0
  -11.4603   16.2247  -38.5141 C   0  0  0  0  0  0  0  0  0  0  0  0
  -11.4247   14.8646  -39.2647 C   0  0  0  0  0  0  0  0  0  0  0  0
  -12.6154   14.5945  -37.2314 C   0  0  0  0  0  0  0  0  0  0  0  0
  -12.6981   16.0798  -37.6046 C   0  0  2  0  0  0  0  0  0  0  0  0
  -12.6508   14.1222  -38.6898 C   0  0  1  0  0  0  0  0  0  0  0  0
  -15.0364   14.1783  -40.3785 Br  0  0  0  0  0  0  0  0  0  0  0  0
  -14.6538   16.8213  -38.6010 H   0  0  0  0  0  0  0  0  0  0  0  0
  -10.5480   16.3481  -37.9198 H   0  0  0  0  0  0  0  0  0  0  0  0
  -11.5400   17.0690  -39.2073 H   0  0  0  0  0  0  0  0  0  0  0  0
  -11.4804   14.9984  -40.3504 H   0  0  0  0  0  0  0  0  0  0  0  0
  -10.4973   14.3306  -39.0286 H   0  0  0  0  0  0  0  0  0  0  0  0
  -11.6867   14.3302  -36.7129 H   0  0  0  0  0  0  0  0  0  0  0  0
  -13.4697   14.2447  -36.6378 H   0  0  0  0  0  0  0  0  0  0  0  0
  -12.7608   16.7710  -36.7639 H   0  0  0  0  0  0  0  0  0  0  0  0
  -12.6594   13.0399  -38.8259 H   0  0  0  0  0  0  0  0  0  0  0  0
  1  2  2  0  0  0  0
  1  6  1  0  0  0  0
  2  7  1  0  0  0  0
  2  8  1  0  0  0  0
  3  4  1  0  0  0  0
  3  6  1  0  0  0  0
  4  7  1  0  0  0  0
  5  6  1  0  0  0  0
  5  7  1  0  0  0  0
  1  9  1  0  0  0  0
  3 10  1  0  0  0  0
  3 11  1  0  0  0  0
  4 12  1  0  0  0  0
  4 13  1  0  0  0  0
  5 14  1  0  0  0  0
  5 15  1  0  0  0  0
  6 16  1  0  0  0  0
  7 17  1  0  0  0  0
M  END
> <id>
EN300-7597790

> <smiles>
BrC1=CC2CCC1C2

> <MDLNUMBER>
MFCD23135249

> <IUPAC Name>
2-bromobicyclo[2.2.1]hept-2-ene

> <CAS>
694-90-6

> <Purity>
95

> <URL>
https://www.enaminestore.com/catalog/EN300-7597790

> <ROCS_ShapeQuery>
_x1247relevant_x1083L0AP1_x1305L0BP1_

> <ROCS_TanimotoCombo>
1.035 

> <ROCS_ShapeTanimoto>
0.357 

> <ROCS_ColorTanimoto>
0.678 

> <ROCS_RefTversky>
0.312 

> <ROCS_RefColorTversky>
0.721 

> <ROCS_RefTverskyCombo>
1.033 

> <ROCS_FitTversky>
1.681 

> <ROCS_FitColorTversky>
0.919 

> <ROCS_FitTverskyCombo>
2.600 

> <ROCS_ColorScore>
-6.885

> <ROCS_Overlap>
763.680

> <ROCS_Rank>
245                 

$$$$
untitled-dbase-20787_0
  -OEChem-06232314403D

 18 19  0     1  0  0  0  0  0999 V2000
   -9.3441   14.3504  -36.5147 C   0  5  0  0  0  0  0  0  0  0  0  0
  -13.7395   15.4905  -39.3143 C   0  0  0  0  0  0  0  0  0  0  0  0
  -13.6640   14.2608  -38.7832 C   0  0  0  0  0  0  0  0  0  0  0  0
  -12.9222   15.7375  -37.1664 C   0  0  0  0  0  0  0  0  0  0  0  0
  -11.3370   15.9283  -38.9257 C   0  0  0  0  0  0  0  0  0  0  0  0
  -12.7713   16.3667  -38.5534 C   0  0  1  0  0  0  0  0  0  0  0  0
  -12.6405   14.3169  -37.6732 C   0  0  2  0  0  0  0  0  0  0  0  0
  -11.2538   14.4932  -38.3319 C   0  0  2  0  0  0  0  0  0  0  0  0
  -10.2202   14.4159  -37.3484 N   0  3  0  0  0  0  0  0  0  0  0  0
  -14.3383   15.7879  -40.1601 H   0  0  0  0  0  0  0  0  0  0  0  0
  -14.1895   13.3826  -39.1224 H   0  0  0  0  0  0  0  0  0  0  0  0
  -12.1827   16.0995  -36.4434 H   0  0  0  0  0  0  0  0  0  0  0  0
  -13.9260   15.8571  -36.7387 H   0  0  0  0  0  0  0  0  0  0  0  0
  -11.1795   15.9220  -40.0100 H   0  0  0  0  0  0  0  0  0  0  0  0
  -10.5945   16.5938  -38.4706 H   0  0  0  0  0  0  0  0  0  0  0  0
  -12.9760   17.4362  -38.6081 H   0  0  0  0  0  0  0  0  0  0  0  0
  -12.7284   13.5358  -36.9170 H   0  0  0  0  0  0  0  0  0  0  0  0
  -11.0564   13.7452  -39.1074 H   0  0  0  0  0  0  0  0  0  0  0  0
  1  9  3  0  0  0  0
  2  3  2  0  0  0  0
  2  6  1  0  0  0  0
  3  7  1  0  0  0  0
  4  6  1  0  0  0  0
  4  7  1  0  0  0  0
  5  6  1  0  0  0  0
  5  8  1  0  0  0  0
  7  8  1  0  0  0  0
  8  9  1  0  0  0  0
  2 10  1  0  0  0  0
  3 11  1  0  0  0  0
  4 12  1  0  0  0  0
  4 13  1  0  0  0  0
  5 14  1  0  0  0  0
  5 15  1  0  0  0  0
  6 16  1  0  0  0  0
  7 17  1  0  0  0  0
  8 18  1  0  0  0  0
M  CHG  2   1  -1   9   1
M  END
> <id>
EN300-1819711

> <smiles>
[C-]#[N+]C1CC2CC1C=C2

> <MDLNUMBER>
MFCD32773860

> <IUPAC Name>
5-isocyanobicyclo[2.2.1]hept-2-ene

> <URL>
https://www.enaminestore.com/catalog/EN300-1819711

> <ROCS_ShapeQuery>
_x1247relevant_x1083L0AP1_x1305L0BP1_

> <ROCS_TanimotoCombo>
1.034 

> <ROCS_ShapeTanimoto>
0.449 

> <ROCS_ColorTanimoto>
0.586 

> <ROCS_RefTversky>
0.374 

> <ROCS_RefColorTversky>
0.623 

> <ROCS_RefTverskyCombo>
0.997 

> <ROCS_FitTversky>
1.806 

> <ROCS_FitColorTversky>
0.906 

> <ROCS_FitTverskyCombo>
2.712 

> <ROCS_ColorScore>
-5.922

> <ROCS_Overlap>
917.576

> <ROCS_Rank>
246                 

$$$$
untitled-dbase-19925_3
  -OEChem-06232314403D

 42 45  0     1  0  0  0  0  0999 V2000
   -9.0581   14.9356  -37.1427 C   0  0  0  0  0  0  0  0  0  0  0  0
  -11.9514   13.8552  -34.7564 C   0  0  0  0  0  0  0  0  0  0  0  0
  -14.0802   14.1363  -38.5087 C   0  0  0  0  0  0  0  0  0  0  0  0
  -12.6128   12.5633  -35.2275 C   0  0  0  0  0  0  0  0  0  0  0  0
  -14.0166   15.5018  -39.2070 C   0  0  0  0  0  0  0  0  0  0  0  0
   -9.7260   14.1651  -36.0238 C   0  0  1  0  0  0  0  0  0  0  0  0
  -11.1840   14.6388  -35.8289 C   0  0  1  0  0  0  0  0  0  0  0  0
  -13.3462   14.0584  -37.1529 C   0  0  1  0  0  0  0  0  0  0  0  0
  -13.1594   12.6037  -36.6650 C   0  0  2  0  0  0  0  0  0  0  0  0
  -11.0979   14.5110  -38.3722 C   0  0  2  0  0  0  0  0  0  0  0  0
  -11.9887   14.8279  -37.1489 C   0  0  2  0  0  0  0  0  0  0  0  0
  -12.5777   16.0015  -39.4485 C   0  0  2  0  0  0  0  0  0  0  0  0
   -9.4666   12.6708  -36.1781 C   0  0  0  0  0  0  0  0  0  0  0  0
  -14.4354   11.7576  -36.7432 C   0  0  0  0  0  0  0  0  0  0  0  0
  -12.5177   16.8247  -40.7336 C   0  0  0  0  0  0  0  0  0  0  0  0
   -7.8973   15.3278  -37.0646 O   0  0  0  0  0  0  0  0  0  0  0  0
   -9.8105   15.1512  -38.2478 O   0  0  0  0  0  0  0  0  0  0  0  0
  -11.7003   14.8908  -39.6154 O   0  0  0  0  0  0  0  0  0  0  0  0
  -12.4042   16.2226  -37.1303 O   0  0  0  0  0  0  0  0  0  0  0  0
  -12.1071   16.8579  -38.4069 O   0  0  0  0  0  0  0  0  0  0  0  0
  -12.7539   14.4951  -34.3186 H   0  0  0  0  0  0  0  0  0  0  0  0
  -11.2870   13.6301  -33.8866 H   0  0  0  0  0  0  0  0  0  0  0  0
  -15.1326   13.8794  -38.3663 H   0  0  0  0  0  0  0  0  0  0  0  0
  -13.6712   13.3865  -39.1917 H   0  0  0  0  0  0  0  0  0  0  0  0
  -11.8815   11.7379  -35.1342 H   0  0  0  0  0  0  0  0  0  0  0  0
  -13.4333   12.3057  -34.5291 H   0  0  0  0  0  0  0  0  0  0  0  0
  -14.5322   15.3782  -40.1677 H   0  0  0  0  0  0  0  0  0  0  0  0
  -14.5906   16.2422  -38.6375 H   0  0  0  0  0  0  0  0  0  0  0  0
   -9.1507   14.4907  -35.1202 H   0  0  0  0  0  0  0  0  0  0  0  0
  -11.0753   15.6892  -35.3776 H   0  0  0  0  0  0  0  0  0  0  0  0
  -13.9913   14.5768  -36.4248 H   0  0  0  0  0  0  0  0  0  0  0  0
  -12.4069   12.1079  -37.3100 H   0  0  0  0  0  0  0  0  0  0  0  0
  -10.8865   13.4496  -38.4417 H   0  0  0  0  0  0  0  0  0  0  0  0
  -10.0033   12.2946  -37.0459 H   0  0  0  0  0  0  0  0  0  0  0  0
   -9.8088   12.1469  -35.2887 H   0  0  0  0  0  0  0  0  0  0  0  0
   -8.4013   12.4967  -36.3107 H   0  0  0  0  0  0  0  0  0  0  0  0
  -15.2068   12.2065  -36.1234 H   0  0  0  0  0  0  0  0  0  0  0  0
  -14.2262   10.7521  -36.3886 H   0  0  0  0  0  0  0  0  0  0  0  0
  -14.7790   11.7139  -37.7732 H   0  0  0  0  0  0  0  0  0  0  0  0
  -11.5004   17.1756  -40.9006 H   0  0  0  0  0  0  0  0  0  0  0  0
  -13.1821   17.6837  -40.6535 H   0  0  0  0  0  0  0  0  0  0  0  0
  -12.8268   16.2125  -41.5795 H   0  0  0  0  0  0  0  0  0  0  0  0
  1  6  1  0  0  0  0
  1 16  2  0  0  0  0
  1 17  1  0  0  0  0
  2  4  1  0  0  0  0
  2  7  1  0  0  0  0
  3  5  1  0  0  0  0
  3  8  1  1  0  0  0
  4  9  1  0  0  0  0
  5 12  1  0  0  0  0
  6  7  1  0  0  0  0
  6 13  1  1  0  0  0
  7 11  1  0  0  0  0
  8  9  1  0  0  0  0
  8 11  1  0  0  0  0
  9 14  1  6  0  0  0
 10 11  1  0  0  0  0
 10 17  1  6  0  0  0
 10 18  1  0  0  0  0
 11 19  1  6  0  0  0
 12 15  1  0  0  0  0
 12 18  1  0  0  0  0
 12 20  1  0  0  0  0
 19 20  1  0  0  0  0
  2 21  1  0  0  0  0
  2 22  1  0  0  0  0
  3 23  1  0  0  0  0
  3 24  1  0  0  0  0
  4 25  1  0  0  0  0
  4 26  1  0  0  0  0
  5 27  1  0  0  0  0
  5 28  1  0  0  0  0
  6 29  1  0  0  0  0
  7 30  1  0  0  0  0
  8 31  1  0  0  0  0
  9 32  1  0  0  0  0
 10 33  1  0  0  0  0
 13 34  1  0  0  0  0
 13 35  1  0  0  0  0
 13 36  1  0  0  0  0
 14 37  1  0  0  0  0
 14 38  1  0  0  0  0
 14 39  1  0  0  0  0
 15 40  1  0  0  0  0
 15 41  1  0  0  0  0
 15 42  1  0  0  0  0
M  END
> <id>
EN300-1694131

> <smiles>
C[C@@H]1CCC2[C@@H](C)C(=O)O[C@@H]3OC4(C)CC[C@@H]1[C@@]23OO4

> <MDLNUMBER>
MFCD31665763

> <IUPAC Name>
(4S,5R,9R,12S,13R)-1,5,9-trimethyl-11,14,15,16-tetraoxatetracyclo[10.3.1.0^{4,13}.0^{8,13}]hexadecan-10-one

> <CAS>
63968-64-9

> <Purity>
95

> <URL>
https://www.enaminestore.com/catalog/EN300-1694131

> <MP>
156-157

> <ROCS_ShapeQuery>
_x1247relevant_x1083L0AP1_x1305L0BP1_

> <ROCS_TanimotoCombo>
1.034 

> <ROCS_ShapeTanimoto>
0.537 

> <ROCS_ColorTanimoto>
0.497 

> <ROCS_RefTversky>
0.491 

> <ROCS_RefColorTversky>
0.668 

> <ROCS_RefTverskyCombo>
1.159 

> <ROCS_FitTversky>
1.211 

> <ROCS_FitColorTversky>
0.660 

> <ROCS_FitTverskyCombo>
1.872 

> <ROCS_ColorScore>
-6.464

> <ROCS_Overlap>
1217.330

> <ROCS_Rank>
247                 

$$$$
untitled-dbase-23951_3
  -OEChem-06232314403D

 42 45  0     1  0  0  0  0  0999 V2000
   -9.0611   14.9311  -37.1329 C   0  0  0  0  0  0  0  0  0  0  0  0
  -11.9643   13.8785  -34.7463 C   0  0  0  0  0  0  0  0  0  0  0  0
  -14.0829   14.1413  -38.5057 C   0  0  0  0  0  0  0  0  0  0  0  0
  -12.6295   12.5858  -35.2099 C   0  0  0  0  0  0  0  0  0  0  0  0
  -14.0123   15.5015  -39.2135 C   0  0  0  0  0  0  0  0  0  0  0  0
   -9.7346   14.1708  -36.0104 C   0  0  1  0  0  0  0  0  0  0  0  0
  -11.1912   14.6515  -35.8225 C   0  0  1  0  0  0  0  0  0  0  0  0
  -13.3525   14.0701  -37.1477 C   0  0  1  0  0  0  0  0  0  0  0  0
  -13.1723   12.6181  -36.6491 C   0  0  2  0  0  0  0  0  0  0  0  0
  -11.0995   14.5053  -38.3645 C   0  0  2  0  0  0  0  0  0  0  0  0
  -11.9920   14.8344  -37.1458 C   0  0  2  0  0  0  0  0  0  0  0  0
  -12.5708   15.9939  -39.4550 C   0  0  2  0  0  0  0  0  0  0  0  0
   -9.4806   12.6745  -36.1538 C   0  0  0  0  0  0  0  0  0  0  0  0
  -14.4512   11.7761  -36.7249 C   0  0  0  0  0  0  0  0  0  0  0  0
  -12.5045   16.8077  -40.7458 C   0  0  0  0  0  0  0  0  0  0  0  0
   -7.8993   15.3203  -37.0542 O   0  0  0  0  0  0  0  0  0  0  0  0
   -9.8098   15.1414  -38.2416 O   0  0  0  0  0  0  0  0  0  0  0  0
  -11.6974   14.8786  -39.6119 O   0  0  0  0  0  0  0  0  0  0  0  0
  -12.4020   16.2308  -37.1381 O   0  0  0  0  0  0  0  0  0  0  0  0
  -12.0993   16.8558  -38.4184 O   0  0  0  0  0  0  0  0  0  0  0  0
  -12.7654   14.5245  -34.3151 H   0  0  0  0  0  0  0  0  0  0  0  0
  -11.3029   13.6570  -33.8733 H   0  0  0  0  0  0  0  0  0  0  0  0
  -15.1367   13.8895  -38.3640 H   0  0  0  0  0  0  0  0  0  0  0  0
  -13.6753   13.3849  -39.1824 H   0  0  0  0  0  0  0  0  0  0  0  0
  -11.9016   11.7583  -35.1090 H   0  0  0  0  0  0  0  0  0  0  0  0
  -13.4527   12.3362  -34.5119 H   0  0  0  0  0  0  0  0  0  0  0  0
  -14.5260   15.3731  -40.1746 H   0  0  0  0  0  0  0  0  0  0  0  0
  -14.5847   16.2481  -38.6507 H   0  0  0  0  0  0  0  0  0  0  0  0
   -9.1604   14.5005  -35.1076 H   0  0  0  0  0  0  0  0  0  0  0  0
  -11.0795   15.7046  -35.3784 H   0  0  0  0  0  0  0  0  0  0  0  0
  -13.9972   14.5960  -36.4247 H   0  0  0  0  0  0  0  0  0  0  0  0
  -12.4200   12.1150  -37.2887 H   0  0  0  0  0  0  0  0  0  0  0  0
  -10.8920   13.4426  -38.4260 H   0  0  0  0  0  0  0  0  0  0  0  0
  -10.0165   12.2943  -37.0203 H   0  0  0  0  0  0  0  0  0  0  0  0
   -9.8271   12.1581  -35.2617 H   0  0  0  0  0  0  0  0  0  0  0  0
   -8.4157   12.4954  -36.2824 H   0  0  0  0  0  0  0  0  0  0  0  0
  -15.2226   12.2320  -36.1101 H   0  0  0  0  0  0  0  0  0  0  0  0
  -14.2464   10.7723  -36.3627 H   0  0  0  0  0  0  0  0  0  0  0  0
  -14.7922   11.7264  -37.7554 H   0  0  0  0  0  0  0  0  0  0  0  0
  -11.4854   17.1535  -40.9128 H   0  0  0  0  0  0  0  0  0  0  0  0
  -13.1657   17.6698  -40.6734 H   0  0  0  0  0  0  0  0  0  0  0  0
  -12.8140   16.1908  -41.5880 H   0  0  0  0  0  0  0  0  0  0  0  0
  1  6  1  0  0  0  0
  1 16  2  0  0  0  0
  1 17  1  0  0  0  0
  2  4  1  0  0  0  0
  2  7  1  1  0  0  0
  3  5  1  0  0  0  0
  3  8  1  1  0  0  0
  4  9  1  0  0  0  0
  5 12  1  0  0  0  0
  6  7  1  0  0  0  0
  6 13  1  1  0  0  0
  7 11  1  0  0  0  0
  8  9  1  0  0  0  0
  8 11  1  0  0  0  0
  9 14  1  6  0  0  0
 10 11  1  0  0  0  0
 10 17  1  6  0  0  0
 10 18  1  0  0  0  0
 11 19  1  6  0  0  0
 12 15  1  1  0  0  0
 12 18  1  0  0  0  0
 12 20  1  0  0  0  0
 19 20  1  0  0  0  0
  2 21  1  0  0  0  0
  2 22  1  0  0  0  0
  3 23  1  0  0  0  0
  3 24  1  0  0  0  0
  4 25  1  0  0  0  0
  4 26  1  0  0  0  0
  5 27  1  0  0  0  0
  5 28  1  0  0  0  0
  6 29  1  0  0  0  0
  7 30  1  0  0  0  0
  8 31  1  0  0  0  0
  9 32  1  0  0  0  0
 10 33  1  0  0  0  0
 13 34  1  0  0  0  0
 13 35  1  0  0  0  0
 13 36  1  0  0  0  0
 14 37  1  0  0  0  0
 14 38  1  0  0  0  0
 14 39  1  0  0  0  0
 15 40  1  0  0  0  0
 15 41  1  0  0  0  0
 15 42  1  0  0  0  0
M  END
> <id>
EN300-7390753

> <smiles>
C[C@@H]1CC[C@H]2[C@@H](C)C(=O)O[C@@H]3O[C@@]4(C)CC[C@@H]1[C@@]23OO4

> <MDLNUMBER>
MFCD00081057

> <IUPAC Name>
(1R,4S,5R,8S,9R,12S,13R)-1,5,9-trimethyl-11,14,15,16-tetraoxatetracyclo[10.3.1.0^{4,13}.0^{8,13}]hexadecan-10-one

> <CAS>
63968-64-9

> <URL>
https://www.enaminestore.com/catalog/EN300-7390753

> <ROCS_ShapeQuery>
_x1247relevant_x1083L0AP1_x1305L0BP1_

> <ROCS_TanimotoCombo>
1.034 

> <ROCS_ShapeTanimoto>
0.537 

> <ROCS_ColorTanimoto>
0.498 

> <ROCS_RefTversky>
0.491 

> <ROCS_RefColorTversky>
0.668 

> <ROCS_RefTverskyCombo>
1.159 

> <ROCS_FitTversky>
1.211 

> <ROCS_FitColorTversky>
0.660 

> <ROCS_FitTverskyCombo>
1.871 

> <ROCS_ColorScore>
-6.465

> <ROCS_Overlap>
1216.913

> <ROCS_Rank>
248                 

$$$$
untitled-dbase-48994_0
  -OEChem-06232314403D

 32 34  0     1  0  0  0  0  0999 V2000
  -11.0791   14.4696  -36.1102 C   0  0  0  0  0  0  0  0  0  0  0  0
   -9.6302   14.4455  -35.7178 C   0  0  0  0  0  0  0  0  0  0  0  0
  -13.7528   14.2579  -37.6861 C   0  0  0  0  0  0  0  0  0  0  0  0
  -12.4882   14.4625  -39.7742 C   0  0  0  0  0  0  0  0  0  0  0  0
   -8.9799   14.9718  -36.9838 C   0  0  0  0  0  0  0  0  0  0  0  0
  -13.9610   15.7753  -37.6134 C   0  0  0  0  0  0  0  0  0  0  0  0
  -12.8982   15.9454  -39.7669 C   0  0  0  0  0  0  0  0  0  0  0  0
  -11.6121   16.2925  -37.7637 C   0  0  0  0  0  0  0  0  0  0  0  0
  -12.3750   13.9593  -38.3162 C   0  0  0  0  0  0  0  0  0  0  0  0
  -11.2563   14.7779  -37.6073 C   0  0  2  0  0  0  0  0  0  0  0  0
   -9.5553   13.1831  -38.4863 C   0  0  0  0  0  0  0  0  0  0  0  0
  -12.9381   16.4975  -38.3952 N   0  0  0  0  0  0  0  0  0  0  0  0
   -9.8595   14.5659  -38.0996 N   0  0  2  0  0  0  0  0  0  0  0  0
  -11.9796   14.2857  -35.3023 O   0  0  0  0  0  0  0  0  0  0  0  0
   -9.4460   15.1005  -34.8635 H   0  0  0  0  0  0  0  0  0  0  0  0
   -9.3340   13.4164  -35.4974 H   0  0  0  0  0  0  0  0  0  0  0  0
  -13.8532   13.8065  -36.6951 H   0  0  0  0  0  0  0  0  0  0  0  0
  -14.5425   13.8067  -38.3010 H   0  0  0  0  0  0  0  0  0  0  0  0
  -13.2377   13.8745  -40.3178 H   0  0  0  0  0  0  0  0  0  0  0  0
  -11.5433   14.3436  -40.3138 H   0  0  0  0  0  0  0  0  0  0  0  0
   -8.9273   16.0675  -36.9506 H   0  0  0  0  0  0  0  0  0  0  0  0
   -7.9481   14.6199  -37.0955 H   0  0  0  0  0  0  0  0  0  0  0  0
  -14.9611   16.0310  -37.9846 H   0  0  0  0  0  0  0  0  0  0  0  0
  -13.9391   16.1135  -36.5699 H   0  0  0  0  0  0  0  0  0  0  0  0
  -12.2005   16.5280  -40.3812 H   0  0  0  0  0  0  0  0  0  0  0  0
  -13.8796   16.0668  -40.2428 H   0  0  0  0  0  0  0  0  0  0  0  0
  -11.5965   16.8087  -36.7945 H   0  0  0  0  0  0  0  0  0  0  0  0
  -10.8670   16.8173  -38.3776 H   0  0  0  0  0  0  0  0  0  0  0  0
  -12.1919   12.8806  -38.2818 H   0  0  0  0  0  0  0  0  0  0  0  0
  -10.2103   12.8815  -39.3169 H   0  0  0  0  0  0  0  0  0  0  0  0
   -8.5046   13.1143  -38.8046 H   0  0  0  0  0  0  0  0  0  0  0  0
   -9.7225   12.5170  -37.6271 H   0  0  0  0  0  0  0  0  0  0  0  0
  1  2  1  0  0  0  0
  1 10  1  0  0  0  0
  1 14  2  0  0  0  0
  2  5  1  0  0  0  0
  3  6  1  0  0  0  0
  3  9  1  0  0  0  0
  4  7  1  0  0  0  0
  4  9  1  0  0  0  0
  5 13  1  0  0  0  0
  6 12  1  0  0  0  0
  7 12  1  0  0  0  0
  8 10  1  0  0  0  0
  8 12  1  0  0  0  0
  9 10  1  0  0  0  0
 10 13  1  0  0  0  0
 11 13  1  0  0  0  0
  2 15  1  0  0  0  0
  2 16  1  0  0  0  0
  3 17  1  0  0  0  0
  3 18  1  0  0  0  0
  4 19  1  0  0  0  0
  4 20  1  0  0  0  0
  5 21  1  0  0  0  0
  5 22  1  0  0  0  0
  6 23  1  0  0  0  0
  6 24  1  0  0  0  0
  7 25  1  0  0  0  0
  7 26  1  0  0  0  0
  8 27  1  0  0  0  0
  8 28  1  0  0  0  0
  9 29  1  0  0  0  0
 11 30  1  0  0  0  0
 11 31  1  0  0  0  0
 11 32  1  0  0  0  0
M  END
> <id>
EN300-785409

> <smiles>
CN1CCC(=O)C21CN3CCC2CC3

> <IUPAC Name>
1'-methyl-4-azaspiro[bicyclo[2.2.2]octane-2,2'-pyrrolidine]-3'-one

> <CAS>
2137630-75-0

> <URL>
https://www.enaminestore.com/catalog/EN300-785409

> <ROCS_ShapeQuery>
_x1247relevant_x1083L0AP1_x1305L0BP1_

> <ROCS_TanimotoCombo>
1.034 

> <ROCS_ShapeTanimoto>
0.505 

> <ROCS_ColorTanimoto>
0.528 

> <ROCS_RefTversky>
0.435 

> <ROCS_RefColorTversky>
0.705 

> <ROCS_RefTverskyCombo>
1.140 

> <ROCS_FitTversky>
1.469 

> <ROCS_FitColorTversky>
0.679 

> <ROCS_FitTverskyCombo>
2.147 

> <ROCS_ColorScore>
-6.824

> <ROCS_Overlap>
1073.017

> <ROCS_Rank>
249                 

$$$$
untitled-dbase-27035_0
  -OEChem-06232314403D

 28 30  0     1  0  0  0  0  0999 V2000
   -9.1533   14.4640  -37.1188 C   0  0  0  0  0  0  0  0  0  0  0  0
  -12.1674   16.4375  -39.3359 C   0  0  0  0  0  0  0  0  0  0  0  0
  -13.4950   16.1169  -37.2743 C   0  0  0  0  0  0  0  0  0  0  0  0
  -11.0108   14.7700  -36.0181 C   0  0  0  0  0  0  0  0  0  0  0  0
  -12.8512   15.1969  -39.9302 C   0  0  0  0  0  0  0  0  0  0  0  0
  -14.1358   14.8767  -37.9187 C   0  0  0  0  0  0  0  0  0  0  0  0
  -12.0012   13.7864  -38.1718 C   0  0  0  0  0  0  0  0  0  0  0  0
  -12.0627   16.2787  -37.8071 C   0  0  0  0  0  0  0  0  0  0  0  0
  -11.2769   14.9849  -37.5046 C   0  0  1  0  0  0  0  0  0  0  0  0
   -9.6618   14.1892  -35.9580 N   0  0  0  0  0  0  0  0  0  0  0  0
  -13.2266   14.2216  -38.8849 N   0  0  0  0  0  0  0  0  0  0  0  0
   -7.8938   14.2105  -37.5707 N   0  0  0  0  0  0  0  0  0  0  0  0
   -9.9532   15.0806  -38.0360 O   0  0  0  0  0  0  0  0  0  0  0  0
  -11.1738   16.5685  -39.7796 H   0  0  0  0  0  0  0  0  0  0  0  0
  -12.7473   17.3359  -39.5797 H   0  0  0  0  0  0  0  0  0  0  0  0
  -14.0866   17.0086  -37.5142 H   0  0  0  0  0  0  0  0  0  0  0  0
  -13.4952   16.0172  -36.1832 H   0  0  0  0  0  0  0  0  0  0  0  0
  -10.9995   15.7155  -35.4629 H   0  0  0  0  0  0  0  0  0  0  0  0
  -11.7443   14.1123  -35.5412 H   0  0  0  0  0  0  0  0  0  0  0  0
  -13.7432   15.4961  -40.4947 H   0  0  0  0  0  0  0  0  0  0  0  0
  -12.1882   14.7189  -40.6621 H   0  0  0  0  0  0  0  0  0  0  0  0
  -14.4277   14.1600  -37.1410 H   0  0  0  0  0  0  0  0  0  0  0  0
  -15.0690   15.1584  -38.4225 H   0  0  0  0  0  0  0  0  0  0  0  0
  -11.3406   13.2709  -38.8812 H   0  0  0  0  0  0  0  0  0  0  0  0
  -12.2860   13.0286  -37.4316 H   0  0  0  0  0  0  0  0  0  0  0  0
  -11.5712   17.1595  -37.3796 H   0  0  0  0  0  0  0  0  0  0  0  0
   -7.2479   13.7562  -36.9607 H   0  0  0  0  0  0  0  0  0  0  0  0
   -7.6525   14.4864  -38.4988 H   0  0  0  0  0  0  0  0  0  0  0  0
  1 10  2  0  0  0  0
  1 12  1  0  0  0  0
  1 13  1  0  0  0  0
  2  5  1  0  0  0  0
  2  8  1  0  0  0  0
  3  6  1  0  0  0  0
  3  8  1  0  0  0  0
  4  9  1  0  0  0  0
  4 10  1  0  0  0  0
  5 11  1  0  0  0  0
  6 11  1  0  0  0  0
  7  9  1  0  0  0  0
  7 11  1  0  0  0  0
  8  9  1  0  0  0  0
  9 13  1  0  0  0  0
  2 14  1  0  0  0  0
  2 15  1  0  0  0  0
  3 16  1  0  0  0  0
  3 17  1  0  0  0  0
  4 18  1  0  0  0  0
  4 19  1  0  0  0  0
  5 20  1  0  0  0  0
  5 21  1  0  0  0  0
  6 22  1  0  0  0  0
  6 23  1  0  0  0  0
  7 24  1  0  0  0  0
  7 25  1  0  0  0  0
  8 26  1  0  0  0  0
 12 27  1  0  0  0  0
 12 28  1  0  0  0  0
M  END
> <id>
EN300-1073096

> <smiles>
NC1=NCC2(CN3CCC2CC3)O1

> <MDLNUMBER>
MFCD00905739

> <IUPAC Name>
3'H-4-azaspiro[bicyclo[2.2.2]octane-2,2'-[1,4]oxazole]-5'-amine

> <CAS>
138272-87-4

> <Purity>
85

> <URL>
https://www.enaminestore.com/catalog/EN300-1073096

> <ROCS_ShapeQuery>
_x1247relevant_x1083L0AP1_x1305L0BP1_

> <ROCS_TanimotoCombo>
1.034 

> <ROCS_ShapeTanimoto>
0.512 

> <ROCS_ColorTanimoto>
0.522 

> <ROCS_RefTversky>
0.435 

> <ROCS_RefColorTversky>
0.699 

> <ROCS_RefTverskyCombo>
1.134 

> <ROCS_FitTversky>
1.533 

> <ROCS_FitColorTversky>
0.673 

> <ROCS_FitTverskyCombo>
2.206 

> <ROCS_ColorScore>
-6.769

> <ROCS_Overlap>
1070.908

> <ROCS_Rank>
250                 

$$$$
untitled-dbase-42073_0
  -OEChem-06232314403D

 26 28  0     0  0  0  0  0  0999 V2000
   -9.4642   14.6778  -36.7240 C   0  0  0  0  0  0  0  0  0  0  0  0
  -10.2881   13.8719  -37.7507 C   0  0  0  0  0  0  0  0  0  0  0  0
  -10.7789   15.3526  -36.2777 C   0  0  0  0  0  0  0  0  0  0  0  0
  -13.6458   15.7891  -37.7158 C   0  0  0  0  0  0  0  0  0  0  0  0
  -13.1574   14.3479  -39.1591 C   0  0  0  0  0  0  0  0  0  0  0  0
  -12.7991   14.4940  -37.6586 C   0  0  0  0  0  0  0  0  0  0  0  0
  -11.3517   14.9780  -37.6547 C   0  0  0  0  0  0  0  0  0  0  0  0
  -12.7768   15.8941  -39.0517 C   0  0  0  0  0  0  0  0  0  0  0  0
  -13.1693   16.8505  -40.1394 C   0  0  0  0  0  0  0  0  0  0  0  0
  -13.2711   13.4575  -36.7934 N   0  0  0  0  0  0  0  0  0  0  0  0
  -11.3531   16.0089  -38.6875 O   0  0  0  0  0  0  0  0  0  0  0  0
   -8.9507   14.0891  -35.9599 H   0  0  0  0  0  0  0  0  0  0  0  0
   -8.7490   15.3706  -37.1823 H   0  0  0  0  0  0  0  0  0  0  0  0
   -9.8124   13.7525  -38.7283 H   0  0  0  0  0  0  0  0  0  0  0  0
  -10.5929   12.8849  -37.3871 H   0  0  0  0  0  0  0  0  0  0  0  0
  -11.2504   14.8649  -35.4181 H   0  0  0  0  0  0  0  0  0  0  0  0
  -10.6979   16.4236  -36.0712 H   0  0  0  0  0  0  0  0  0  0  0  0
  -14.7297   15.6862  -37.8422 H   0  0  0  0  0  0  0  0  0  0  0  0
  -13.4404   16.5455  -36.9528 H   0  0  0  0  0  0  0  0  0  0  0  0
  -12.4884   13.7325  -39.7675 H   0  0  0  0  0  0  0  0  0  0  0  0
  -14.1974   14.1145  -39.4150 H   0  0  0  0  0  0  0  0  0  0  0  0
  -12.4696   16.7979  -40.9841 H   0  0  0  0  0  0  0  0  0  0  0  0
  -13.1752   17.8856  -39.7731 H   0  0  0  0  0  0  0  0  0  0  0  0
  -14.1737   16.6245  -40.5217 H   0  0  0  0  0  0  0  0  0  0  0  0
  -13.3130   13.7933  -35.8498 H   0  0  0  0  0  0  0  0  0  0  0  0
  -14.1873   13.1668  -37.0784 H   0  0  0  0  0  0  0  0  0  0  0  0
  1  2  1  0  0  0  0
  1  3  1  0  0  0  0
  2  7  1  0  0  0  0
  3  7  1  0  0  0  0
  4  6  1  0  0  0  0
  4  8  1  0  0  0  0
  5  6  1  0  0  0  0
  5  8  1  0  0  0  0
  6  7  1  0  0  0  0
  6 10  1  1  0  0  0
  7 11  1  0  0  0  0
  8  9  1  1  0  0  0
  8 11  1  0  0  0  0
  1 12  1  0  0  0  0
  1 13  1  0  0  0  0
  2 14  1  0  0  0  0
  2 15  1  0  0  0  0
  3 16  1  0  0  0  0
  3 17  1  0  0  0  0
  4 18  1  0  0  0  0
  4 19  1  0  0  0  0
  5 20  1  0  0  0  0
  5 21  1  0  0  0  0
  9 22  1  0  0  0  0
  9 23  1  0  0  0  0
  9 24  1  0  0  0  0
 10 25  1  0  0  0  0
 10 26  1  0  0  0  0
M  END
> <id>
EN300-39870162

> <smiles>
C[C@]1(C[C@@]2(N)C1)OC32CCC3

> <IUPAC Name>
4-methyl-3-oxaspiro[bicyclo[2.1.1]hexane-2,1'-cyclobutan]-1-amine

> <URL>
https://www.enaminestore.com/catalog/EN300-39870162

> <ROCS_ShapeQuery>
_x1247relevant_x1083L0AP1_x1305L0BP1_

> <ROCS_TanimotoCombo>
1.034 

> <ROCS_ShapeTanimoto>
0.513 

> <ROCS_ColorTanimoto>
0.521 

> <ROCS_RefTversky>
0.422 

> <ROCS_RefColorTversky>
0.720 

> <ROCS_RefTverskyCombo>
1.142 

> <ROCS_FitTversky>
1.727 

> <ROCS_FitColorTversky>
0.653 

> <ROCS_FitTverskyCombo>
2.380 

> <ROCS_ColorScore>
-7.000

> <ROCS_Overlap>
1037.173

> <ROCS_Rank>
251                 

$$$$
untitled-dbase-42067_0
  -OEChem-06232314403D

 26 28  0     0  0  0  0  0  0999 V2000
   -9.4642   14.6778  -36.7240 C   0  0  0  0  0  0  0  0  0  0  0  0
  -10.2881   13.8719  -37.7507 C   0  0  0  0  0  0  0  0  0  0  0  0
  -10.7789   15.3526  -36.2777 C   0  0  0  0  0  0  0  0  0  0  0  0
  -13.6458   15.7891  -37.7158 C   0  0  0  0  0  0  0  0  0  0  0  0
  -13.1574   14.3479  -39.1591 C   0  0  0  0  0  0  0  0  0  0  0  0
  -12.7991   14.4940  -37.6586 C   0  0  0  0  0  0  0  0  0  0  0  0
  -11.3517   14.9780  -37.6547 C   0  0  0  0  0  0  0  0  0  0  0  0
  -12.7768   15.8941  -39.0517 C   0  0  0  0  0  0  0  0  0  0  0  0
  -13.1693   16.8505  -40.1394 C   0  0  0  0  0  0  0  0  0  0  0  0
  -13.2711   13.4575  -36.7934 N   0  0  0  0  0  0  0  0  0  0  0  0
  -11.3531   16.0089  -38.6875 O   0  0  0  0  0  0  0  0  0  0  0  0
   -8.9507   14.0891  -35.9599 H   0  0  0  0  0  0  0  0  0  0  0  0
   -8.7490   15.3706  -37.1823 H   0  0  0  0  0  0  0  0  0  0  0  0
   -9.8124   13.7525  -38.7283 H   0  0  0  0  0  0  0  0  0  0  0  0
  -10.5929   12.8849  -37.3871 H   0  0  0  0  0  0  0  0  0  0  0  0
  -11.2504   14.8649  -35.4181 H   0  0  0  0  0  0  0  0  0  0  0  0
  -10.6979   16.4236  -36.0712 H   0  0  0  0  0  0  0  0  0  0  0  0
  -14.7297   15.6862  -37.8422 H   0  0  0  0  0  0  0  0  0  0  0  0
  -13.4404   16.5455  -36.9528 H   0  0  0  0  0  0  0  0  0  0  0  0
  -12.4884   13.7325  -39.7675 H   0  0  0  0  0  0  0  0  0  0  0  0
  -14.1974   14.1145  -39.4150 H   0  0  0  0  0  0  0  0  0  0  0  0
  -12.4696   16.7979  -40.9841 H   0  0  0  0  0  0  0  0  0  0  0  0
  -13.1752   17.8856  -39.7731 H   0  0  0  0  0  0  0  0  0  0  0  0
  -14.1737   16.6245  -40.5217 H   0  0  0  0  0  0  0  0  0  0  0  0
  -13.3130   13.7933  -35.8498 H   0  0  0  0  0  0  0  0  0  0  0  0
  -14.1873   13.1668  -37.0784 H   0  0  0  0  0  0  0  0  0  0  0  0
  1  2  1  0  0  0  0
  1  3  1  0  0  0  0
  2  7  1  0  0  0  0
  3  7  1  0  0  0  0
  4  6  1  0  0  0  0
  4  8  1  0  0  0  0
  5  6  1  0  0  0  0
  5  8  1  0  0  0  0
  6  7  1  0  0  0  0
  6 10  1  1  0  0  0
  7 11  1  0  0  0  0
  8  9  1  1  0  0  0
  8 11  1  0  0  0  0
  1 12  1  0  0  0  0
  1 13  1  0  0  0  0
  2 14  1  0  0  0  0
  2 15  1  0  0  0  0
  3 16  1  0  0  0  0
  3 17  1  0  0  0  0
  4 18  1  0  0  0  0
  4 19  1  0  0  0  0
  5 20  1  0  0  0  0
  5 21  1  0  0  0  0
  9 22  1  0  0  0  0
  9 23  1  0  0  0  0
  9 24  1  0  0  0  0
 10 25  1  0  0  0  0
 10 26  1  0  0  0  0
M  END
> <id>
EN300-39870161

> <smiles>
Cl.C[C@]1(C[C@@]2(N)C1)OC32CCC3

> <IUPAC Name>
4-methyl-3-oxaspiro[bicyclo[2.1.1]hexane-2,1'-cyclobutan]-1-amine hydrochloride

> <URL>
https://www.enaminestore.com/catalog/EN300-39870161

> <ROCS_ShapeQuery>
_x1247relevant_x1083L0AP1_x1305L0BP1_

> <ROCS_TanimotoCombo>
1.034 

> <ROCS_ShapeTanimoto>
0.513 

> <ROCS_ColorTanimoto>
0.521 

> <ROCS_RefTversky>
0.422 

> <ROCS_RefColorTversky>
0.720 

> <ROCS_RefTverskyCombo>
1.142 

> <ROCS_FitTversky>
1.727 

> <ROCS_FitColorTversky>
0.653 

> <ROCS_FitTverskyCombo>
2.380 

> <ROCS_ColorScore>
-7.000

> <ROCS_Overlap>
1037.173

> <ROCS_Rank>
252                 

$$$$
untitled-dbase-36357_0
  -OEChem-06232314403D

 26 28  0     0  0  0  0  0  0999 V2000
   -9.4646   14.6765  -36.7229 C   0  0  0  0  0  0  0  0  0  0  0  0
  -10.2878   13.8724  -37.7515 C   0  0  0  0  0  0  0  0  0  0  0  0
  -10.7789   15.3530  -36.2780 C   0  0  0  0  0  0  0  0  0  0  0  0
  -13.1573   14.3479  -39.1592 C   0  0  0  0  0  0  0  0  0  0  0  0
  -13.6459   15.7886  -37.7155 C   0  0  0  0  0  0  0  0  0  0  0  0
  -12.7987   14.4938  -37.6587 C   0  0  0  0  0  0  0  0  0  0  0  0
  -11.3515   14.9784  -37.6550 C   0  0  0  0  0  0  0  0  0  0  0  0
  -12.7772   15.8942  -39.0515 C   0  0  0  0  0  0  0  0  0  0  0  0
  -13.1703   16.8505  -40.1390 C   0  0  0  0  0  0  0  0  0  0  0  0
  -13.2703   13.4570  -36.7936 N   0  0  0  0  0  0  0  0  0  0  0  0
  -11.3533   16.0094  -38.6877 O   0  0  0  0  0  0  0  0  0  0  0  0
   -8.9528   14.0860  -35.9588 H   0  0  0  0  0  0  0  0  0  0  0  0
   -8.7482   15.3698  -37.1784 H   0  0  0  0  0  0  0  0  0  0  0  0
   -9.8111   13.7534  -38.7285 H   0  0  0  0  0  0  0  0  0  0  0  0
  -10.5980   12.8859  -37.3898 H   0  0  0  0  0  0  0  0  0  0  0  0
  -11.2512   14.8669  -35.4178 H   0  0  0  0  0  0  0  0  0  0  0  0
  -10.6970   16.4240  -36.0724 H   0  0  0  0  0  0  0  0  0  0  0  0
  -12.4881   13.7333  -39.7682 H   0  0  0  0  0  0  0  0  0  0  0  0
  -14.1970   14.1149  -39.4160 H   0  0  0  0  0  0  0  0  0  0  0  0
  -14.7297   15.6847  -37.8408 H   0  0  0  0  0  0  0  0  0  0  0  0
  -13.4405   16.5446  -36.9522 H   0  0  0  0  0  0  0  0  0  0  0  0
  -12.8337   17.8703  -39.9100 H   0  0  0  0  0  0  0  0  0  0  0  0
  -14.2607   16.8783  -40.2664 H   0  0  0  0  0  0  0  0  0  0  0  0
  -12.7277   16.5596  -41.1009 H   0  0  0  0  0  0  0  0  0  0  0  0
  -14.2708   13.4100  -36.8320 H   0  0  0  0  0  0  0  0  0  0  0  0
  -12.8895   12.5753  -37.0804 H   0  0  0  0  0  0  0  0  0  0  0  0
  1  2  1  0  0  0  0
  1  3  1  0  0  0  0
  2  7  1  0  0  0  0
  3  7  1  0  0  0  0
  4  6  1  0  0  0  0
  4  8  1  0  0  0  0
  5  6  1  0  0  0  0
  5  8  1  0  0  0  0
  6  7  1  0  0  0  0
  6 10  1  0  0  0  0
  7 11  1  0  0  0  0
  8  9  1  0  0  0  0
  8 11  1  0  0  0  0
  1 12  1  0  0  0  0
  1 13  1  0  0  0  0
  2 14  1  0  0  0  0
  2 15  1  0  0  0  0
  3 16  1  0  0  0  0
  3 17  1  0  0  0  0
  4 18  1  0  0  0  0
  4 19  1  0  0  0  0
  5 20  1  0  0  0  0
  5 21  1  0  0  0  0
  9 22  1  0  0  0  0
  9 23  1  0  0  0  0
  9 24  1  0  0  0  0
 10 25  1  0  0  0  0
 10 26  1  0  0  0  0
M  END
> <id>
EN300-6501378

> <smiles>
CC1(CC2(N)C1)OC32CCC3

> <MDLNUMBER>
MFCD31719347

> <IUPAC Name>
4-methyl-3-oxaspiro[bicyclo[2.1.1]hexane-2,1'-cyclobutane]-1-amine

> <CAS>
2490420-57-8

> <URL>
https://www.enaminestore.com/catalog/EN300-6501378

> <ROCS_ShapeQuery>
_x1247relevant_x1083L0AP1_x1305L0BP1_

> <ROCS_TanimotoCombo>
1.034 

> <ROCS_ShapeTanimoto>
0.513 

> <ROCS_ColorTanimoto>
0.521 

> <ROCS_RefTversky>
0.422 

> <ROCS_RefColorTversky>
0.720 

> <ROCS_RefTverskyCombo>
1.142 

> <ROCS_FitTversky>
1.727 

> <ROCS_FitColorTversky>
0.653 

> <ROCS_FitTverskyCombo>
2.380 

> <ROCS_ColorScore>
-7.000

> <ROCS_Overlap>
1037.156

> <ROCS_Rank>
253                 

$$$$
untitled-dbase-25531_0
  -OEChem-06232314403D

 26 28  0     0  0  0  0  0  0999 V2000
   -9.4646   14.6765  -36.7229 C   0  0  0  0  0  0  0  0  0  0  0  0
  -10.2878   13.8724  -37.7515 C   0  0  0  0  0  0  0  0  0  0  0  0
  -10.7789   15.3530  -36.2780 C   0  0  0  0  0  0  0  0  0  0  0  0
  -13.1573   14.3479  -39.1592 C   0  0  0  0  0  0  0  0  0  0  0  0
  -13.6459   15.7886  -37.7155 C   0  0  0  0  0  0  0  0  0  0  0  0
  -12.7987   14.4938  -37.6587 C   0  0  0  0  0  0  0  0  0  0  0  0
  -11.3515   14.9784  -37.6550 C   0  0  0  0  0  0  0  0  0  0  0  0
  -12.7772   15.8942  -39.0515 C   0  0  0  0  0  0  0  0  0  0  0  0
  -13.1703   16.8505  -40.1390 C   0  0  0  0  0  0  0  0  0  0  0  0
  -13.2703   13.4570  -36.7936 N   0  0  0  0  0  0  0  0  0  0  0  0
  -11.3533   16.0094  -38.6877 O   0  0  0  0  0  0  0  0  0  0  0  0
   -8.9528   14.0860  -35.9588 H   0  0  0  0  0  0  0  0  0  0  0  0
   -8.7482   15.3698  -37.1784 H   0  0  0  0  0  0  0  0  0  0  0  0
   -9.8111   13.7534  -38.7285 H   0  0  0  0  0  0  0  0  0  0  0  0
  -10.5980   12.8859  -37.3898 H   0  0  0  0  0  0  0  0  0  0  0  0
  -11.2512   14.8669  -35.4178 H   0  0  0  0  0  0  0  0  0  0  0  0
  -10.6970   16.4240  -36.0724 H   0  0  0  0  0  0  0  0  0  0  0  0
  -12.4881   13.7333  -39.7682 H   0  0  0  0  0  0  0  0  0  0  0  0
  -14.1970   14.1149  -39.4160 H   0  0  0  0  0  0  0  0  0  0  0  0
  -14.7297   15.6847  -37.8408 H   0  0  0  0  0  0  0  0  0  0  0  0
  -13.4405   16.5446  -36.9522 H   0  0  0  0  0  0  0  0  0  0  0  0
  -12.8337   17.8703  -39.9100 H   0  0  0  0  0  0  0  0  0  0  0  0
  -14.2607   16.8783  -40.2664 H   0  0  0  0  0  0  0  0  0  0  0  0
  -12.7277   16.5596  -41.1009 H   0  0  0  0  0  0  0  0  0  0  0  0
  -14.2708   13.4100  -36.8320 H   0  0  0  0  0  0  0  0  0  0  0  0
  -12.8895   12.5753  -37.0804 H   0  0  0  0  0  0  0  0  0  0  0  0
  1  2  1  0  0  0  0
  1  3  1  0  0  0  0
  2  7  1  0  0  0  0
  3  7  1  0  0  0  0
  4  6  1  0  0  0  0
  4  8  1  0  0  0  0
  5  6  1  0  0  0  0
  5  8  1  0  0  0  0
  6  7  1  0  0  0  0
  6 10  1  0  0  0  0
  7 11  1  0  0  0  0
  8  9  1  0  0  0  0
  8 11  1  0  0  0  0
  1 12  1  0  0  0  0
  1 13  1  0  0  0  0
  2 14  1  0  0  0  0
  2 15  1  0  0  0  0
  3 16  1  0  0  0  0
  3 17  1  0  0  0  0
  4 18  1  0  0  0  0
  4 19  1  0  0  0  0
  5 20  1  0  0  0  0
  5 21  1  0  0  0  0
  9 22  1  0  0  0  0
  9 23  1  0  0  0  0
  9 24  1  0  0  0  0
 10 25  1  0  0  0  0
 10 26  1  0  0  0  0
M  END
> <id>
EN300-6501377

> <smiles>
Cl.CC1(CC2(N)C1)OC32CCC3

> <MDLNUMBER>
MFCD31719749

> <IUPAC Name>
4-methyl-3-oxaspiro[bicyclo[2.1.1]hexane-2,1'-cyclobutane]-1-amine hydrochloride

> <CAS>
2490420-58-9

> <Purity>
95

> <URL>
https://www.enaminestore.com/catalog/EN300-6501377

> <Saltdate>
Cl

> <ROCS_ShapeQuery>
_x1247relevant_x1083L0AP1_x1305L0BP1_

> <ROCS_TanimotoCombo>
1.034 

> <ROCS_ShapeTanimoto>
0.513 

> <ROCS_ColorTanimoto>
0.521 

> <ROCS_RefTversky>
0.422 

> <ROCS_RefColorTversky>
0.720 

> <ROCS_RefTverskyCombo>
1.142 

> <ROCS_FitTversky>
1.727 

> <ROCS_FitColorTversky>
0.653 

> <ROCS_FitTverskyCombo>
2.380 

> <ROCS_ColorScore>
-7.000

> <ROCS_Overlap>
1037.156

> <ROCS_Rank>
254                 

$$$$
untitled-dbase-6323_0
  -OEChem-06232314403D

 27 29  0     1  0  0  0  0  0999 V2000
   -9.0808   14.4474  -37.1587 C   0  0  0  0  0  0  0  0  0  0  0  0
  -13.4771   16.1738  -37.3079 C   0  0  0  0  0  0  0  0  0  0  0  0
  -12.1418   16.3878  -39.3778 C   0  0  0  0  0  0  0  0  0  0  0  0
  -14.1459   14.9254  -37.9066 C   0  0  0  0  0  0  0  0  0  0  0  0
  -12.8546   15.1431  -39.9275 C   0  0  0  0  0  0  0  0  0  0  0  0
  -11.0395   14.8142  -35.9968 C   0  0  0  0  0  0  0  0  0  0  0  0
  -12.0371   13.7775  -38.1194 C   0  0  0  0  0  0  0  0  0  0  0  0
  -12.0411   16.2820  -37.8442 C   0  0  0  0  0  0  0  0  0  0  0  0
  -11.2866   14.9815  -37.4920 C   0  0  1  0  0  0  0  0  0  0  0  0
   -9.7306   14.2484  -35.9623 N   0  0  0  0  0  0  0  0  0  0  0  0
  -13.2524   14.2151  -38.8481 N   0  0  0  0  0  0  0  0  0  0  0  0
   -7.9166   14.1784  -37.4171 O   0  0  0  0  0  0  0  0  0  0  0  0
   -9.9493   15.0292  -38.0472 O   0  0  0  0  0  0  0  0  0  0  0  0
  -14.0477   17.0695  -37.5820 H   0  0  0  0  0  0  0  0  0  0  0  0
  -13.4802   16.1151  -36.2136 H   0  0  0  0  0  0  0  0  0  0  0  0
  -11.1459   16.4808  -39.8257 H   0  0  0  0  0  0  0  0  0  0  0  0
  -12.7017   17.2894  -39.6546 H   0  0  0  0  0  0  0  0  0  0  0  0
  -14.4535   14.2442  -37.1032 H   0  0  0  0  0  0  0  0  0  0  0  0
  -15.0729   15.2091  -38.4204 H   0  0  0  0  0  0  0  0  0  0  0  0
  -13.7400   15.4430  -40.5019 H   0  0  0  0  0  0  0  0  0  0  0  0
  -12.2038   14.6236  -40.6419 H   0  0  0  0  0  0  0  0  0  0  0  0
  -10.9854   15.7739  -35.4721 H   0  0  0  0  0  0  0  0  0  0  0  0
  -11.7530   14.1659  -35.4820 H   0  0  0  0  0  0  0  0  0  0  0  0
  -11.3874   13.2228  -38.8087 H   0  0  0  0  0  0  0  0  0  0  0  0
  -12.3398   13.0526  -37.3538 H   0  0  0  0  0  0  0  0  0  0  0  0
  -11.5288   17.1657  -37.4483 H   0  0  0  0  0  0  0  0  0  0  0  0
   -9.3326   13.7646  -35.1636 H   0  0  0  0  0  0  0  0  0  0  0  0
  1 10  1  0  0  0  0
  1 12  2  0  0  0  0
  1 13  1  0  0  0  0
  2  4  1  0  0  0  0
  2  8  1  0  0  0  0
  3  5  1  0  0  0  0
  3  8  1  0  0  0  0
  4 11  1  0  0  0  0
  5 11  1  0  0  0  0
  6  9  1  0  0  0  0
  6 10  1  0  0  0  0
  7  9  1  0  0  0  0
  7 11  1  0  0  0  0
  8  9  1  0  0  0  0
  9 13  1  0  0  0  0
  2 14  1  0  0  0  0
  2 15  1  0  0  0  0
  3 16  1  0  0  0  0
  3 17  1  0  0  0  0
  4 18  1  0  0  0  0
  4 19  1  0  0  0  0
  5 20  1  0  0  0  0
  5 21  1  0  0  0  0
  6 22  1  0  0  0  0
  6 23  1  0  0  0  0
  7 24  1  0  0  0  0
  7 25  1  0  0  0  0
  8 26  1  0  0  0  0
 10 27  1  0  0  0  0
M  END
> <id>
EN300-189988

> <smiles>
O=C1NCC2(CN3CCC2CC3)O1

> <MDLNUMBER>
MFCD21266569

> <IUPAC Name>
4-azaspiro[bicyclo[2.2.2]octane-2,2'-[1,4]oxazolidine]-5'-one

> <CAS>
178419-45-9

> <Purity>
95

> <URL>
https://www.enaminestore.com/catalog/EN300-189988

> <ROCS_ShapeQuery>
_x1247relevant_x1083L0AP1_x1305L0BP1_

> <ROCS_TanimotoCombo>
1.034 

> <ROCS_ShapeTanimoto>
0.512 

> <ROCS_ColorTanimoto>
0.521 

> <ROCS_RefTversky>
0.435 

> <ROCS_RefColorTversky>
0.699 

> <ROCS_RefTverskyCombo>
1.134 

> <ROCS_FitTversky>
1.532 

> <ROCS_FitColorTversky>
0.673 

> <ROCS_FitTverskyCombo>
2.205 

> <ROCS_ColorScore>
-6.768

> <ROCS_Overlap>
1071.176

> <ROCS_Rank>
255                 

$$$$
untitled-dbase-28625_0
  -OEChem-06232314403D

 27 29  0     1  0  0  0  0  0999 V2000
   -9.0808   14.4474  -37.1587 C   0  0  0  0  0  0  0  0  0  0  0  0
  -13.4771   16.1738  -37.3079 C   0  0  0  0  0  0  0  0  0  0  0  0
  -12.1418   16.3878  -39.3778 C   0  0  0  0  0  0  0  0  0  0  0  0
  -14.1459   14.9254  -37.9066 C   0  0  0  0  0  0  0  0  0  0  0  0
  -12.8546   15.1431  -39.9275 C   0  0  0  0  0  0  0  0  0  0  0  0
  -11.0395   14.8142  -35.9968 C   0  0  0  0  0  0  0  0  0  0  0  0
  -12.0371   13.7775  -38.1194 C   0  0  0  0  0  0  0  0  0  0  0  0
  -12.0411   16.2820  -37.8442 C   0  0  0  0  0  0  0  0  0  0  0  0
  -11.2866   14.9815  -37.4920 C   0  0  1  0  0  0  0  0  0  0  0  0
   -9.7306   14.2484  -35.9623 N   0  0  0  0  0  0  0  0  0  0  0  0
  -13.2524   14.2151  -38.8481 N   0  0  0  0  0  0  0  0  0  0  0  0
   -7.9166   14.1784  -37.4171 O   0  0  0  0  0  0  0  0  0  0  0  0
   -9.9493   15.0292  -38.0472 O   0  0  0  0  0  0  0  0  0  0  0  0
  -14.0477   17.0695  -37.5820 H   0  0  0  0  0  0  0  0  0  0  0  0
  -13.4802   16.1151  -36.2136 H   0  0  0  0  0  0  0  0  0  0  0  0
  -11.1459   16.4808  -39.8257 H   0  0  0  0  0  0  0  0  0  0  0  0
  -12.7017   17.2894  -39.6546 H   0  0  0  0  0  0  0  0  0  0  0  0
  -14.4535   14.2442  -37.1032 H   0  0  0  0  0  0  0  0  0  0  0  0
  -15.0729   15.2091  -38.4204 H   0  0  0  0  0  0  0  0  0  0  0  0
  -13.7400   15.4430  -40.5019 H   0  0  0  0  0  0  0  0  0  0  0  0
  -12.2038   14.6236  -40.6419 H   0  0  0  0  0  0  0  0  0  0  0  0
  -10.9854   15.7739  -35.4721 H   0  0  0  0  0  0  0  0  0  0  0  0
  -11.7530   14.1659  -35.4820 H   0  0  0  0  0  0  0  0  0  0  0  0
  -11.3874   13.2228  -38.8087 H   0  0  0  0  0  0  0  0  0  0  0  0
  -12.3398   13.0526  -37.3538 H   0  0  0  0  0  0  0  0  0  0  0  0
  -11.5288   17.1657  -37.4483 H   0  0  0  0  0  0  0  0  0  0  0  0
   -9.3326   13.7646  -35.1636 H   0  0  0  0  0  0  0  0  0  0  0  0
  1 10  1  0  0  0  0
  1 12  2  0  0  0  0
  1 13  1  0  0  0  0
  2  4  1  0  0  0  0
  2  8  1  0  0  0  0
  3  5  1  0  0  0  0
  3  8  1  0  0  0  0
  4 11  1  0  0  0  0
  5 11  1  0  0  0  0
  6  9  1  0  0  0  0
  6 10  1  0  0  0  0
  7  9  1  0  0  0  0
  7 11  1  0  0  0  0
  8  9  1  0  0  0  0
  9 13  1  0  0  0  0
  2 14  1  0  0  0  0
  2 15  1  0  0  0  0
  3 16  1  0  0  0  0
  3 17  1  0  0  0  0
  4 18  1  0  0  0  0
  4 19  1  0  0  0  0
  5 20  1  0  0  0  0
  5 21  1  0  0  0  0
  6 22  1  0  0  0  0
  6 23  1  0  0  0  0
  7 24  1  0  0  0  0
  7 25  1  0  0  0  0
  8 26  1  0  0  0  0
 10 27  1  0  0  0  0
M  END
> <id>
EN300-190274

> <smiles>
Cl.O=C1NCC2(CN3CCC2CC3)O1

> <MDLNUMBER>
MFCD24387947

> <IUPAC Name>
4-azaspiro[bicyclo[2.2.2]octane-2,2'-[1,4]oxazolidine]-5'-one hydrochloride

> <CAS>
178419-40-4

> <URL>
https://www.enaminestore.com/catalog/EN300-190274

> <Saltdate>
Cl

> <ROCS_ShapeQuery>
_x1247relevant_x1083L0AP1_x1305L0BP1_

> <ROCS_TanimotoCombo>
1.034 

> <ROCS_ShapeTanimoto>
0.512 

> <ROCS_ColorTanimoto>
0.521 

> <ROCS_RefTversky>
0.435 

> <ROCS_RefColorTversky>
0.699 

> <ROCS_RefTverskyCombo>
1.134 

> <ROCS_FitTversky>
1.532 

> <ROCS_FitColorTversky>
0.673 

> <ROCS_FitTverskyCombo>
2.205 

> <ROCS_ColorScore>
-6.768

> <ROCS_Overlap>
1071.176

> <ROCS_Rank>
256                 

$$$$
untitled-dbase-40512_1
  -OEChem-06232314403D

 33 35  0     1  0  0  0  0  0999 V2000
   -8.9492   14.0921  -36.8193 C   0  0  0  0  0  0  0  0  0  0  0  0
  -13.9373   15.7855  -37.4352 C   0  0  0  0  0  0  0  0  0  0  0  0
  -13.8923   14.2917  -37.7621 C   0  0  0  0  0  0  0  0  0  0  0  0
   -9.3976   15.2259  -37.7212 C   0  0  0  0  0  0  0  0  0  0  0  0
  -11.5583   16.5165  -38.0647 C   0  0  0  0  0  0  0  0  0  0  0  0
  -11.4828   14.0257  -38.6067 C   0  0  0  0  0  0  0  0  0  0  0  0
  -10.0914   13.9186  -35.8322 C   0  0  0  0  0  0  0  0  0  0  0  0
  -13.0406   16.4370  -38.4912 C   0  0  1  0  0  0  0  0  0  0  0  0
  -12.9727   14.1931  -38.9821 C   0  0  2  0  0  0  0  0  0  0  0  0
  -10.9272   15.1514  -37.6855 C   0  0  0  0  0  0  0  0  0  0  0  0
  -14.2994   15.6471  -40.4341 C   0  0  0  0  0  0  0  0  0  0  0  0
  -11.1681   14.8224  -36.2611 N   0  0  0  0  0  0  0  0  0  0  0  0
  -13.0841   15.5093  -39.6358 N   0  0  0  0  0  0  0  0  0  0  0  0
   -8.8114   13.1752  -37.4038 H   0  0  0  0  0  0  0  0  0  0  0  0
   -8.0015   14.3234  -36.3234 H   0  0  0  0  0  0  0  0  0  0  0  0
  -14.9686   16.1459  -37.5340 H   0  0  0  0  0  0  0  0  0  0  0  0
  -13.6222   16.0042  -36.4110 H   0  0  0  0  0  0  0  0  0  0  0  0
  -13.6012   13.6517  -36.9273 H   0  0  0  0  0  0  0  0  0  0  0  0
  -14.9044   13.9687  -38.0397 H   0  0  0  0  0  0  0  0  0  0  0  0
   -9.0444   16.1792  -37.3056 H   0  0  0  0  0  0  0  0  0  0  0  0
   -8.9829   15.1318  -38.7301 H   0  0  0  0  0  0  0  0  0  0  0  0
  -10.9859   16.9548  -38.8949 H   0  0  0  0  0  0  0  0  0  0  0  0
  -11.4589   17.2226  -37.2294 H   0  0  0  0  0  0  0  0  0  0  0  0
  -11.3406   13.0359  -38.1545 H   0  0  0  0  0  0  0  0  0  0  0  0
  -10.8989   14.0091  -39.5381 H   0  0  0  0  0  0  0  0  0  0  0  0
  -10.4363   12.8787  -35.8253 H   0  0  0  0  0  0  0  0  0  0  0  0
   -9.7805   14.1743  -34.8145 H   0  0  0  0  0  0  0  0  0  0  0  0
  -13.3849   17.4445  -38.7517 H   0  0  0  0  0  0  0  0  0  0  0  0
  -13.2622   13.3689  -39.6443 H   0  0  0  0  0  0  0  0  0  0  0  0
  -14.2731   14.9317  -41.2693 H   0  0  0  0  0  0  0  0  0  0  0  0
  -15.1772   15.4424  -39.8037 H   0  0  0  0  0  0  0  0  0  0  0  0
  -14.3634   16.6712  -40.8305 H   0  0  0  0  0  0  0  0  0  0  0  0
  -12.0697   14.4015  -36.0801 H   0  0  0  0  0  0  0  0  0  0  0  0
  1  4  1  0  0  0  0
  1  7  1  0  0  0  0
  2  3  1  0  0  0  0
  2  8  1  0  0  0  0
  3  9  1  0  0  0  0
  4 10  1  0  0  0  0
  5  8  1  0  0  0  0
  5 10  1  0  0  0  0
  6  9  1  0  0  0  0
  6 10  1  0  0  0  0
  7 12  1  0  0  0  0
  8 13  1  0  0  0  0
  9 13  1  0  0  0  0
 10 12  1  0  0  0  0
 11 13  1  0  0  0  0
  1 14  1  0  0  0  0
  1 15  1  0  0  0  0
  2 16  1  0  0  0  0
  2 17  1  0  0  0  0
  3 18  1  0  0  0  0
  3 19  1  0  0  0  0
  4 20  1  0  0  0  0
  4 21  1  0  0  0  0
  5 22  1  0  0  0  0
  5 23  1  0  0  0  0
  6 24  1  0  0  0  0
  6 25  1  0  0  0  0
  7 26  1  0  0  0  0
  7 27  1  0  0  0  0
  8 28  1  0  0  0  0
  9 29  1  0  0  0  0
 11 30  1  0  0  0  0
 11 31  1  0  0  0  0
 11 32  1  0  0  0  0
 12 33  1  0  0  0  0
M  END
> <id>
EN300-27114707

> <smiles>
Cl.Cl.CN1C2CCC1CC3(CCCN3)C2

> <MDLNUMBER>
MFCD32853135

> <IUPAC Name>
8-methyl-8-azaspiro[bicyclo[3.2.1]octane-3,2'-pyrrolidine] dihydrochloride

> <CAS>
2649011-63-0

> <Purity>
95

> <URL>
https://www.enaminestore.com/catalog/EN300-27114707

> <ROCS_ShapeQuery>
_x1247relevant_x1083L0AP1_x1305L0BP1_

> <ROCS_TanimotoCombo>
1.033 

> <ROCS_ShapeTanimoto>
0.520 

> <ROCS_ColorTanimoto>
0.514 

> <ROCS_RefTversky>
0.436 

> <ROCS_RefColorTversky>
0.683 

> <ROCS_RefTverskyCombo>
1.119 

> <ROCS_FitTversky>
1.581 

> <ROCS_FitColorTversky>
0.675 

> <ROCS_FitTverskyCombo>
2.256 

> <ROCS_ColorScore>
-6.601

> <ROCS_Overlap>
1074.441

> <ROCS_Rank>
257                 

$$$$
untitled-dbase-40513_1
  -OEChem-06232314403D

 33 35  0     1  0  0  0  0  0999 V2000
   -8.9492   14.0921  -36.8193 C   0  0  0  0  0  0  0  0  0  0  0  0
  -13.9373   15.7855  -37.4352 C   0  0  0  0  0  0  0  0  0  0  0  0
  -13.8923   14.2917  -37.7621 C   0  0  0  0  0  0  0  0  0  0  0  0
   -9.3976   15.2259  -37.7212 C   0  0  0  0  0  0  0  0  0  0  0  0
  -11.5583   16.5165  -38.0647 C   0  0  0  0  0  0  0  0  0  0  0  0
  -11.4828   14.0257  -38.6067 C   0  0  0  0  0  0  0  0  0  0  0  0
  -10.0914   13.9186  -35.8322 C   0  0  0  0  0  0  0  0  0  0  0  0
  -13.0406   16.4370  -38.4912 C   0  0  1  0  0  0  0  0  0  0  0  0
  -12.9727   14.1931  -38.9821 C   0  0  2  0  0  0  0  0  0  0  0  0
  -10.9272   15.1514  -37.6855 C   0  0  0  0  0  0  0  0  0  0  0  0
  -14.2994   15.6471  -40.4341 C   0  0  0  0  0  0  0  0  0  0  0  0
  -11.1681   14.8224  -36.2611 N   0  0  0  0  0  0  0  0  0  0  0  0
  -13.0841   15.5093  -39.6358 N   0  0  0  0  0  0  0  0  0  0  0  0
   -8.8114   13.1752  -37.4038 H   0  0  0  0  0  0  0  0  0  0  0  0
   -8.0015   14.3234  -36.3234 H   0  0  0  0  0  0  0  0  0  0  0  0
  -14.9686   16.1459  -37.5340 H   0  0  0  0  0  0  0  0  0  0  0  0
  -13.6222   16.0042  -36.4110 H   0  0  0  0  0  0  0  0  0  0  0  0
  -13.6012   13.6517  -36.9273 H   0  0  0  0  0  0  0  0  0  0  0  0
  -14.9044   13.9687  -38.0397 H   0  0  0  0  0  0  0  0  0  0  0  0
   -9.0444   16.1792  -37.3056 H   0  0  0  0  0  0  0  0  0  0  0  0
   -8.9829   15.1318  -38.7301 H   0  0  0  0  0  0  0  0  0  0  0  0
  -10.9859   16.9548  -38.8949 H   0  0  0  0  0  0  0  0  0  0  0  0
  -11.4589   17.2226  -37.2294 H   0  0  0  0  0  0  0  0  0  0  0  0
  -11.3406   13.0359  -38.1545 H   0  0  0  0  0  0  0  0  0  0  0  0
  -10.8989   14.0091  -39.5381 H   0  0  0  0  0  0  0  0  0  0  0  0
  -10.4363   12.8787  -35.8253 H   0  0  0  0  0  0  0  0  0  0  0  0
   -9.7805   14.1743  -34.8145 H   0  0  0  0  0  0  0  0  0  0  0  0
  -13.3849   17.4445  -38.7517 H   0  0  0  0  0  0  0  0  0  0  0  0
  -13.2622   13.3689  -39.6443 H   0  0  0  0  0  0  0  0  0  0  0  0
  -14.2731   14.9317  -41.2693 H   0  0  0  0  0  0  0  0  0  0  0  0
  -15.1772   15.4424  -39.8037 H   0  0  0  0  0  0  0  0  0  0  0  0
  -14.3634   16.6712  -40.8305 H   0  0  0  0  0  0  0  0  0  0  0  0
  -12.0697   14.4015  -36.0801 H   0  0  0  0  0  0  0  0  0  0  0  0
  1  4  1  0  0  0  0
  1  7  1  0  0  0  0
  2  3  1  0  0  0  0
  2  8  1  0  0  0  0
  3  9  1  0  0  0  0
  4 10  1  0  0  0  0
  5  8  1  0  0  0  0
  5 10  1  0  0  0  0
  6  9  1  0  0  0  0
  6 10  1  0  0  0  0
  7 12  1  0  0  0  0
  8 13  1  0  0  0  0
  9 13  1  0  0  0  0
 10 12  1  0  0  0  0
 11 13  1  0  0  0  0
  1 14  1  0  0  0  0
  1 15  1  0  0  0  0
  2 16  1  0  0  0  0
  2 17  1  0  0  0  0
  3 18  1  0  0  0  0
  3 19  1  0  0  0  0
  4 20  1  0  0  0  0
  4 21  1  0  0  0  0
  5 22  1  0  0  0  0
  5 23  1  0  0  0  0
  6 24  1  0  0  0  0
  6 25  1  0  0  0  0
  7 26  1  0  0  0  0
  7 27  1  0  0  0  0
  8 28  1  0  0  0  0
  9 29  1  0  0  0  0
 11 30  1  0  0  0  0
 11 31  1  0  0  0  0
 11 32  1  0  0  0  0
 12 33  1  0  0  0  0
M  END
> <id>
EN300-27114708

> <smiles>
CN1C2CCC1CC3(CCCN3)C2

> <MDLNUMBER>
MFCD32853136

> <IUPAC Name>
8-methyl-8-azaspiro[bicyclo[3.2.1]octane-3,2'-pyrrolidine]

> <CAS>
1502182-86-6

> <URL>
https://www.enaminestore.com/catalog/EN300-27114708

> <ROCS_ShapeQuery>
_x1247relevant_x1083L0AP1_x1305L0BP1_

> <ROCS_TanimotoCombo>
1.033 

> <ROCS_ShapeTanimoto>
0.520 

> <ROCS_ColorTanimoto>
0.514 

> <ROCS_RefTversky>
0.436 

> <ROCS_RefColorTversky>
0.683 

> <ROCS_RefTverskyCombo>
1.119 

> <ROCS_FitTversky>
1.581 

> <ROCS_FitColorTversky>
0.675 

> <ROCS_FitTverskyCombo>
2.256 

> <ROCS_ColorScore>
-6.601

> <ROCS_Overlap>
1074.441

> <ROCS_Rank>
258                 

$$$$
untitled-dbase-34689_0
  -OEChem-06232314403D

 19 21  0     1  0  0  0  0  0999 V2000
   -9.2330   15.1496  -36.7214 C   0  0  0  0  0  0  0  0  0  0  0  0
  -10.1093   16.1094  -37.2275 C   0  0  0  0  0  0  0  0  0  0  0  0
   -9.6526   13.8148  -36.6503 C   0  0  0  0  0  0  0  0  0  0  0  0
  -11.3508   15.6752  -37.6211 C   0  0  0  0  0  0  0  0  0  0  0  0
  -11.6738   14.3229  -37.5086 C   0  0  0  0  0  0  0  0  0  0  0  0
  -13.0403   14.5382  -39.5365 C   0  0  0  0  0  0  0  0  0  0  0  0
  -12.7058   16.0127  -39.7063 C   0  0  0  0  0  0  0  0  0  0  0  0
  -12.5353   16.3578  -38.2255 C   0  0  1  0  0  0  0  0  0  0  0  0
  -13.0538   14.1791  -38.0673 C   0  0  2  0  0  0  0  0  0  0  0  0
  -10.8697   13.3623  -37.0421 N   0  0  0  0  0  0  0  0  0  0  0  0
  -13.2325   13.7538  -40.4530 O   0  0  0  0  0  0  0  0  0  0  0  0
  -13.5847   15.4999  -37.6743 O   0  0  0  0  0  0  0  0  0  0  0  0
   -8.2384   15.4304  -36.3908 H   0  0  0  0  0  0  0  0  0  0  0  0
   -9.8166   17.1495  -37.3060 H   0  0  0  0  0  0  0  0  0  0  0  0
   -8.9846   13.0520  -36.2620 H   0  0  0  0  0  0  0  0  0  0  0  0
  -11.7992   16.1625  -40.2955 H   0  0  0  0  0  0  0  0  0  0  0  0
  -13.5713   16.5177  -40.1431 H   0  0  0  0  0  0  0  0  0  0  0  0
  -12.6835   17.4010  -37.9418 H   0  0  0  0  0  0  0  0  0  0  0  0
  -13.7070   13.3748  -37.7382 H   0  0  0  0  0  0  0  0  0  0  0  0
  1  2  1  0  0  0  0
  1  3  2  0  0  0  0
  2  4  2  0  0  0  0
  3 10  1  0  0  0  0
  4  5  1  0  0  0  0
  4  8  1  0  0  0  0
  5  9  1  0  0  0  0
  5 10  2  0  0  0  0
  6  7  1  0  0  0  0
  6  9  1  0  0  0  0
  6 11  2  0  0  0  0
  7  8  1  0  0  0  0
  8 12  1  0  0  0  0
  9 12  1  0  0  0  0
  1 13  1  0  0  0  0
  2 14  1  0  0  0  0
  3 15  1  0  0  0  0
  7 16  1  0  0  0  0
  7 17  1  0  0  0  0
  8 18  1  0  0  0  0
  9 19  1  0  0  0  0
M  END
> <id>
EN300-37468732

> <smiles>
O=C1CC2OC1C=3N=CC=CC23

> <IUPAC Name>
11-oxa-3-azatricyclo[6.2.1.0,2,7]undeca-2,4,6-trien-10-one

> <URL>
https://www.enaminestore.com/catalog/EN300-37468732

> <ROCS_ShapeQuery>
_x1247relevant_x1083L0AP1_x1305L0BP1_

> <ROCS_TanimotoCombo>
1.033 

> <ROCS_ShapeTanimoto>
0.518 

> <ROCS_ColorTanimoto>
0.515 

> <ROCS_RefTversky>
0.435 

> <ROCS_RefColorTversky>
0.705 

> <ROCS_RefTverskyCombo>
1.139 

> <ROCS_FitTversky>
1.590 

> <ROCS_FitColorTversky>
0.656 

> <ROCS_FitTverskyCombo>
2.246 

> <ROCS_ColorScore>
-6.839

> <ROCS_Overlap>
1070.120

> <ROCS_Rank>
259                 

$$$$
untitled-dbase-32293_0
  -OEChem-06232314403D

 21 23  0     1  0  0  0  0  0999 V2000
  -11.1790   14.5555  -35.8949 C   0  0  0  0  0  0  0  0  0  0  0  0
   -9.8369   14.1857  -35.7701 C   0  0  0  0  0  0  0  0  0  0  0  0
   -9.4250   14.7567  -38.0910 C   0  0  0  0  0  0  0  0  0  0  0  0
  -11.6513   15.0266  -37.1160 C   0  0  0  0  0  0  0  0  0  0  0  0
  -10.7600   15.1194  -38.2028 C   0  0  0  0  0  0  0  0  0  0  0  0
   -8.9656   14.2856  -36.8621 C   0  0  0  0  0  0  0  0  0  0  0  0
  -13.8853   14.6962  -39.3053 C   0  0  0  0  0  0  0  0  0  0  0  0
  -11.4358   15.6602  -39.4437 C   0  0  0  0  0  0  0  0  0  0  0  0
  -13.0634   15.4904  -37.5390 C   0  0  1  0  0  0  0  0  0  0  0  0
  -12.9175   15.8735  -39.0548 C   0  0  2  0  0  0  0  0  0  0  0  0
  -14.0130   14.4708  -37.9692 N   0  0  0  0  0  0  0  0  0  0  0  0
  -14.3658   14.1491  -40.2712 O   0  0  0  0  0  0  0  0  0  0  0  0
   -7.6823   13.9274  -36.7230 F   0  0  0  0  0  0  0  0  0  0  0  0
  -11.8473   14.4726  -35.0433 H   0  0  0  0  0  0  0  0  0  0  0  0
   -9.4659   13.8172  -34.8177 H   0  0  0  0  0  0  0  0  0  0  0  0
   -8.7506   14.8367  -38.9370 H   0  0  0  0  0  0  0  0  0  0  0  0
  -10.9783   16.6177  -39.7147 H   0  0  0  0  0  0  0  0  0  0  0  0
  -11.3405   14.9599  -40.2795 H   0  0  0  0  0  0  0  0  0  0  0  0
  -13.5246   16.2620  -36.9141 H   0  0  0  0  0  0  0  0  0  0  0  0
  -13.3302   16.8458  -39.3417 H   0  0  0  0  0  0  0  0  0  0  0  0
  -14.5398   13.7618  -37.4777 H   0  0  0  0  0  0  0  0  0  0  0  0
  1  2  1  0  0  0  0
  1  4  2  0  0  0  0
  2  6  2  0  0  0  0
  3  5  2  0  0  0  0
  3  6  1  0  0  0  0
  4  5  1  0  0  0  0
  4  9  1  0  0  0  0
  5  8  1  0  0  0  0
  6 13  1  0  0  0  0
  7 10  1  0  0  0  0
  7 11  1  0  0  0  0
  7 12  2  0  0  0  0
  8 10  1  0  0  0  0
  9 10  1  0  0  0  0
  9 11  1  0  0  0  0
  1 14  1  0  0  0  0
  2 15  1  0  0  0  0
  3 16  1  0  0  0  0
  8 17  1  0  0  0  0
  8 18  1  0  0  0  0
  9 19  1  0  0  0  0
 10 20  1  0  0  0  0
 11 21  1  0  0  0  0
M  END
> <id>
EN300-1278276

> <smiles>
FC=1C=CC=2C3NC(=O)C3CC2C1

> <IUPAC Name>
5-fluoro-1H,2H,2aH,3H,7bH-indeno[1,2-b]azet-2-one

> <CAS>
1598431-00-5

> <URL>
https://www.enaminestore.com/catalog/EN300-1278276

> <ROCS_ShapeQuery>
_x1247relevant_x1083L0AP1_x1305L0BP1_

> <ROCS_TanimotoCombo>
1.033 

> <ROCS_ShapeTanimoto>
0.501 

> <ROCS_ColorTanimoto>
0.532 

> <ROCS_RefTversky>
0.429 

> <ROCS_RefColorTversky>
0.652 

> <ROCS_RefTverskyCombo>
1.081 

> <ROCS_FitTversky>
1.513 

> <ROCS_FitColorTversky>
0.742 

> <ROCS_FitTverskyCombo>
2.255 

> <ROCS_ColorScore>
-6.260

> <ROCS_Overlap>
1055.614

> <ROCS_Rank>
260                 

$$$$
untitled-dbase-9569_2
  -OEChem-06232314403D

 26 28  0     1  0  0  0  0  0999 V2000
  -11.4099   16.2926  -38.7203 C   0  0  0  0  0  0  0  0  0  0  0  0
  -10.0384   14.4124  -35.6617 C   0  0  0  0  0  0  0  0  0  0  0  0
   -9.3972   13.6509  -36.8241 C   0  0  0  0  0  0  0  0  0  0  0  0
  -10.8469   15.5580  -36.2751 C   0  0  0  0  0  0  0  0  0  0  0  0
   -9.6452   14.4977  -38.0673 C   0  0  0  0  0  0  0  0  0  0  0  0
  -13.9421   15.7870  -39.1681 C   0  0  0  0  0  0  0  0  0  0  0  0
  -14.2243   15.5705  -37.6852 C   0  0  0  0  0  0  0  0  0  0  0  0
  -12.4859   15.3974  -39.3604 C   0  0  2  0  0  0  0  0  0  0  0  0
  -12.2591   14.3967  -38.1973 C   0  0  1  0  0  0  0  0  0  0  0  0
  -10.9714   15.1775  -37.7450 C   0  0  0  0  0  0  0  0  0  0  0  0
  -11.0481   17.4341  -38.9137 O   0  0  0  0  0  0  0  0  0  0  0  0
  -13.4149   14.4448  -37.3215 O   0  0  0  0  0  0  0  0  0  0  0  0
  -10.6693   13.7532  -35.0311 H   0  0  0  0  0  0  0  0  0  0  0  0
   -9.2464   14.8179  -34.9969 H   0  0  0  0  0  0  0  0  0  0  0  0
   -8.3241   13.4624  -36.6559 H   0  0  0  0  0  0  0  0  0  0  0  0
   -9.8840   12.6655  -36.9338 H   0  0  0  0  0  0  0  0  0  0  0  0
  -11.8353   15.5910  -35.7966 H   0  0  0  0  0  0  0  0  0  0  0  0
  -10.3616   16.5278  -36.1130 H   0  0  0  0  0  0  0  0  0  0  0  0
   -8.8433   15.2285  -38.1781 H   0  0  0  0  0  0  0  0  0  0  0  0
   -9.6833   13.8794  -38.9617 H   0  0  0  0  0  0  0  0  0  0  0  0
  -14.5740   15.1113  -39.7574 H   0  0  0  0  0  0  0  0  0  0  0  0
  -14.1586   16.8112  -39.4858 H   0  0  0  0  0  0  0  0  0  0  0  0
  -13.9135   16.4305  -37.0832 H   0  0  0  0  0  0  0  0  0  0  0  0
  -15.2780   15.3539  -37.4900 H   0  0  0  0  0  0  0  0  0  0  0  0
  -12.2126   15.0416  -40.3577 H   0  0  0  0  0  0  0  0  0  0  0  0
  -12.0762   13.3685  -38.5230 H   0  0  0  0  0  0  0  0  0  0  0  0
  1  8  1  0  0  0  0
  1 10  1  0  0  0  0
  1 11  2  0  0  0  0
  2  3  1  0  0  0  0
  2  4  1  0  0  0  0
  3  5  1  0  0  0  0
  4 10  1  0  0  0  0
  5 10  1  0  0  0  0
  6  7  1  0  0  0  0
  6  8  1  6  0  0  0
  7 12  1  0  0  0  0
  8  9  1  0  0  0  0
  9 10  1  0  0  0  0
  9 12  1  6  0  0  0
  2 13  1  0  0  0  0
  2 14  1  0  0  0  0
  3 15  1  0  0  0  0
  3 16  1  0  0  0  0
  4 17  1  0  0  0  0
  4 18  1  0  0  0  0
  5 19  1  0  0  0  0
  5 20  1  0  0  0  0
  6 21  1  0  0  0  0
  6 22  1  0  0  0  0
  7 23  1  0  0  0  0
  7 24  1  0  0  0  0
  8 25  1  0  0  0  0
  9 26  1  0  0  0  0
M  END
> <id>
EN300-331977

> <smiles>
O=C1[C@@H]2CCO[C@@H]2C31CCCC3 |&1:2,6,r|

> <MDLNUMBER>
MFCD28118626

> <IUPAC Name>
rac-(1R,5S)-4-oxaspiro[bicyclo[3.2.0]heptane-6,1'-cyclopentane]-7-one

> <CAS>
1932806-74-0

> <Purity>
95

> <URL>
https://www.enaminestore.com/catalog/EN300-331977

> <ROCS_ShapeQuery>
_x1247relevant_x1083L0AP1_x1305L0BP1_

> <ROCS_TanimotoCombo>
1.033 

> <ROCS_ShapeTanimoto>
0.492 

> <ROCS_ColorTanimoto>
0.541 

> <ROCS_RefTversky>
0.415 

> <ROCS_RefColorTversky>
0.662 

> <ROCS_RefTverskyCombo>
1.077 

> <ROCS_FitTversky>
1.604 

> <ROCS_FitColorTversky>
0.747 

> <ROCS_FitTverskyCombo>
2.351 

> <ROCS_ColorScore>
-6.362

> <ROCS_Overlap>
1020.341

> <ROCS_Rank>
261                 

$$$$
untitled-dbase-21993_0
  -OEChem-06232314403D

 31 32  0     1  0  0  0  0  0999 V2000
  -11.0728   15.3533  -38.2099 C   0  0  1  0  0  0  0  0  0  0  0  0
  -11.8707   14.5645  -37.1394 C   0  0  1  0  0  0  0  0  0  0  0  0
  -13.2652   15.9019  -39.4281 C   0  0  2  0  0  0  0  0  0  0  0  0
  -11.9520   16.4383  -38.8472 C   0  0  0  0  0  0  0  0  0  0  0  0
   -9.7816   15.9188  -37.6062 C   0  0  0  0  0  0  0  0  0  0  0  0
  -13.1735   14.0108  -37.7231 C   0  0  0  0  0  0  0  0  0  0  0  0
  -10.9956   13.4801  -36.5030 C   0  0  0  0  0  0  0  0  0  0  0  0
  -14.0169   15.1037  -38.3621 C   0  0  0  0  0  0  0  0  0  0  0  0
   -8.9332   14.8330  -36.9676 C   0  0  0  0  0  0  0  0  0  0  0  0
   -9.7130   14.0541  -35.9276 C   0  0  0  0  0  0  0  0  0  0  0  0
  -13.0706   15.1203  -40.7265 C   0  0  0  0  0  0  0  0  0  0  0  0
  -10.7016   14.4801  -39.1937 F   0  0  0  0  0  0  0  0  0  0  0  0
  -12.2162   15.4405  -36.1442 F   0  0  0  0  0  0  0  0  0  0  0  0
  -14.0406   16.9817  -39.7591 F   0  0  0  0  0  0  0  0  0  0  0  0
  -12.2561   17.3663  -37.8964 F   0  0  0  0  0  0  0  0  0  0  0  0
  -11.2596   17.0972  -39.8090 F   0  0  0  0  0  0  0  0  0  0  0  0
  -10.0815   16.8549  -36.6694 F   0  0  0  0  0  0  0  0  0  0  0  0
   -9.0561   16.5476  -38.5634 F   0  0  0  0  0  0  0  0  0  0  0  0
  -12.8999   13.0485  -38.6381 F   0  0  0  0  0  0  0  0  0  0  0  0
  -13.8970   13.4109  -36.7438 F   0  0  0  0  0  0  0  0  0  0  0  0
  -11.6804   12.8438  -35.5216 F   0  0  0  0  0  0  0  0  0  0  0  0
  -10.6834   12.5391  -37.4308 F   0  0  0  0  0  0  0  0  0  0  0  0
  -14.4152   15.9611  -37.3812 F   0  0  0  0  0  0  0  0  0  0  0  0
  -15.1484   14.5701  -38.8814 F   0  0  0  0  0  0  0  0  0  0  0  0
   -7.8316   15.3815  -36.4026 F   0  0  0  0  0  0  0  0  0  0  0  0
   -8.4949   13.9815  -37.9299 F   0  0  0  0  0  0  0  0  0  0  0  0
  -10.0152   14.8735  -34.8880 F   0  0  0  0  0  0  0  0  0  0  0  0
   -8.9457   13.0573  -35.4266 F   0  0  0  0  0  0  0  0  0  0  0  0
  -12.2684   14.0668  -40.5124 F   0  0  0  0  0  0  0  0  0  0  0  0
  -14.2542   14.6810  -41.1796 F   0  0  0  0  0  0  0  0  0  0  0  0
  -12.5137   15.9089  -41.6578 F   0  0  0  0  0  0  0  0  0  0  0  0
  1  2  1  0  0  0  0
  1  4  1  0  0  0  0
  1  5  1  0  0  0  0
  1 12  1  0  0  0  0
  2  6  1  0  0  0  0
  2  7  1  0  0  0  0
  2 13  1  0  0  0  0
  3  4  1  0  0  0  0
  3  8  1  0  0  0  0
  3 11  1  0  0  0  0
  3 14  1  0  0  0  0
  4 15  1  0  0  0  0
  4 16  1  0  0  0  0
  5  9  1  0  0  0  0
  5 17  1  0  0  0  0
  5 18  1  0  0  0  0
  6  8  1  0  0  0  0
  6 19  1  0  0  0  0
  6 20  1  0  0  0  0
  7 10  1  0  0  0  0
  7 21  1  0  0  0  0
  7 22  1  0  0  0  0
  8 23  1  0  0  0  0
  8 24  1  0  0  0  0
  9 10  1  0  0  0  0
  9 25  1  0  0  0  0
  9 26  1  0  0  0  0
 10 27  1  0  0  0  0
 10 28  1  0  0  0  0
 11 29  1  0  0  0  0
 11 30  1  0  0  0  0
 11 31  1  0  0  0  0
M  END
> <id>
EN300-6739856

> <smiles>
FC(F)(F)C1(F)C(F)(F)C(F)(F)C2(F)C(F)(F)C(F)(F)C(F)(F)C(F)(F)C2(F)C1(F)F.FC(F)(F)C1(F)C(F)(F)C(F)(F)C(F)(F)C2(F)C(F)(F)C(F)(F)C(F)(F)C(F)(F)C12F

> <MDLNUMBER>
MFCD32640294

> <IUPAC Name>
1,1,2,2,3,3,4,4,4a,5,5,6,6,7,7,8,8a-heptadecafluoro-8-(trifluoromethyl)-decahydronaphthalene; 1,1,2,2,3,3,4,4,4a,5,5,6,6,7,8,8,8a-heptadecafluoro-7-(trifluoromethyl)-decahydronaphthalene

> <CAS>
51294-16-7

> <Purity>
95

> <URL>
https://www.enaminestore.com/catalog/EN300-6739856

> <Saltdate>
FC(F)(F)C1(F)C(F)(F)C(F)(F)C(F)(F)C2(F)C(F)(F)C(F)(F)C(F)(F)C(F)(F)C12F

> <ROCS_ShapeQuery>
_x1247relevant_x1083L0AP1_x1305L0BP1_

> <ROCS_TanimotoCombo>
1.033 

> <ROCS_ShapeTanimoto>
0.649 

> <ROCS_ColorTanimoto>
0.384 

> <ROCS_RefTversky>
0.652 

> <ROCS_RefColorTversky>
0.349 

> <ROCS_RefTverskyCombo>
1.001 

> <ROCS_FitTversky>
1.000 

> <ROCS_FitColorTversky>
1.357 

> <ROCS_FitTverskyCombo>
2.357 

> <ROCS_ColorScore>
-3.237

> <ROCS_Overlap>
1639.768

> <ROCS_Rank>
262                 

$$$$
untitled-dbase-2618_2
  -OEChem-06232314403D

 26 28  0     1  0  0  0  0  0999 V2000
  -11.4099   16.2928  -38.7189 C   0  0  0  0  0  0  0  0  0  0  0  0
  -10.0253   14.4199  -35.6612 C   0  0  0  0  0  0  0  0  0  0  0  0
   -9.4024   13.6467  -36.8253 C   0  0  0  0  0  0  0  0  0  0  0  0
  -10.8491   15.5559  -36.2735 C   0  0  0  0  0  0  0  0  0  0  0  0
   -9.6461   14.4965  -38.0670 C   0  0  0  0  0  0  0  0  0  0  0  0
  -13.9422   15.7883  -39.1678 C   0  0  0  0  0  0  0  0  0  0  0  0
  -14.2250   15.5698  -37.6855 C   0  0  0  0  0  0  0  0  0  0  0  0
  -12.4860   15.3986  -39.3601 C   0  0  2  0  0  0  0  0  0  0  0  0
  -12.2598   14.3966  -38.1982 C   0  0  1  0  0  0  0  0  0  0  0  0
  -10.9720   15.1766  -37.7443 C   0  0  0  0  0  0  0  0  0  0  0  0
  -11.0475   17.4342  -38.9115 O   0  0  0  0  0  0  0  0  0  0  0  0
  -13.4160   14.4436  -37.3229 O   0  0  0  0  0  0  0  0  0  0  0  0
  -10.6428   13.7665  -35.0114 H   0  0  0  0  0  0  0  0  0  0  0  0
   -9.2232   14.8361  -35.0153 H   0  0  0  0  0  0  0  0  0  0  0  0
   -8.3317   13.4429  -36.6635 H   0  0  0  0  0  0  0  0  0  0  0  0
   -9.9049   12.6692  -36.9309 H   0  0  0  0  0  0  0  0  0  0  0  0
  -11.8373   15.5768  -35.7933 H   0  0  0  0  0  0  0  0  0  0  0  0
  -10.3757   16.5319  -36.1108 H   0  0  0  0  0  0  0  0  0  0  0  0
   -8.8433   15.2264  -38.1745 H   0  0  0  0  0  0  0  0  0  0  0  0
   -9.6840   13.8802  -38.9624 H   0  0  0  0  0  0  0  0  0  0  0  0
  -14.5741   15.1137  -39.7585 H   0  0  0  0  0  0  0  0  0  0  0  0
  -14.1583   16.8131  -39.4843 H   0  0  0  0  0  0  0  0  0  0  0  0
  -13.9145   16.4290  -37.0821 H   0  0  0  0  0  0  0  0  0  0  0  0
  -15.2790   15.3531  -37.4910 H   0  0  0  0  0  0  0  0  0  0  0  0
  -12.2126   15.0438  -40.3578 H   0  0  0  0  0  0  0  0  0  0  0  0
  -12.0768   13.3686  -38.5252 H   0  0  0  0  0  0  0  0  0  0  0  0
  1  8  1  0  0  0  0
  1 10  1  0  0  0  0
  1 11  2  0  0  0  0
  2  3  1  0  0  0  0
  2  4  1  0  0  0  0
  3  5  1  0  0  0  0
  4 10  1  0  0  0  0
  5 10  1  0  0  0  0
  6  7  1  0  0  0  0
  6  8  1  0  0  0  0
  7 12  1  0  0  0  0
  8  9  1  0  0  0  0
  9 10  1  0  0  0  0
  9 12  1  0  0  0  0
  2 13  1  0  0  0  0
  2 14  1  0  0  0  0
  3 15  1  0  0  0  0
  3 16  1  0  0  0  0
  4 17  1  0  0  0  0
  4 18  1  0  0  0  0
  5 19  1  0  0  0  0
  5 20  1  0  0  0  0
  6 21  1  0  0  0  0
  6 22  1  0  0  0  0
  7 23  1  0  0  0  0
  7 24  1  0  0  0  0
  8 25  1  0  0  0  0
  9 26  1  0  0  0  0
M  END
> <id>
EN300-116508

> <smiles>
O=C1C2CCOC2C31CCCC3

> <MDLNUMBER>
MFCD22741193

> <IUPAC Name>
4-oxaspiro[bicyclo[3.2.0]heptane-6,1'-cyclopentane]-7-one

> <CAS>
1423028-28-7

> <URL>
https://www.enaminestore.com/catalog/EN300-116508

> <ROCS_ShapeQuery>
_x1247relevant_x1083L0AP1_x1305L0BP1_

> <ROCS_TanimotoCombo>
1.033 

> <ROCS_ShapeTanimoto>
0.492 

> <ROCS_ColorTanimoto>
0.541 

> <ROCS_RefTversky>
0.415 

> <ROCS_RefColorTversky>
0.662 

> <ROCS_RefTverskyCombo>
1.077 

> <ROCS_FitTversky>
1.604 

> <ROCS_FitColorTversky>
0.747 

> <ROCS_FitTverskyCombo>
2.351 

> <ROCS_ColorScore>
-6.362

> <ROCS_Overlap>
1020.335

> <ROCS_Rank>
263                 

$$$$
untitled-dbase-34989_1
  -OEChem-06232314403D

 33 35  0     1  0  0  0  0  0999 V2000
  -13.3760   14.8058  -39.6927 C   0  0  0  0  0  0  0  0  0  0  0  0
  -12.3561   15.9489  -39.7076 C   0  0  0  0  0  0  0  0  0  0  0  0
   -9.6449   14.4600  -35.8144 C   0  0  0  0  0  0  0  0  0  0  0  0
  -13.4960   15.9644  -37.6262 C   0  0  0  0  0  0  0  0  0  0  0  0
  -12.2753   13.8967  -37.6503 C   0  0  0  0  0  0  0  0  0  0  0  0
   -9.3034   13.8659  -37.1733 C   0  0  0  0  0  0  0  0  0  0  0  0
  -13.5634   14.5487  -38.1929 C   0  0  2  0  0  0  0  0  0  0  0  0
  -12.1027   16.2296  -38.2068 C   0  0  1  0  0  0  0  0  0  0  0  0
  -10.8987   15.3166  -36.0394 C   0  0  2  0  0  0  0  0  0  0  0  0
  -11.2615   15.0962  -37.5418 C   0  0  1  0  0  0  0  0  0  0  0  0
   -9.1191   15.8470  -38.5302 C   0  0  0  0  0  0  0  0  0  0  0  0
   -9.9760   14.7144  -38.1695 N   0  0  1  0  0  0  0  0  0  0  0  0
  -10.6199   16.7064  -35.6769 N   0  0  0  0  0  0  0  0  0  0  0  0
  -14.3127   15.1321  -40.1565 H   0  0  0  0  0  0  0  0  0  0  0  0
  -13.0191   13.9218  -40.2277 H   0  0  0  0  0  0  0  0  0  0  0  0
  -11.4546   15.6978  -40.2793 H   0  0  0  0  0  0  0  0  0  0  0  0
  -12.7962   16.8355  -40.1877 H   0  0  0  0  0  0  0  0  0  0  0  0
   -9.8146   13.6707  -35.0534 H   0  0  0  0  0  0  0  0  0  0  0  0
   -8.7998   15.0753  -35.4391 H   0  0  0  0  0  0  0  0  0  0  0  0
  -14.2673   16.6257  -38.0370 H   0  0  0  0  0  0  0  0  0  0  0  0
  -13.5618   15.9922  -36.5381 H   0  0  0  0  0  0  0  0  0  0  0  0
  -12.4666   13.4673  -36.6625 H   0  0  0  0  0  0  0  0  0  0  0  0
  -11.9484   13.0793  -38.2906 H   0  0  0  0  0  0  0  0  0  0  0  0
   -8.2219   13.8414  -37.3393 H   0  0  0  0  0  0  0  0  0  0  0  0
   -9.6737   12.8326  -37.2040 H   0  0  0  0  0  0  0  0  0  0  0  0
  -14.4657   13.9859  -37.9592 H   0  0  0  0  0  0  0  0  0  0  0  0
  -11.7269   17.2450  -38.0227 H   0  0  0  0  0  0  0  0  0  0  0  0
  -11.6985   14.9620  -35.4158 H   0  0  0  0  0  0  0  0  0  0  0  0
   -9.6324   16.4732  -39.2748 H   0  0  0  0  0  0  0  0  0  0  0  0
   -8.9056   16.4456  -37.6324 H   0  0  0  0  0  0  0  0  0  0  0  0
   -8.1757   15.4724  -38.9541 H   0  0  0  0  0  0  0  0  0  0  0  0
  -11.4431   17.2451  -35.8249 H   0  0  0  0  0  0  0  0  0  0  0  0
  -10.3546   16.7375  -34.7186 H   0  0  0  0  0  0  0  0  0  0  0  0
  1  2  1  0  0  0  0
  1  7  1  0  0  0  0
  2  8  1  0  0  0  0
  3  6  1  0  0  0  0
  3  9  1  0  0  0  0
  4  7  1  0  0  0  0
  4  8  1  0  0  0  0
  5  7  1  0  0  0  0
  5 10  1  0  0  0  0
  6 12  1  0  0  0  0
  8 10  1  0  0  0  0
  9 10  1  0  0  0  0
  9 13  1  0  0  0  0
 10 12  1  0  0  0  0
 11 12  1  0  0  0  0
  1 14  1  0  0  0  0
  1 15  1  0  0  0  0
  2 16  1  0  0  0  0
  2 17  1  0  0  0  0
  3 18  1  0  0  0  0
  3 19  1  0  0  0  0
  4 20  1  0  0  0  0
  4 21  1  0  0  0  0
  5 22  1  0  0  0  0
  5 23  1  0  0  0  0
  6 24  1  0  0  0  0
  6 25  1  0  0  0  0
  7 26  1  0  0  0  0
  8 27  1  0  0  0  0
  9 28  1  0  0  0  0
 11 29  1  0  0  0  0
 11 30  1  0  0  0  0
 11 31  1  0  0  0  0
 13 32  1  0  0  0  0
 13 33  1  0  0  0  0
M  END
> <id>
EN300-785586

> <smiles>
CN1CCC(N)C21CC3CCC2C3

> <IUPAC Name>
1'-methylspiro[bicyclo[2.2.1]heptane-2,2'-pyrrolidine]-3'-amine

> <CAS>
2137588-30-6

> <URL>
https://www.enaminestore.com/catalog/EN300-785586

> <ROCS_ShapeQuery>
_x1247relevant_x1083L0AP1_x1305L0BP1_

> <ROCS_TanimotoCombo>
1.033 

> <ROCS_ShapeTanimoto>
0.513 

> <ROCS_ColorTanimoto>
0.520 

> <ROCS_RefTversky>
0.433 

> <ROCS_RefColorTversky>
0.704 

> <ROCS_RefTverskyCombo>
1.136 

> <ROCS_FitTversky>
1.566 

> <ROCS_FitColorTversky>
0.665 

> <ROCS_FitTverskyCombo>
2.231 

> <ROCS_ColorScore>
-6.823

> <ROCS_Overlap>
1065.487

> <ROCS_Rank>
264                 

$$$$
untitled-dbase-23895_0
  -OEChem-06232314403D

 23 25  0     1  0  0  0  0  0999 V2000
  -11.9444   16.1132  -39.4287 C   0  0  0  0  0  0  0  0  0  0  0  0
  -12.0662   14.8098  -39.7263 C   0  0  0  0  0  0  0  0  0  0  0  0
  -10.1714   15.8660  -37.0058 C   0  0  0  0  0  0  0  0  0  0  0  0
  -10.3747   13.6757  -37.5081 C   0  0  0  0  0  0  0  0  0  0  0  0
  -13.9077   16.0678  -37.9554 C   0  0  0  0  0  0  0  0  0  0  0  0
  -14.0481   14.5610  -38.2988 C   0  0  0  0  0  0  0  0  0  0  0  0
  -12.4188   16.4859  -38.0364 C   0  0  1  0  0  0  0  0  0  0  0  0
  -12.6540   13.9639  -38.6120 C   0  0  2  0  0  0  0  0  0  0  0  0
  -11.6529   15.6300  -36.9988 C   0  0  1  0  0  0  0  0  0  0  0  0
  -11.7911   14.1406  -37.3391 C   0  0  2  0  0  0  0  0  0  0  0  0
   -9.6236   16.9383  -36.7984 O   0  0  0  0  0  0  0  0  0  0  0  0
  -10.0319   12.5421  -37.8080 O   0  0  0  0  0  0  0  0  0  0  0  0
   -9.5145   14.7057  -37.2801 O   0  0  0  0  0  0  0  0  0  0  0  0
  -11.5444   16.8447  -40.1176 H   0  0  0  0  0  0  0  0  0  0  0  0
  -11.7742   14.3884  -40.6787 H   0  0  0  0  0  0  0  0  0  0  0  0
  -14.5113   16.6617  -38.6535 H   0  0  0  0  0  0  0  0  0  0  0  0
  -14.3049   16.2589  -36.9512 H   0  0  0  0  0  0  0  0  0  0  0  0
  -14.5123   14.0297  -37.4591 H   0  0  0  0  0  0  0  0  0  0  0  0
  -14.7188   14.4408  -39.1588 H   0  0  0  0  0  0  0  0  0  0  0  0
  -12.2905   17.5574  -37.8538 H   0  0  0  0  0  0  0  0  0  0  0  0
  -12.7234   12.9142  -38.9136 H   0  0  0  0  0  0  0  0  0  0  0  0
  -12.0220   15.8177  -35.9832 H   0  0  0  0  0  0  0  0  0  0  0  0
  -12.2267   13.6012  -36.4894 H   0  0  0  0  0  0  0  0  0  0  0  0
  1  2  2  0  0  0  0
  1  7  1  0  0  0  0
  2  8  1  0  0  0  0
  3  9  1  6  0  0  0
  3 11  2  0  0  0  0
  3 13  1  0  0  0  0
  4 10  1  6  0  0  0
  4 12  2  0  0  0  0
  4 13  1  0  0  0  0
  5  6  1  0  0  0  0
  5  7  1  1  0  0  0
  6  8  1  1  0  0  0
  7  9  1  0  0  0  0
  8 10  1  0  0  0  0
  9 10  1  0  0  0  0
  1 14  1  0  0  0  0
  2 15  1  0  0  0  0
  5 16  1  0  0  0  0
  5 17  1  0  0  0  0
  6 18  1  0  0  0  0
  6 19  1  0  0  0  0
  7 20  1  0  0  0  0
  8 21  1  0  0  0  0
  9 22  1  0  0  0  0
 10 23  1  0  0  0  0
M  END
> <id>
EN300-224598

> <smiles>
O=C1OC(=O)[C@@H]2[C@H]1[C@H]3CC[C@@H]2C=C3

> <MDLNUMBER>
MFCD00151124

> <IUPAC Name>
(1R,2S,6R,7S)-4-oxatricyclo[5.2.2.0,2,6]undec-8-ene-3,5-dione

> <CAS>
1620738-28-4

> <Purity>
95

> <URL>
https://www.enaminestore.com/catalog/EN300-224598

> <ROCS_ShapeQuery>
_x1247relevant_x1083L0AP1_x1305L0BP1_

> <ROCS_TanimotoCombo>
1.032 

> <ROCS_ShapeTanimoto>
0.497 

> <ROCS_ColorTanimoto>
0.535 

> <ROCS_RefTversky>
0.427 

> <ROCS_RefColorTversky>
0.680 

> <ROCS_RefTverskyCombo>
1.107 

> <ROCS_FitTversky>
1.494 

> <ROCS_FitColorTversky>
0.716 

> <ROCS_FitTverskyCombo>
2.210 

> <ROCS_ColorScore>
-6.551

> <ROCS_Overlap>
1051.864

> <ROCS_Rank>
265                 

$$$$
untitled-dbase-26274_0
  -OEChem-06232314403D

 22 23  0     1  0  0  0  0  0999 V2000
  -11.3822   15.1598  -37.4500 C   0  0  0  0  0  0  0  0  0  0  0  0
  -11.2314   14.4974  -38.8012 C   0  0  0  0  0  0  0  0  0  0  0  0
  -13.4562   14.2790  -37.9688 C   0  0  0  0  0  0  0  0  0  0  0  0
  -13.1938   16.6627  -38.0786 C   0  0  0  0  0  0  0  0  0  0  0  0
  -12.8493   15.4511  -37.1995 C   0  0  2  0  0  0  0  0  0  0  0  0
  -12.6994   14.5982  -39.2694 C   0  0  1  0  0  0  0  0  0  0  0  0
  -13.1455   16.0685  -39.5120 C   0  0  2  0  0  0  0  0  0  0  0  0
  -12.2725   16.8741  -40.4651 C   0  0  0  0  0  0  0  0  0  0  0  0
  -10.4648   15.4416  -36.6954 O   0  0  0  0  0  0  0  0  0  0  0  0
  -14.4744   16.0634  -40.0430 O   0  0  0  0  0  0  0  0  0  0  0  0
  -11.0092   16.9193  -40.0113 F   0  0  0  0  0  0  0  0  0  0  0  0
  -12.2730   16.3100  -41.6839 F   0  0  0  0  0  0  0  0  0  0  0  0
  -12.7376   18.1297  -40.5709 F   0  0  0  0  0  0  0  0  0  0  0  0
  -10.5268   15.0291  -39.4405 H   0  0  0  0  0  0  0  0  0  0  0  0
  -10.9255   13.4568  -38.6614 H   0  0  0  0  0  0  0  0  0  0  0  0
  -13.1885   13.3006  -37.5537 H   0  0  0  0  0  0  0  0  0  0  0  0
  -14.5447   14.3460  -38.0650 H   0  0  0  0  0  0  0  0  0  0  0  0
  -14.1933   17.0405  -37.8359 H   0  0  0  0  0  0  0  0  0  0  0  0
  -12.4671   17.4703  -37.9365 H   0  0  0  0  0  0  0  0  0  0  0  0
  -13.1099   15.5210  -36.1442 H   0  0  0  0  0  0  0  0  0  0  0  0
  -12.9444   13.9211  -40.0917 H   0  0  0  0  0  0  0  0  0  0  0  0
  -14.4085   15.6887  -40.9332 H   0  0  0  0  0  0  0  0  0  0  0  0
  1  2  1  0  0  0  0
  1  5  1  0  0  0  0
  1  9  2  0  0  0  0
  2  6  1  0  0  0  0
  3  5  1  0  0  0  0
  3  6  1  0  0  0  0
  4  5  1  0  0  0  0
  4  7  1  0  0  0  0
  6  7  1  0  0  0  0
  7  8  1  0  0  0  0
  7 10  1  0  0  0  0
  8 11  1  0  0  0  0
  8 12  1  0  0  0  0
  8 13  1  0  0  0  0
  2 14  1  0  0  0  0
  2 15  1  0  0  0  0
  3 16  1  0  0  0  0
  3 17  1  0  0  0  0
  4 18  1  0  0  0  0
  4 19  1  0  0  0  0
  5 20  1  0  0  0  0
  6 21  1  0  0  0  0
 10 22  1  0  0  0  0
M  END
> <id>
EN300-6736025

> <smiles>
OC1(CC2CC1CC2=O)C(F)(F)F

> <IUPAC Name>
5-hydroxy-5-(trifluoromethyl)bicyclo[2.2.1]heptan-2-one

> <CAS>
2287271-70-7

> <URL>
https://www.enaminestore.com/catalog/EN300-6736025

> <ROCS_ShapeQuery>
_x1247relevant_x1083L0AP1_x1305L0BP1_

> <ROCS_TanimotoCombo>
1.032 

> <ROCS_ShapeTanimoto>
0.479 

> <ROCS_ColorTanimoto>
0.553 

> <ROCS_RefTversky>
0.416 

> <ROCS_RefColorTversky>
0.701 

> <ROCS_RefTverskyCombo>
1.117 

> <ROCS_FitTversky>
1.466 

> <ROCS_FitColorTversky>
0.724 

> <ROCS_FitTverskyCombo>
2.189 

> <ROCS_ColorScore>
-6.763

> <ROCS_Overlap>
1024.806

> <ROCS_Rank>
266                 

$$$$
untitled-dbase-6209_0
  -OEChem-06232314403D

 23 25  0     1  0  0  0  0  0999 V2000
  -11.9428   16.1029  -39.4380 C   0  0  0  0  0  0  0  0  0  0  0  0
  -12.0710   14.7975  -39.7241 C   0  0  0  0  0  0  0  0  0  0  0  0
  -10.1633   15.8684  -37.0194 C   0  0  0  0  0  0  0  0  0  0  0  0
  -10.3785   13.6744  -37.5004 C   0  0  0  0  0  0  0  0  0  0  0  0
  -13.9017   16.0786  -37.9582 C   0  0  0  0  0  0  0  0  0  0  0  0
  -14.0499   14.5697  -38.2889 C   0  0  0  0  0  0  0  0  0  0  0  0
  -12.4113   16.4896  -38.0475 C   0  0  1  0  0  0  0  0  0  0  0  0
  -12.6593   13.9638  -38.6009 C   0  0  2  0  0  0  0  0  0  0  0  0
  -11.6457   15.6392  -37.0050 C   0  0  1  0  0  0  0  0  0  0  0  0
  -11.7922   14.1476  -37.3319 C   0  0  2  0  0  0  0  0  0  0  0  0
   -9.6099   16.9399  -36.8240 O   0  0  0  0  0  0  0  0  0  0  0  0
  -10.0420   12.5361  -37.7895 O   0  0  0  0  0  0  0  0  0  0  0  0
   -9.5128   14.7026  -37.2854 O   0  0  0  0  0  0  0  0  0  0  0  0
  -11.5420   16.8270  -40.1346 H   0  0  0  0  0  0  0  0  0  0  0  0
  -11.7835   14.3666  -40.6735 H   0  0  0  0  0  0  0  0  0  0  0  0
  -14.5049   16.6694  -38.6589 H   0  0  0  0  0  0  0  0  0  0  0  0
  -14.2948   16.2797  -36.9546 H   0  0  0  0  0  0  0  0  0  0  0  0
  -14.5138   14.0477  -37.4437 H   0  0  0  0  0  0  0  0  0  0  0  0
  -14.7233   14.4457  -39.1462 H   0  0  0  0  0  0  0  0  0  0  0  0
  -12.2777   17.5619  -37.8745 H   0  0  0  0  0  0  0  0  0  0  0  0
  -12.7342   12.9120  -38.8932 H   0  0  0  0  0  0  0  0  0  0  0  0
  -12.0104   15.8375  -35.9900 H   0  0  0  0  0  0  0  0  0  0  0  0
  -12.2281   13.6180  -36.4763 H   0  0  0  0  0  0  0  0  0  0  0  0
  1  2  2  0  0  0  0
  1  7  1  0  0  0  0
  2  8  1  0  0  0  0
  3  9  1  0  0  0  0
  3 11  2  0  0  0  0
  3 13  1  0  0  0  0
  4 10  1  0  0  0  0
  4 12  2  0  0  0  0
  4 13  1  0  0  0  0
  5  6  1  0  0  0  0
  5  7  1  0  0  0  0
  6  8  1  0  0  0  0
  7  9  1  0  0  0  0
  8 10  1  0  0  0  0
  9 10  1  0  0  0  0
  1 14  1  0  0  0  0
  2 15  1  0  0  0  0
  5 16  1  0  0  0  0
  5 17  1  0  0  0  0
  6 18  1  0  0  0  0
  6 19  1  0  0  0  0
  7 20  1  0  0  0  0
  8 21  1  0  0  0  0
  9 22  1  0  0  0  0
 10 23  1  0  0  0  0
M  END
> <id>
EN300-154974

> <smiles>
O=C1OC(=O)C2C1C3CCC2C=C3

> <MDLNUMBER>
MFCD06796361

> <IUPAC Name>
4-oxatricyclo[5.2.2.0,2,6]undec-8-ene-3,5-dione

> <CAS>
6708-37-8

> <URL>
https://www.enaminestore.com/catalog/EN300-154974

> <ROCS_ShapeQuery>
_x1247relevant_x1083L0AP1_x1305L0BP1_

> <ROCS_TanimotoCombo>
1.032 

> <ROCS_ShapeTanimoto>
0.497 

> <ROCS_ColorTanimoto>
0.535 

> <ROCS_RefTversky>
0.427 

> <ROCS_RefColorTversky>
0.680 

> <ROCS_RefTverskyCombo>
1.107 

> <ROCS_FitTversky>
1.493 

> <ROCS_FitColorTversky>
0.716 

> <ROCS_FitTverskyCombo>
2.209 

> <ROCS_ColorScore>
-6.551

> <ROCS_Overlap>
1051.797

> <ROCS_Rank>
267                 

$$$$
untitled-dbase-10667_0
  -OEChem-06232314403D

 24 26  0     1  0  0  0  0  0999 V2000
  -10.8096   15.5093  -39.2849 C   0  0  0  0  0  0  0  0  0  0  0  0
  -10.7711   15.7663  -37.7740 C   0  0  0  0  0  0  0  0  0  0  0  0
  -12.6297   13.8278  -39.0246 C   0  0  0  0  0  0  0  0  0  0  0  0
  -14.1740   14.9771  -37.3349 C   0  0  0  0  0  0  0  0  0  0  0  0
  -12.2226   15.1258  -39.7565 C   0  0  1  0  0  0  0  0  0  0  0  0
  -12.1362   15.5199  -37.1449 C   0  0  2  0  0  0  0  0  0  0  0  0
  -12.8562   14.1823  -37.5475 C   0  0  2  0  0  0  0  0  0  0  0  0
  -13.3677   16.2133  -37.8379 C   0  0  1  0  0  0  0  0  0  0  0  0
  -13.1818   16.2684  -39.3620 C   0  0  2  0  0  0  0  0  0  0  0  0
  -14.4348   16.1043  -40.0137 O   0  0  0  0  0  0  0  0  0  0  0  0
  -10.4644   16.4039  -39.8178 H   0  0  0  0  0  0  0  0  0  0  0  0
  -10.0982   14.7140  -39.5399 H   0  0  0  0  0  0  0  0  0  0  0  0
  -10.0212   15.1165  -37.3084 H   0  0  0  0  0  0  0  0  0  0  0  0
  -10.4542   16.7982  -37.5832 H   0  0  0  0  0  0  0  0  0  0  0  0
  -13.5388   13.3988  -39.4611 H   0  0  0  0  0  0  0  0  0  0  0  0
  -11.8384   13.0750  -39.1176 H   0  0  0  0  0  0  0  0  0  0  0  0
  -15.0374   14.6659  -37.9290 H   0  0  0  0  0  0  0  0  0  0  0  0
  -14.4914   15.0465  -36.2868 H   0  0  0  0  0  0  0  0  0  0  0  0
  -12.2273   14.9595  -40.8393 H   0  0  0  0  0  0  0  0  0  0  0  0
  -12.1057   15.6834  -36.0582 H   0  0  0  0  0  0  0  0  0  0  0  0
  -12.7206   13.3350  -36.8694 H   0  0  0  0  0  0  0  0  0  0  0  0
  -13.6865   17.1673  -37.4072 H   0  0  0  0  0  0  0  0  0  0  0  0
  -12.7678   17.2359  -39.6684 H   0  0  0  0  0  0  0  0  0  0  0  0
  -14.9956   16.8449  -39.7319 H   0  0  0  0  0  0  0  0  0  0  0  0
  1  2  1  0  0  0  0
  1  5  1  0  0  0  0
  2  6  1  0  0  0  0
  3  5  1  0  0  0  0
  3  7  1  0  0  0  0
  4  7  1  0  0  0  0
  4  8  1  0  0  0  0
  5  9  1  0  0  0  0
  6  7  1  0  0  0  0
  6  8  1  0  0  0  0
  8  9  1  0  0  0  0
  9 10  1  0  0  0  0
  1 11  1  0  0  0  0
  1 12  1  0  0  0  0
  2 13  1  0  0  0  0
  2 14  1  0  0  0  0
  3 15  1  0  0  0  0
  3 16  1  0  0  0  0
  4 17  1  0  0  0  0
  4 18  1  0  0  0  0
  5 19  1  0  0  0  0
  6 20  1  0  0  0  0
  7 21  1  0  0  0  0
  8 22  1  0  0  0  0
  9 23  1  0  0  0  0
 10 24  1  0  0  0  0
M  END
> <id>
EN300-24200790

> <smiles>
OC1C2CC3CC1CCC32

> <MDLNUMBER>
MFCD32667975

> <IUPAC Name>
tricyclo[3.3.1.0,2,7]nonan-6-ol

> <CAS>
1823589-64-5

> <Purity>
95

> <URL>
https://www.enaminestore.com/catalog/EN300-24200790

> <ROCS_ShapeQuery>
_x1247relevant_x1083L0AP1_x1305L0BP1_

> <ROCS_TanimotoCombo>
1.032 

> <ROCS_ShapeTanimoto>
0.421 

> <ROCS_ColorTanimoto>
0.611 

> <ROCS_RefTversky>
0.363 

> <ROCS_RefColorTversky>
0.925 

> <ROCS_RefTverskyCombo>
1.288 

> <ROCS_FitTversky>
1.610 

> <ROCS_FitColorTversky>
0.643 

> <ROCS_FitTverskyCombo>
2.253 

> <ROCS_ColorScore>
-9.163

> <ROCS_Overlap>
892.224

> <ROCS_Rank>
268                 

$$$$
untitled-dbase-38672_0
  -OEChem-06232314403D

 21 23  0     1  0  0  0  0  0999 V2000
   -9.6195   13.8912  -36.2830 C   0  0  0  0  0  0  0  0  0  0  0  0
   -9.0581   14.9850  -36.9363 C   0  0  0  0  0  0  0  0  0  0  0  0
  -10.9784   13.6182  -36.4242 C   0  0  0  0  0  0  0  0  0  0  0  0
   -9.8560   15.8121  -37.7285 C   0  0  0  0  0  0  0  0  0  0  0  0
  -11.7815   14.4355  -37.2304 C   0  0  0  0  0  0  0  0  0  0  0  0
  -11.2273   15.5600  -37.8855 C   0  0  0  0  0  0  0  0  0  0  0  0
  -13.2635   14.1550  -37.3642 C   0  0  0  0  0  0  0  0  0  0  0  0
  -13.7991   14.5038  -38.7583 C   0  0  0  0  0  0  0  0  0  0  0  0
  -12.1003   16.4526  -38.7263 C   0  0  2  0  0  0  0  0  0  0  0  0
  -13.4536   15.9127  -39.1326 C   0  0  1  0  0  0  0  0  0  0  0  0
  -12.3801   16.0362  -40.0718 O   0  0  0  0  0  0  0  0  0  0  0  0
   -8.9992   13.2518  -35.6617 H   0  0  0  0  0  0  0  0  0  0  0  0
   -7.9988   15.1977  -36.8257 H   0  0  0  0  0  0  0  0  0  0  0  0
  -11.4068   12.7646  -35.9053 H   0  0  0  0  0  0  0  0  0  0  0  0
   -9.4022   16.6662  -38.2261 H   0  0  0  0  0  0  0  0  0  0  0  0
  -13.4689   13.0966  -37.1647 H   0  0  0  0  0  0  0  0  0  0  0  0
  -13.7901   14.7439  -36.6029 H   0  0  0  0  0  0  0  0  0  0  0  0
  -13.3857   13.8077  -39.4993 H   0  0  0  0  0  0  0  0  0  0  0  0
  -14.8871   14.3744  -38.7742 H   0  0  0  0  0  0  0  0  0  0  0  0
  -12.0371   17.5216  -38.5501 H   0  0  0  0  0  0  0  0  0  0  0  0
  -14.2943   16.5862  -39.2075 H   0  0  0  0  0  0  0  0  0  0  0  0
  1  2  2  0  0  0  0
  1  3  1  0  0  0  0
  2  4  1  0  0  0  0
  3  5  2  0  0  0  0
  4  6  2  0  0  0  0
  5  6  1  0  0  0  0
  5  7  1  0  0  0  0
  6  9  1  0  0  0  0
  7  8  1  0  0  0  0
  8 10  1  0  0  0  0
  9 10  1  0  0  0  0
  9 11  1  0  0  0  0
 10 11  1  0  0  0  0
  1 12  1  0  0  0  0
  2 13  1  0  0  0  0
  3 14  1  0  0  0  0
  4 15  1  0  0  0  0
  7 16  1  0  0  0  0
  7 17  1  0  0  0  0
  8 18  1  0  0  0  0
  8 19  1  0  0  0  0
  9 20  1  0  0  0  0
 10 21  1  0  0  0  0
M  END
> <id>
EN300-132943

> <smiles>
C1CC=2C=CC=CC2C3OC13

> <MDLNUMBER>
MFCD00110771

> <IUPAC Name>
1aH,2H,3H,7bH-naphtho[1,2-b]oxirene

> <CAS>
2461-34-9

> <URL>
https://www.enaminestore.com/catalog/EN300-132943

> <ROCS_ShapeQuery>
_x1247relevant_x1083L0AP1_x1305L0BP1_

> <ROCS_TanimotoCombo>
1.032 

> <ROCS_ShapeTanimoto>
0.492 

> <ROCS_ColorTanimoto>
0.540 

> <ROCS_RefTversky>
0.410 

> <ROCS_RefColorTversky>
0.574 

> <ROCS_RefTverskyCombo>
0.984 

> <ROCS_FitTversky>
1.683 

> <ROCS_FitColorTversky>
0.902 

> <ROCS_FitTverskyCombo>
2.585 

> <ROCS_ColorScore>
-5.434

> <ROCS_Overlap>
1008.589

> <ROCS_Rank>
269                 

$$$$
untitled-dbase-38673_0
  -OEChem-06232314403D

 21 23  0     1  0  0  0  0  0999 V2000
   -9.6195   13.8913  -36.2829 C   0  0  0  0  0  0  0  0  0  0  0  0
   -9.0581   14.9849  -36.9365 C   0  0  0  0  0  0  0  0  0  0  0  0
  -10.9785   13.6182  -36.4242 C   0  0  0  0  0  0  0  0  0  0  0  0
   -9.8560   15.8120  -37.7286 C   0  0  0  0  0  0  0  0  0  0  0  0
  -11.7816   14.4355  -37.2304 C   0  0  0  0  0  0  0  0  0  0  0  0
  -11.2273   15.5600  -37.8854 C   0  0  0  0  0  0  0  0  0  0  0  0
  -13.2635   14.1549  -37.3642 C   0  0  0  0  0  0  0  0  0  0  0  0
  -13.7988   14.5036  -38.7586 C   0  0  0  0  0  0  0  0  0  0  0  0
  -12.1004   16.4527  -38.7260 C   0  0  2  0  0  0  0  0  0  0  0  0
  -13.4537   15.9127  -39.1325 C   0  0  1  0  0  0  0  0  0  0  0  0
  -12.3802   16.0366  -40.0717 O   0  0  0  0  0  0  0  0  0  0  0  0
   -8.9988   13.2522  -35.6617 H   0  0  0  0  0  0  0  0  0  0  0  0
   -7.9990   15.1984  -36.8258 H   0  0  0  0  0  0  0  0  0  0  0  0
  -11.4071   12.7647  -35.9054 H   0  0  0  0  0  0  0  0  0  0  0  0
   -9.4030   16.6671  -38.2251 H   0  0  0  0  0  0  0  0  0  0  0  0
  -13.4702   13.0970  -37.1637 H   0  0  0  0  0  0  0  0  0  0  0  0
  -13.7900   14.7452  -36.6038 H   0  0  0  0  0  0  0  0  0  0  0  0
  -13.3859   13.8079  -39.5001 H   0  0  0  0  0  0  0  0  0  0  0  0
  -14.8868   14.3737  -38.7732 H   0  0  0  0  0  0  0  0  0  0  0  0
  -12.0377   17.5217  -38.5492 H   0  0  0  0  0  0  0  0  0  0  0  0
  -14.2944   16.5863  -39.2062 H   0  0  0  0  0  0  0  0  0  0  0  0
  1  2  2  0  0  0  0
  1  3  1  0  0  0  0
  2  4  1  0  0  0  0
  3  5  2  0  0  0  0
  4  6  2  0  0  0  0
  5  6  1  0  0  0  0
  5  7  1  0  0  0  0
  6  9  1  0  0  0  0
  7  8  1  0  0  0  0
  8 10  1  1  0  0  0
  9 10  1  0  0  0  0
  9 11  1  1  0  0  0
 10 11  1  0  0  0  0
  1 12  1  0  0  0  0
  2 13  1  0  0  0  0
  3 14  1  0  0  0  0
  4 15  1  0  0  0  0
  7 16  1  0  0  0  0
  7 17  1  0  0  0  0
  8 18  1  0  0  0  0
  8 19  1  0  0  0  0
  9 20  1  0  0  0  0
 10 21  1  0  0  0  0
M  END
> <id>
EN300-218927

> <smiles>
C1CC=2C=CC=CC2[C@H]3O[C@@H]13

> <MDLNUMBER>
MFCD28968179

> <IUPAC Name>
(1aS,7bR)-1aH,2H,3H,7bH-naphtho[1,2-b]oxirene

> <CAS>
1807938-02-8

> <URL>
https://www.enaminestore.com/catalog/EN300-218927

> <ROCS_ShapeQuery>
_x1247relevant_x1083L0AP1_x1305L0BP1_

> <ROCS_TanimotoCombo>
1.032 

> <ROCS_ShapeTanimoto>
0.492 

> <ROCS_ColorTanimoto>
0.540 

> <ROCS_RefTversky>
0.410 

> <ROCS_RefColorTversky>
0.574 

> <ROCS_RefTverskyCombo>
0.984 

> <ROCS_FitTversky>
1.683 

> <ROCS_FitColorTversky>
0.902 

> <ROCS_FitTverskyCombo>
2.585 

> <ROCS_ColorScore>
-5.434

> <ROCS_Overlap>
1008.590

> <ROCS_Rank>
270                 

$$$$
untitled-dbase-5380_0
  -OEChem-06232314403D

 21 23  0     1  0  0  0  0  0999 V2000
  -10.5862   15.5688  -38.2523 C   0  0  0  0  0  0  0  0  0  0  0  0
  -12.6562   15.8741  -36.8637 C   0  0  0  0  0  0  0  0  0  0  0  0
  -13.8721   14.1944  -38.0218 C   0  0  0  0  0  0  0  0  0  0  0  0
  -11.6327   14.8737  -37.4270 C   0  0  1  0  0  0  0  0  0  0  0  0
  -13.8388   15.7150  -37.8398 C   0  0  2  0  0  0  0  0  0  0  0  0
  -12.4308   14.1208  -38.4921 C   0  0  2  0  0  0  0  0  0  0  0  0
  -12.3493   15.1312  -39.6359 C   0  0  1  0  0  0  0  0  0  0  0  0
  -13.3960   16.1938  -39.2403 C   0  0  1  0  0  0  0  0  0  0  0  0
   -9.5296   16.0181  -37.8381 O   0  0  0  0  0  0  0  0  0  0  0  0
  -11.0241   15.6641  -39.5466 O   0  0  0  0  0  0  0  0  0  0  0  0
  -14.5075   16.1502  -40.1242 O   0  0  0  0  0  0  0  0  0  0  0  0
  -12.9596   15.5718  -35.8546 H   0  0  0  0  0  0  0  0  0  0  0  0
  -12.2853   16.9033  -36.8217 H   0  0  0  0  0  0  0  0  0  0  0  0
  -14.0443   13.6548  -37.0849 H   0  0  0  0  0  0  0  0  0  0  0  0
  -14.5890   13.8603  -38.7782 H   0  0  0  0  0  0  0  0  0  0  0  0
  -11.1910   14.2189  -36.6726 H   0  0  0  0  0  0  0  0  0  0  0  0
  -14.7797   16.1448  -37.4901 H   0  0  0  0  0  0  0  0  0  0  0  0
  -12.0345   13.1320  -38.7330 H   0  0  0  0  0  0  0  0  0  0  0  0
  -12.5209   14.6866  -40.6206 H   0  0  0  0  0  0  0  0  0  0  0  0
  -12.9994   17.2146  -39.2229 H   0  0  0  0  0  0  0  0  0  0  0  0
  -14.1903   16.4568  -40.9892 H   0  0  0  0  0  0  0  0  0  0  0  0
  1  4  1  0  0  0  0
  1  9  2  0  0  0  0
  1 10  1  0  0  0  0
  2  4  1  0  0  0  0
  2  5  1  0  0  0  0
  3  5  1  0  0  0  0
  3  6  1  0  0  0  0
  4  6  1  0  0  0  0
  5  8  1  0  0  0  0
  6  7  1  0  0  0  0
  7  8  1  0  0  0  0
  7 10  1  0  0  0  0
  8 11  1  0  0  0  0
  2 12  1  0  0  0  0
  2 13  1  0  0  0  0
  3 14  1  0  0  0  0
  3 15  1  0  0  0  0
  4 16  1  0  0  0  0
  5 17  1  0  0  0  0
  6 18  1  0  0  0  0
  7 19  1  0  0  0  0
  8 20  1  0  0  0  0
 11 21  1  0  0  0  0
M  END
> <id>
EN300-214446

> <smiles>
OC1C2CC3C(C2)C(=O)OC13

> <MDLNUMBER>
MFCD00988184

> <IUPAC Name>
2-hydroxy-4-oxatricyclo[4.2.1.0,3,7]nonan-5-one

> <CAS>
92343-46-9

> <Purity>
95

> <URL>
https://www.enaminestore.com/catalog/EN300-214446

> <MP>
158-159

> <ROCS_ShapeQuery>
_x1247relevant_x1083L0AP1_x1305L0BP1_

> <ROCS_TanimotoCombo>
1.032 

> <ROCS_ShapeTanimoto>
0.459 

> <ROCS_ColorTanimoto>
0.573 

> <ROCS_RefTversky>
0.394 

> <ROCS_RefColorTversky>
0.928 

> <ROCS_RefTverskyCombo>
1.321 

> <ROCS_FitTversky>
1.561 

> <ROCS_FitColorTversky>
0.600 

> <ROCS_FitTverskyCombo>
2.161 

> <ROCS_ColorScore>
-9.246

> <ROCS_Overlap>
968.359

> <ROCS_Rank>
271                 

$$$$
untitled-dbase-18329_0
  -OEChem-06232314403D

 28 30  0     1  0  0  0  0  0999 V2000
   -9.1437   14.5526  -37.1165 C   0  0  0  0  0  0  0  0  0  0  0  0
  -13.4837   16.0876  -37.2444 C   0  0  0  0  0  0  0  0  0  0  0  0
  -12.1993   16.4623  -39.3182 C   0  0  0  0  0  0  0  0  0  0  0  0
  -14.0972   14.8179  -37.8571 C   0  0  0  0  0  0  0  0  0  0  0  0
  -12.9286   15.2497  -39.9168 C   0  0  0  0  0  0  0  0  0  0  0  0
  -11.9467   13.8033  -38.2643 C   0  0  0  0  0  0  0  0  0  0  0  0
  -11.0547   14.7062  -36.0374 C   0  0  0  0  0  0  0  0  0  0  0  0
  -12.0585   16.2750  -37.7949 C   0  0  0  0  0  0  0  0  0  0  0  0
  -11.2575   14.9823  -37.5234 C   0  0  2  0  0  0  0  0  0  0  0  0
   -9.8751   15.1128  -38.0304 N   0  0  0  0  0  0  0  0  0  0  0  0
  -13.2221   14.2254  -38.8922 N   0  0  0  0  0  0  0  0  0  0  0  0
   -7.7991   14.3361  -37.1289 N   0  0  0  0  0  0  0  0  0  0  0  0
   -9.7606   14.1227  -35.9779 O   0  0  0  0  0  0  0  0  0  0  0  0
  -14.0993   16.9595  -37.4974 H   0  0  0  0  0  0  0  0  0  0  0  0
  -13.4749   16.0114  -36.1515 H   0  0  0  0  0  0  0  0  0  0  0  0
  -11.2153   16.5800  -39.7860 H   0  0  0  0  0  0  0  0  0  0  0  0
  -12.7648   17.3775  -39.5321 H   0  0  0  0  0  0  0  0  0  0  0  0
  -14.2926   14.0778  -37.0708 H   0  0  0  0  0  0  0  0  0  0  0  0
  -15.0777   15.0510  -38.2905 H   0  0  0  0  0  0  0  0  0  0  0  0
  -13.8622   15.5715  -40.3952 H   0  0  0  0  0  0  0  0  0  0  0  0
  -12.3245   14.8095  -40.7200 H   0  0  0  0  0  0  0  0  0  0  0  0
  -11.2932   13.3809  -39.0392 H   0  0  0  0  0  0  0  0  0  0  0  0
  -12.1539   12.9711  -37.5800 H   0  0  0  0  0  0  0  0  0  0  0  0
  -11.0394   15.6201  -35.4323 H   0  0  0  0  0  0  0  0  0  0  0  0
  -11.7938   14.0208  -35.6122 H   0  0  0  0  0  0  0  0  0  0  0  0
  -11.5766   17.1528  -37.3503 H   0  0  0  0  0  0  0  0  0  0  0  0
   -7.2733   14.6311  -37.9240 H   0  0  0  0  0  0  0  0  0  0  0  0
   -7.3781   13.8886  -36.3427 H   0  0  0  0  0  0  0  0  0  0  0  0
  1 10  2  0  0  0  0
  1 12  1  0  0  0  0
  1 13  1  0  0  0  0
  2  4  1  0  0  0  0
  2  8  1  0  0  0  0
  3  5  1  0  0  0  0
  3  8  1  0  0  0  0
  4 11  1  0  0  0  0
  5 11  1  0  0  0  0
  6  9  1  0  0  0  0
  6 11  1  0  0  0  0
  7  9  1  0  0  0  0
  7 13  1  0  0  0  0
  8  9  1  0  0  0  0
  9 10  1  0  0  0  0
  2 14  1  0  0  0  0
  2 15  1  0  0  0  0
  3 16  1  0  0  0  0
  3 17  1  0  0  0  0
  4 18  1  0  0  0  0
  4 19  1  0  0  0  0
  5 20  1  0  0  0  0
  5 21  1  0  0  0  0
  6 22  1  0  0  0  0
  6 23  1  0  0  0  0
  7 24  1  0  0  0  0
  7 25  1  0  0  0  0
  8 26  1  0  0  0  0
 12 27  1  0  0  0  0
 12 28  1  0  0  0  0
M  END
> <id>
EN300-1651535

> <smiles>
NC1=NC2(CO1)CN3CCC2CC3

> <MDLNUMBER>
MFCD21265868

> <IUPAC Name>
2'H-4-azaspiro[bicyclo[2.2.2]octane-2,3'-[1,4]oxazole]-5'-amine

> <CAS>
1481531-41-2

> <URL>
https://www.enaminestore.com/catalog/EN300-1651535

> <ROCS_ShapeQuery>
_x1247relevant_x1083L0AP1_x1305L0BP1_

> <ROCS_TanimotoCombo>
1.032 

> <ROCS_ShapeTanimoto>
0.510 

> <ROCS_ColorTanimoto>
0.522 

> <ROCS_RefTversky>
0.433 

> <ROCS_RefColorTversky>
0.699 

> <ROCS_RefTverskyCombo>
1.132 

> <ROCS_FitTversky>
1.530 

> <ROCS_FitColorTversky>
0.673 

> <ROCS_FitTverskyCombo>
2.203 

> <ROCS_ColorScore>
-6.769

> <ROCS_Overlap>
1067.818

> <ROCS_Rank>
272                 

$$$$
untitled-dbase-43636_0
  -OEChem-06232314403D

 22 24  0     1  0  0  0  0  0999 V2000
   -9.6963   14.0401  -36.0394 C   0  0  0  0  0  0  0  0  0  0  0  0
   -9.0603   15.0466  -36.7649 C   0  0  0  0  0  0  0  0  0  0  0  0
  -11.0172   13.6975  -36.3279 C   0  0  0  0  0  0  0  0  0  0  0  0
   -9.7425   15.7141  -37.7821 C   0  0  0  0  0  0  0  0  0  0  0  0
  -11.7132   14.3729  -37.3360 C   0  0  0  0  0  0  0  0  0  0  0  0
  -11.0725   15.3868  -38.0673 C   0  0  0  0  0  0  0  0  0  0  0  0
  -13.1240   13.9952  -37.6980 C   0  0  0  0  0  0  0  0  0  0  0  0
  -11.8218   16.0572  -39.1918 C   0  0  0  0  0  0  0  0  0  0  0  0
  -14.1493   15.4265  -39.6273 C   0  0  0  0  0  0  0  0  0  0  0  0
  -13.8929   15.1958  -38.1637 C   0  0  2  0  0  0  0  0  0  0  0  0
  -13.2394   16.2984  -38.8863 N   0  0  1  0  0  0  0  0  0  0  0  0
   -9.1598   13.5161  -35.2537 H   0  0  0  0  0  0  0  0  0  0  0  0
   -8.0291   15.3056  -36.5435 H   0  0  0  0  0  0  0  0  0  0  0  0
  -11.4974   12.9017  -35.7644 H   0  0  0  0  0  0  0  0  0  0  0  0
   -9.2301   16.4858  -38.3501 H   0  0  0  0  0  0  0  0  0  0  0  0
  -13.0999   13.2180  -38.4713 H   0  0  0  0  0  0  0  0  0  0  0  0
  -13.6334   13.5695  -36.8253 H   0  0  0  0  0  0  0  0  0  0  0  0
  -11.3730   17.0398  -39.3817 H   0  0  0  0  0  0  0  0  0  0  0  0
  -11.6751   15.4744  -40.1105 H   0  0  0  0  0  0  0  0  0  0  0  0
  -13.7364   14.7356  -40.3504 H   0  0  0  0  0  0  0  0  0  0  0  0
  -15.0938   15.8736  -39.9093 H   0  0  0  0  0  0  0  0  0  0  0  0
  -14.6559   15.5042  -37.4593 H   0  0  0  0  0  0  0  0  0  0  0  0
  1  2  2  0  0  0  0
  1  3  1  0  0  0  0
  2  4  1  0  0  0  0
  3  5  2  0  0  0  0
  4  6  2  0  0  0  0
  5  6  1  0  0  0  0
  5  7  1  0  0  0  0
  6  8  1  0  0  0  0
  7 10  1  0  0  0  0
  8 11  1  0  0  0  0
  9 10  1  1  0  0  0
  9 11  1  0  0  0  0
 10 11  1  0  0  0  0
  1 12  1  0  0  0  0
  2 13  1  0  0  0  0
  3 14  1  0  0  0  0
  4 15  1  0  0  0  0
  7 16  1  0  0  0  0
  7 17  1  0  0  0  0
  8 18  1  0  0  0  0
  8 19  1  0  0  0  0
  9 20  1  0  0  0  0
  9 21  1  0  0  0  0
 10 22  1  0  0  0  0
M  END
> <id>
EN300-27779012

> <smiles>
C1[C@H]2CC=3C=CC=CC3CN12

> <MDLNUMBER>
MFCD33549499

> <IUPAC Name>
(8aR)-1H,3H,8H,8aH-azirino[1,2-b]isoquinoline

> <CAS>
2639377-93-6

> <Purity>
95

> <URL>
https://www.enaminestore.com/catalog/EN300-27779012

> <ROCS_ShapeQuery>
_x1247relevant_x1083L0AP1_x1305L0BP1_

> <ROCS_TanimotoCombo>
1.032 

> <ROCS_ShapeTanimoto>
0.488 

> <ROCS_ColorTanimoto>
0.544 

> <ROCS_RefTversky>
0.408 

> <ROCS_RefColorTversky>
0.576 

> <ROCS_RefTverskyCombo>
0.984 

> <ROCS_FitTversky>
1.669 

> <ROCS_FitColorTversky>
0.907 

> <ROCS_FitTverskyCombo>
2.577 

> <ROCS_ColorScore>
-5.455

> <ROCS_Overlap>
1002.735

> <ROCS_Rank>
273                 

$$$$
untitled-dbase-23112_0
  -OEChem-06232314403D

 21 23  0     1  0  0  0  0  0999 V2000
   -8.9574   14.2958  -36.8595 C   0  0  0  0  0  0  0  0  0  0  0  0
   -9.8289   14.1911  -35.7681 C   0  0  0  0  0  0  0  0  0  0  0  0
   -9.4179   14.7666  -38.0881 C   0  0  0  0  0  0  0  0  0  0  0  0
  -11.1723   14.5562  -35.8931 C   0  0  0  0  0  0  0  0  0  0  0  0
  -10.7542   15.1247  -38.2001 C   0  0  0  0  0  0  0  0  0  0  0  0
  -11.6457   15.0275  -37.1138 C   0  0  0  0  0  0  0  0  0  0  0  0
  -13.8781   14.6932  -39.3040 C   0  0  0  0  0  0  0  0  0  0  0  0
  -11.4313   15.6647  -39.4406 C   0  0  0  0  0  0  0  0  0  0  0  0
  -13.0590   15.4878  -37.5366 C   0  0  1  0  0  0  0  0  0  0  0  0
  -12.9138   15.8730  -39.0520 C   0  0  2  0  0  0  0  0  0  0  0  0
  -14.0057   14.4661  -37.9681 N   0  0  0  0  0  0  0  0  0  0  0  0
  -14.3566   14.1456  -40.2707 O   0  0  0  0  0  0  0  0  0  0  0  0
   -7.9159   14.0077  -36.7464 H   0  0  0  0  0  0  0  0  0  0  0  0
   -9.4558   13.8231  -34.8163 H   0  0  0  0  0  0  0  0  0  0  0  0
   -8.7430   14.8501  -38.9333 H   0  0  0  0  0  0  0  0  0  0  0  0
  -11.8414   14.4706  -35.0424 H   0  0  0  0  0  0  0  0  0  0  0  0
  -10.9771   16.6239  -39.7111 H   0  0  0  0  0  0  0  0  0  0  0  0
  -11.3347   14.9661  -40.2777 H   0  0  0  0  0  0  0  0  0  0  0  0
  -13.5229   16.2572  -36.9111 H   0  0  0  0  0  0  0  0  0  0  0  0
  -13.3290   16.8446  -39.3378 H   0  0  0  0  0  0  0  0  0  0  0  0
  -14.5318   13.7564  -37.4769 H   0  0  0  0  0  0  0  0  0  0  0  0
  1  2  2  0  0  0  0
  1  3  1  0  0  0  0
  2  4  1  0  0  0  0
  3  5  2  0  0  0  0
  4  6  2  0  0  0  0
  5  6  1  0  0  0  0
  5  8  1  0  0  0  0
  6  9  1  0  0  0  0
  7 10  1  0  0  0  0
  7 11  1  0  0  0  0
  7 12  2  0  0  0  0
  8 10  1  6  0  0  0
  9 10  1  0  0  0  0
  9 11  1  6  0  0  0
  1 13  1  0  0  0  0
  2 14  1  0  0  0  0
  3 15  1  0  0  0  0
  4 16  1  0  0  0  0
  8 17  1  0  0  0  0
  8 18  1  0  0  0  0
  9 19  1  0  0  0  0
 10 20  1  0  0  0  0
 11 21  1  0  0  0  0
M  END
> <id>
EN300-6481776

> <smiles>
O=C1N[C@@H]2[C@H]1CC=3C=CC=CC23 |&1:3,4,r|

> <MDLNUMBER>
MFCD05863565

> <IUPAC Name>
rac-(2aR,7bR)-1H,2H,2aH,3H,7bH-indeno[1,2-b]azet-2-one

> <CAS>
874292-63-4

> <Purity>
95

> <URL>
https://www.enaminestore.com/catalog/EN300-6481776

> <ROCS_ShapeQuery>
_x1247relevant_x1083L0AP1_x1305L0BP1_

> <ROCS_TanimotoCombo>
1.031 

> <ROCS_ShapeTanimoto>
0.500 

> <ROCS_ColorTanimoto>
0.532 

> <ROCS_RefTversky>
0.422 

> <ROCS_RefColorTversky>
0.652 

> <ROCS_RefTverskyCombo>
1.074 

> <ROCS_FitTversky>
1.590 

> <ROCS_FitColorTversky>
0.742 

> <ROCS_FitTverskyCombo>
2.332 

> <ROCS_ColorScore>
-6.260

> <ROCS_Overlap>
1037.805

> <ROCS_Rank>
274                 

$$$$
untitled-dbase-6375_0
  -OEChem-06232314403D

 23 25  0     1  0  0  0  0  0999 V2000
  -13.4193   14.7624  -39.4285 C   0  0  0  0  0  0  0  0  0  0  0  0
  -13.2178   16.0857  -39.3228 C   0  0  0  0  0  0  0  0  0  0  0  0
  -10.6525   13.6316  -37.0447 C   0  0  0  0  0  0  0  0  0  0  0  0
  -10.3525   15.8531  -36.7609 C   0  0  0  0  0  0  0  0  0  0  0  0
  -13.2498   15.2433  -37.1871 C   0  0  0  0  0  0  0  0  0  0  0  0
  -12.8746   14.1256  -38.1694 C   0  0  2  0  0  0  0  0  0  0  0  0
  -12.5244   16.3283  -37.9984 C   0  0  1  0  0  0  0  0  0  0  0  0
  -11.3323   14.2378  -38.2329 C   0  0  1  0  0  0  0  0  0  0  0  0
  -11.0812   15.7541  -38.0768 C   0  0  2  0  0  0  0  0  0  0  0  0
  -10.2028   16.3464  -39.1752 C   0  0  0  0  0  0  0  0  0  0  0  0
  -10.6041   12.4373  -36.7921 O   0  0  0  0  0  0  0  0  0  0  0  0
  -10.0169   16.8906  -36.2093 O   0  0  0  0  0  0  0  0  0  0  0  0
  -10.1081   14.6070  -36.2666 O   0  0  0  0  0  0  0  0  0  0  0  0
  -13.8441   14.2433  -40.2725 H   0  0  0  0  0  0  0  0  0  0  0  0
  -13.4484   16.8308  -40.0671 H   0  0  0  0  0  0  0  0  0  0  0  0
  -14.3327   15.4096  -37.1077 H   0  0  0  0  0  0  0  0  0  0  0  0
  -12.8532   15.0987  -36.1774 H   0  0  0  0  0  0  0  0  0  0  0  0
  -13.2892   13.1474  -37.9224 H   0  0  0  0  0  0  0  0  0  0  0  0
  -12.6301   17.3353  -37.5919 H   0  0  0  0  0  0  0  0  0  0  0  0
  -10.9029   13.8238  -39.1518 H   0  0  0  0  0  0  0  0  0  0  0  0
  -10.7154   16.2826  -40.1341 H   0  0  0  0  0  0  0  0  0  0  0  0
   -9.2647   15.7962  -39.2361 H   0  0  0  0  0  0  0  0  0  0  0  0
   -9.9888   17.3914  -38.9550 H   0  0  0  0  0  0  0  0  0  0  0  0
  1  2  2  0  0  0  0
  1  6  1  0  0  0  0
  2  7  1  0  0  0  0
  3  8  1  0  0  0  0
  3 11  2  0  0  0  0
  3 13  1  0  0  0  0
  4  9  1  0  0  0  0
  4 12  2  0  0  0  0
  4 13  1  0  0  0  0
  5  6  1  0  0  0  0
  5  7  1  0  0  0  0
  6  8  1  0  0  0  0
  7  9  1  0  0  0  0
  8  9  1  0  0  0  0
  9 10  1  0  0  0  0
  1 14  1  0  0  0  0
  2 15  1  0  0  0  0
  5 16  1  0  0  0  0
  5 17  1  0  0  0  0
  6 18  1  0  0  0  0
  7 19  1  0  0  0  0
  8 20  1  0  0  0  0
 10 21  1  0  0  0  0
 10 22  1  0  0  0  0
 10 23  1  0  0  0  0
M  END
> <id>
EN300-244175

> <smiles>
CC12C3CC(C=C3)C2C(=O)OC1=O

> <MDLNUMBER>
MFCD00135202

> <IUPAC Name>
2-methyl-4-oxatricyclo[5.2.1.0,2,6]dec-8-ene-3,5-dione

> <CAS>
53228-22-1

> <URL>
https://www.enaminestore.com/catalog/EN300-244175

> <ROCS_ShapeQuery>
_x1247relevant_x1083L0AP1_x1305L0BP1_

> <ROCS_TanimotoCombo>
1.031 

> <ROCS_ShapeTanimoto>
0.503 

> <ROCS_ColorTanimoto>
0.528 

> <ROCS_RefTversky>
0.432 

> <ROCS_RefColorTversky>
0.686 

> <ROCS_RefTverskyCombo>
1.118 

> <ROCS_FitTversky>
1.491 

> <ROCS_FitColorTversky>
0.697 

> <ROCS_FitTverskyCombo>
2.187 

> <ROCS_ColorScore>
-6.624

> <ROCS_Overlap>
1063.741

> <ROCS_Rank>
275                 

$$$$
untitled-dbase-26515_0
  -OEChem-06232314403D

 20 21  0     1  0  0  0  0  0999 V2000
  -12.3772   14.0900  -37.7075 C   0  0  0  0  0  0  0  0  0  0  0  0
  -13.7673   16.0359  -37.6474 C   0  0  0  0  0  0  0  0  0  0  0  0
  -11.6271   15.4054  -39.5606 C   0  0  0  0  0  0  0  0  0  0  0  0
  -12.3550   15.5564  -37.2651 C   0  0  2  0  0  0  0  0  0  0  0  0
  -12.7619   14.4424  -39.1477 C   0  0  2  0  0  0  0  0  0  0  0  0
  -14.0709   15.2231  -38.9168 C   0  0  2  0  0  0  0  0  0  0  0  0
  -11.3362   16.1356  -38.2508 C   0  0  0  0  0  0  0  0  0  0  0  0
  -14.4097   16.0651  -40.0005 O   0  0  0  0  0  0  0  0  0  0  0  0
  -10.0770   15.8618  -37.8371 F   0  0  0  0  0  0  0  0  0  0  0  0
  -11.4424   17.4709  -38.3729 F   0  0  0  0  0  0  0  0  0  0  0  0
  -11.4025   13.5972  -37.6290 H   0  0  0  0  0  0  0  0  0  0  0  0
  -13.1353   13.4929  -37.1899 H   0  0  0  0  0  0  0  0  0  0  0  0
  -14.4769   15.7651  -36.8569 H   0  0  0  0  0  0  0  0  0  0  0  0
  -13.8218   17.1182  -37.8008 H   0  0  0  0  0  0  0  0  0  0  0  0
  -10.7487   14.8352  -39.8827 H   0  0  0  0  0  0  0  0  0  0  0  0
  -11.9187   16.0852  -40.3656 H   0  0  0  0  0  0  0  0  0  0  0  0
  -12.0959   15.7203  -36.2176 H   0  0  0  0  0  0  0  0  0  0  0  0
  -12.8749   13.5993  -39.8325 H   0  0  0  0  0  0  0  0  0  0  0  0
  -14.9085   14.5403  -38.7322 H   0  0  0  0  0  0  0  0  0  0  0  0
  -14.5884   15.4913  -40.7659 H   0  0  0  0  0  0  0  0  0  0  0  0
  1  4  1  0  0  0  0
  1  5  1  0  0  0  0
  2  4  1  1  0  0  0
  2  6  1  0  0  0  0
  3  5  1  1  0  0  0
  3  7  1  0  0  0  0
  4  7  1  0  0  0  0
  5  6  1  0  0  0  0
  6  8  1  1  0  0  0
  7  9  1  0  0  0  0
  7 10  1  0  0  0  0
  1 11  1  0  0  0  0
  1 12  1  0  0  0  0
  2 13  1  0  0  0  0
  2 14  1  0  0  0  0
  3 15  1  0  0  0  0
  3 16  1  0  0  0  0
  4 17  1  0  0  0  0
  5 18  1  0  0  0  0
  6 19  1  0  0  0  0
  8 20  1  0  0  0  0
M  END
> <id>
EN300-7425777

> <smiles>
O[C@@H]1C[C@H]2C[C@@H]1CC2(F)F |&1:1,3,5,r|

> <IUPAC Name>
rac-(1R,2R,4R)-5,5-difluorobicyclo[2.2.1]heptan-2-ol

> <CAS>
1044942-90-6

> <Purity>
95

> <URL>
https://www.enaminestore.com/catalog/EN300-7425777

> <ROCS_ShapeQuery>
_x1247relevant_x1083L0AP1_x1305L0BP1_

> <ROCS_TanimotoCombo>
1.031 

> <ROCS_ShapeTanimoto>
0.413 

> <ROCS_ColorTanimoto>
0.619 

> <ROCS_RefTversky>
0.358 

> <ROCS_RefColorTversky>
0.716 

> <ROCS_RefTverskyCombo>
1.074 

> <ROCS_FitTversky>
1.579 

> <ROCS_FitColorTversky>
0.820 

> <ROCS_FitTverskyCombo>
2.399 

> <ROCS_ColorScore>
-6.869

> <ROCS_Overlap>
880.027

> <ROCS_Rank>
276                 

$$$$
untitled-dbase-27185_40
  -OEChem-06232314403D

 37 38  0     1  0  0  0  0  0999 V2000
  -10.1862   14.6214  -37.5446 C   0  0  0  0  0  0  0  0  0  0  0  0
  -13.7864   14.3890  -37.4383 C   0  0  0  0  0  0  0  0  0  0  0  0
  -13.5194   15.8506  -37.0254 C   0  0  0  0  0  0  0  0  0  0  0  0
  -12.6903   14.2815  -39.7429 C   0  0  0  0  0  0  0  0  0  0  0  0
  -12.2493   16.7396  -39.0558 C   0  0  0  0  0  0  0  0  0  0  0  0
  -12.5471   13.9715  -38.2385 C   0  0  1  0  0  0  0  0  0  0  0  0
  -12.1472   16.1839  -37.6201 C   0  0  2  0  0  0  0  0  0  0  0  0
  -12.9585   15.7760  -40.0329 C   0  0  0  0  0  0  0  0  0  0  0  0
   -9.7110   14.0957  -35.0225 C   0  0  0  0  0  0  0  0  0  0  0  0
   -9.7801   11.6447  -35.5675 C   0  0  0  0  0  0  0  0  0  0  0  0
   -7.7910   13.0207  -36.2442 C   0  0  0  0  0  0  0  0  0  0  0  0
   -9.3037   13.0203  -36.0288 C   0  0  0  0  0  0  0  0  0  0  0  0
  -11.5323   14.8743  -37.7208 N   0  0  0  0  0  0  0  0  0  0  0  0
   -9.3073   15.4771  -37.6183 O   0  0  0  0  0  0  0  0  0  0  0  0
  -14.3630   16.0305  -39.9783 O   0  0  0  0  0  0  0  0  0  0  0  0
   -9.9423   13.3011  -37.2792 O   0  0  0  0  0  0  0  0  0  0  0  0
  -13.8760   13.7737  -36.5349 H   0  0  0  0  0  0  0  0  0  0  0  0
  -14.7185   14.2819  -38.0013 H   0  0  0  0  0  0  0  0  0  0  0  0
  -14.3101   16.5264  -37.3652 H   0  0  0  0  0  0  0  0  0  0  0  0
  -13.4816   15.9122  -35.9312 H   0  0  0  0  0  0  0  0  0  0  0  0
  -11.7563   13.9918  -40.2416 H   0  0  0  0  0  0  0  0  0  0  0  0
  -13.4913   13.6646  -40.1673 H   0  0  0  0  0  0  0  0  0  0  0  0
  -12.7620   17.7085  -39.0344 H   0  0  0  0  0  0  0  0  0  0  0  0
  -11.2307   16.9192  -39.4242 H   0  0  0  0  0  0  0  0  0  0  0  0
  -12.2866   12.9204  -38.0842 H   0  0  0  0  0  0  0  0  0  0  0  0
  -11.5650   16.8596  -36.9859 H   0  0  0  0  0  0  0  0  0  0  0  0
  -12.6497   16.0086  -41.0582 H   0  0  0  0  0  0  0  0  0  0  0  0
   -9.3709   15.0846  -35.3500 H   0  0  0  0  0  0  0  0  0  0  0  0
  -10.7967   14.1292  -34.8853 H   0  0  0  0  0  0  0  0  0  0  0  0
   -9.2443   13.9155  -34.0473 H   0  0  0  0  0  0  0  0  0  0  0  0
   -9.4901   10.8700  -36.2866 H   0  0  0  0  0  0  0  0  0  0  0  0
  -10.8737   11.6118  -35.5029 H   0  0  0  0  0  0  0  0  0  0  0  0
   -9.3668   11.3813  -34.5886 H   0  0  0  0  0  0  0  0  0  0  0  0
   -7.4986   12.2495  -36.9660 H   0  0  0  0  0  0  0  0  0  0  0  0
   -7.4360   13.9894  -36.6108 H   0  0  0  0  0  0  0  0  0  0  0  0
   -7.2645   12.7871  -35.3117 H   0  0  0  0  0  0  0  0  0  0  0  0
  -14.7690   15.4684  -40.6549 H   0  0  0  0  0  0  0  0  0  0  0  0
  1 13  1  0  0  0  0
  1 14  2  0  0  0  0
  1 16  1  0  0  0  0
  2  3  1  0  0  0  0
  2  6  1  1  0  0  0
  3  7  1  1  0  0  0
  4  6  1  0  0  0  0
  4  8  1  0  0  0  0
  5  7  1  0  0  0  0
  5  8  1  0  0  0  0
  6 13  1  0  0  0  0
  7 13  1  0  0  0  0
  8 15  1  1  0  0  0
  9 12  1  0  0  0  0
 10 12  1  0  0  0  0
 11 12  1  0  0  0  0
 12 16  1  0  0  0  0
  2 17  1  0  0  0  0
  2 18  1  0  0  0  0
  3 19  1  0  0  0  0
  3 20  1  0  0  0  0
  4 21  1  0  0  0  0
  4 22  1  0  0  0  0
  5 23  1  0  0  0  0
  5 24  1  0  0  0  0
  6 25  1  0  0  0  0
  7 26  1  0  0  0  0
  8 27  1  0  0  0  0
  9 28  1  0  0  0  0
  9 29  1  0  0  0  0
  9 30  1  0  0  0  0
 10 31  1  0  0  0  0
 10 32  1  0  0  0  0
 10 33  1  0  0  0  0
 11 34  1  0  0  0  0
 11 35  1  0  0  0  0
 11 36  1  0  0  0  0
 15 37  1  0  0  0  0
M  END
> <id>
EN300-6489446

> <smiles>
CC(C)(C)OC(=O)N1[C@H]2CC[C@@H]1C[C@H](O)C2

> <MDLNUMBER>
MFCD22409620

> <IUPAC Name>
tert-butyl (1R,3R,5S)-3-hydroxy-8-azabicyclo[3.2.1]octane-8-carboxylate

> <CAS>
143557-91-9

> <Purity>
95

> <URL>
https://www.enaminestore.com/catalog/EN300-6489446

> <ROCS_ShapeQuery>
_x1247relevant_x1083L0AP1_x1305L0BP1_

> <ROCS_TanimotoCombo>
1.031 

> <ROCS_ShapeTanimoto>
0.524 

> <ROCS_ColorTanimoto>
0.507 

> <ROCS_RefTversky>
0.455 

> <ROCS_RefColorTversky>
0.678 

> <ROCS_RefTverskyCombo>
1.133 

> <ROCS_FitTversky>
1.404 

> <ROCS_FitColorTversky>
0.668 

> <ROCS_FitTverskyCombo>
2.073 

> <ROCS_ColorScore>
-6.559

> <ROCS_Overlap>
1123.634

> <ROCS_Rank>
277                 

$$$$
untitled-dbase-40666_0
  -OEChem-06232314403D

 31 33  0     0  0  0  0  0  0999 V2000
  -11.3153   15.3321  -37.0470 C   0  0  0  0  0  0  0  0  0  0  0  0
  -11.8511   16.5696  -39.1579 C   0  0  0  0  0  0  0  0  0  0  0  0
  -13.5995   16.3076  -37.3696 C   0  0  0  0  0  0  0  0  0  0  0  0
  -11.5334   14.0967  -39.2134 C   0  0  0  0  0  0  0  0  0  0  0  0
  -13.2859   13.8341  -37.4208 C   0  0  0  0  0  0  0  0  0  0  0  0
  -12.0992   16.5143  -37.6404 C   0  0  0  0  0  0  0  0  0  0  0  0
  -11.7830   14.0188  -37.6968 C   0  0  0  0  0  0  0  0  0  0  0  0
  -12.3383   15.2626  -39.8287 C   0  0  0  0  0  0  0  0  0  0  0  0
  -14.0899   15.0002  -38.0371 C   0  0  0  0  0  0  0  0  0  0  0  0
  -13.8664   15.0723  -39.5792 C   0  0  0  0  0  0  0  0  0  0  0  0
  -14.4040   13.8126  -40.2915 C   0  0  0  0  0  0  0  0  0  0  0  0
  -14.6412   16.1710  -40.1848 N   0  0  0  0  0  0  0  0  0  0  0  0
  -10.2400   15.4721  -37.2140 H   0  0  0  0  0  0  0  0  0  0  0  0
  -11.4646   15.2888  -35.9613 H   0  0  0  0  0  0  0  0  0  0  0  0
  -12.3380   17.4488  -39.5928 H   0  0  0  0  0  0  0  0  0  0  0  0
  -10.7778   16.6992  -39.3485 H   0  0  0  0  0  0  0  0  0  0  0  0
  -13.7729   16.2523  -36.2871 H   0  0  0  0  0  0  0  0  0  0  0  0
  -14.1729   17.1727  -37.7199 H   0  0  0  0  0  0  0  0  0  0  0  0
  -10.4629   14.2476  -39.4031 H   0  0  0  0  0  0  0  0  0  0  0  0
  -11.7910   13.1450  -39.6891 H   0  0  0  0  0  0  0  0  0  0  0  0
  -13.6278   12.8701  -37.8114 H   0  0  0  0  0  0  0  0  0  0  0  0
  -13.4597   13.7987  -36.3375 H   0  0  0  0  0  0  0  0  0  0  0  0
  -11.7635   17.4477  -37.1750 H   0  0  0  0  0  0  0  0  0  0  0  0
  -11.2223   13.1791  -37.2714 H   0  0  0  0  0  0  0  0  0  0  0  0
  -12.1325   15.3126  -40.9050 H   0  0  0  0  0  0  0  0  0  0  0  0
  -15.1547   14.8597  -37.8128 H   0  0  0  0  0  0  0  0  0  0  0  0
  -15.4647   13.7202  -40.0918 H   0  0  0  0  0  0  0  0  0  0  0  0
  -13.8799   12.9432  -39.9136 H   0  0  0  0  0  0  0  0  0  0  0  0
  -14.2359   13.9113  -41.3572 H   0  0  0  0  0  0  0  0  0  0  0  0
  -14.3367   17.0135  -39.7678 H   0  0  0  0  0  0  0  0  0  0  0  0
  -14.4579   16.1621  -41.1559 H   0  0  0  0  0  0  0  0  0  0  0  0
  1  6  1  0  0  0  0
  1  7  1  0  0  0  0
  2  6  1  0  0  0  0
  2  8  1  0  0  0  0
  3  6  1  0  0  0  0
  3  9  1  0  0  0  0
  4  7  1  0  0  0  0
  4  8  1  0  0  0  0
  5  7  1  0  0  0  0
  5  9  1  0  0  0  0
  8 10  1  0  0  0  0
  9 10  1  0  0  0  0
 10 11  1  0  0  0  0
 10 12  1  0  0  0  0
  1 13  1  0  0  0  0
  1 14  1  0  0  0  0
  2 15  1  0  0  0  0
  2 16  1  0  0  0  0
  3 17  1  0  0  0  0
  3 18  1  0  0  0  0
  4 19  1  0  0  0  0
  4 20  1  0  0  0  0
  5 21  1  0  0  0  0
  5 22  1  0  0  0  0
  6 23  1  0  0  0  0
  7 24  1  0  0  0  0
  8 25  1  0  0  0  0
  9 26  1  0  0  0  0
 11 27  1  0  0  0  0
 11 28  1  0  0  0  0
 11 29  1  0  0  0  0
 12 30  1  0  0  0  0
 12 31  1  0  0  0  0
M  END
> <id>
EN300-3000786

> <smiles>
CC1(N)C2CC3CC(C2)CC1C3

> <IUPAC Name>
2-methyladamantan-2-amine

> <CAS>
916592-46-6

> <URL>
https://www.enaminestore.com/catalog/EN300-3000786

> <ROCS_ShapeQuery>
_x1247relevant_x1083L0AP1_x1305L0BP1_

> <ROCS_TanimotoCombo>
1.031 

> <ROCS_ShapeTanimoto>
0.473 

> <ROCS_ColorTanimoto>
0.558 

> <ROCS_RefTversky>
0.404 

> <ROCS_RefColorTversky>
0.675 

> <ROCS_RefTverskyCombo>
1.079 

> <ROCS_FitTversky>
1.565 

> <ROCS_FitColorTversky>
0.762 

> <ROCS_FitTverskyCombo>
2.327 

> <ROCS_ColorScore>
-6.486

> <ROCS_Overlap>
994.089

> <ROCS_Rank>
278                 

$$$$
untitled-dbase-41325_0
  -OEChem-06232314403D

 31 33  0     0  0  0  0  0  0999 V2000
  -11.3153   15.3321  -37.0470 C   0  0  0  0  0  0  0  0  0  0  0  0
  -11.8511   16.5696  -39.1579 C   0  0  0  0  0  0  0  0  0  0  0  0
  -13.5995   16.3076  -37.3696 C   0  0  0  0  0  0  0  0  0  0  0  0
  -11.5334   14.0967  -39.2134 C   0  0  0  0  0  0  0  0  0  0  0  0
  -13.2859   13.8341  -37.4208 C   0  0  0  0  0  0  0  0  0  0  0  0
  -12.0992   16.5143  -37.6404 C   0  0  0  0  0  0  0  0  0  0  0  0
  -11.7830   14.0188  -37.6968 C   0  0  0  0  0  0  0  0  0  0  0  0
  -12.3383   15.2626  -39.8287 C   0  0  0  0  0  0  0  0  0  0  0  0
  -14.0899   15.0002  -38.0371 C   0  0  0  0  0  0  0  0  0  0  0  0
  -13.8664   15.0723  -39.5792 C   0  0  0  0  0  0  0  0  0  0  0  0
  -14.4040   13.8126  -40.2915 C   0  0  0  0  0  0  0  0  0  0  0  0
  -14.6412   16.1710  -40.1848 N   0  0  0  0  0  0  0  0  0  0  0  0
  -10.2400   15.4721  -37.2140 H   0  0  0  0  0  0  0  0  0  0  0  0
  -11.4646   15.2888  -35.9613 H   0  0  0  0  0  0  0  0  0  0  0  0
  -12.3380   17.4488  -39.5928 H   0  0  0  0  0  0  0  0  0  0  0  0
  -10.7778   16.6992  -39.3485 H   0  0  0  0  0  0  0  0  0  0  0  0
  -13.7729   16.2523  -36.2871 H   0  0  0  0  0  0  0  0  0  0  0  0
  -14.1729   17.1727  -37.7199 H   0  0  0  0  0  0  0  0  0  0  0  0
  -10.4629   14.2476  -39.4031 H   0  0  0  0  0  0  0  0  0  0  0  0
  -11.7910   13.1450  -39.6891 H   0  0  0  0  0  0  0  0  0  0  0  0
  -13.6278   12.8701  -37.8114 H   0  0  0  0  0  0  0  0  0  0  0  0
  -13.4597   13.7987  -36.3375 H   0  0  0  0  0  0  0  0  0  0  0  0
  -11.7635   17.4477  -37.1750 H   0  0  0  0  0  0  0  0  0  0  0  0
  -11.2223   13.1791  -37.2714 H   0  0  0  0  0  0  0  0  0  0  0  0
  -12.1325   15.3126  -40.9050 H   0  0  0  0  0  0  0  0  0  0  0  0
  -15.1547   14.8597  -37.8128 H   0  0  0  0  0  0  0  0  0  0  0  0
  -15.4647   13.7202  -40.0918 H   0  0  0  0  0  0  0  0  0  0  0  0
  -13.8799   12.9432  -39.9136 H   0  0  0  0  0  0  0  0  0  0  0  0
  -14.2359   13.9113  -41.3572 H   0  0  0  0  0  0  0  0  0  0  0  0
  -14.3367   17.0135  -39.7678 H   0  0  0  0  0  0  0  0  0  0  0  0
  -14.4579   16.1621  -41.1559 H   0  0  0  0  0  0  0  0  0  0  0  0
  1  6  1  0  0  0  0
  1  7  1  0  0  0  0
  2  6  1  0  0  0  0
  2  8  1  0  0  0  0
  3  6  1  0  0  0  0
  3  9  1  0  0  0  0
  4  7  1  0  0  0  0
  4  8  1  0  0  0  0
  5  7  1  0  0  0  0
  5  9  1  0  0  0  0
  8 10  1  0  0  0  0
  9 10  1  0  0  0  0
 10 11  1  0  0  0  0
 10 12  1  0  0  0  0
  1 13  1  0  0  0  0
  1 14  1  0  0  0  0
  2 15  1  0  0  0  0
  2 16  1  0  0  0  0
  3 17  1  0  0  0  0
  3 18  1  0  0  0  0
  4 19  1  0  0  0  0
  4 20  1  0  0  0  0
  5 21  1  0  0  0  0
  5 22  1  0  0  0  0
  6 23  1  0  0  0  0
  7 24  1  0  0  0  0
  8 25  1  0  0  0  0
  9 26  1  0  0  0  0
 11 27  1  0  0  0  0
 11 28  1  0  0  0  0
 11 29  1  0  0  0  0
 12 30  1  0  0  0  0
 12 31  1  0  0  0  0
M  END
> <id>
EN300-8227220

> <smiles>
Cl.CC1(N)C2CC3CC(C2)CC1C3

> <IUPAC Name>
2-methyladamantan-2-amine hydrochloride

> <CAS>
1354420-15-7

> <Purity>
95

> <URL>
https://www.enaminestore.com/catalog/EN300-8227220

> <Saltdate>
Cl

> <ROCS_ShapeQuery>
_x1247relevant_x1083L0AP1_x1305L0BP1_

> <ROCS_TanimotoCombo>
1.031 

> <ROCS_ShapeTanimoto>
0.473 

> <ROCS_ColorTanimoto>
0.558 

> <ROCS_RefTversky>
0.404 

> <ROCS_RefColorTversky>
0.675 

> <ROCS_RefTverskyCombo>
1.079 

> <ROCS_FitTversky>
1.565 

> <ROCS_FitColorTversky>
0.762 

> <ROCS_FitTverskyCombo>
2.327 

> <ROCS_ColorScore>
-6.486

> <ROCS_Overlap>
994.089

> <ROCS_Rank>
279                 

$$$$
untitled-dbase-16151_0
  -OEChem-06232314403D

 21 23  0     1  0  0  0  0  0999 V2000
   -8.9621   14.2806  -36.8594 C   0  0  0  0  0  0  0  0  0  0  0  0
   -9.8304   14.2052  -35.7630 C   0  0  0  0  0  0  0  0  0  0  0  0
   -9.4222   14.7353  -38.0942 C   0  0  0  0  0  0  0  0  0  0  0  0
  -11.1700   14.5833  -35.8891 C   0  0  0  0  0  0  0  0  0  0  0  0
  -10.7548   15.1066  -38.2073 C   0  0  0  0  0  0  0  0  0  0  0  0
  -11.6430   15.0383  -37.1161 C   0  0  0  0  0  0  0  0  0  0  0  0
  -13.8872   14.6901  -39.2921 C   0  0  0  0  0  0  0  0  0  0  0  0
  -11.4308   15.6326  -39.4544 C   0  0  0  0  0  0  0  0  0  0  0  0
  -13.0529   15.5062  -37.5417 C   0  0  1  0  0  0  0  0  0  0  0  0
  -12.9094   15.8636  -39.0640 C   0  0  2  0  0  0  0  0  0  0  0  0
  -14.0119   14.4872  -37.9521 N   0  0  0  0  0  0  0  0  0  0  0  0
  -14.3748   14.1307  -40.2474 O   0  0  0  0  0  0  0  0  0  0  0  0
   -7.9231   13.9846  -36.7446 H   0  0  0  0  0  0  0  0  0  0  0  0
   -9.4585   13.8494  -34.8060 H   0  0  0  0  0  0  0  0  0  0  0  0
   -8.7503   14.7959  -38.9437 H   0  0  0  0  0  0  0  0  0  0  0  0
  -11.8360   14.5196  -35.0341 H   0  0  0  0  0  0  0  0  0  0  0  0
  -10.9669   16.5819  -39.7426 H   0  0  0  0  0  0  0  0  0  0  0  0
  -11.3444   14.9184  -40.2794 H   0  0  0  0  0  0  0  0  0  0  0  0
  -13.5060   16.2913  -36.9279 H   0  0  0  0  0  0  0  0  0  0  0  0
  -13.3154   16.8345  -39.3652 H   0  0  0  0  0  0  0  0  0  0  0  0
  -14.5428   13.7908  -37.4472 H   0  0  0  0  0  0  0  0  0  0  0  0
  1  2  2  0  0  0  0
  1  3  1  0  0  0  0
  2  4  1  0  0  0  0
  3  5  2  0  0  0  0
  4  6  2  0  0  0  0
  5  6  1  0  0  0  0
  5  8  1  0  0  0  0
  6  9  1  0  0  0  0
  7 10  1  0  0  0  0
  7 11  1  0  0  0  0
  7 12  2  0  0  0  0
  8 10  1  0  0  0  0
  9 10  1  0  0  0  0
  9 11  1  0  0  0  0
  1 13  1  0  0  0  0
  2 14  1  0  0  0  0
  3 15  1  0  0  0  0
  4 16  1  0  0  0  0
  8 17  1  0  0  0  0
  8 18  1  0  0  0  0
  9 19  1  0  0  0  0
 10 20  1  0  0  0  0
 11 21  1  0  0  0  0
M  END
> <id>
EN300-1247062

> <smiles>
O=C1NC2C1CC=3C=CC=CC23

> <MDLNUMBER>
MFCD07783049

> <IUPAC Name>
1H,2H,2aH,3H,7bH-indeno[1,2-b]azet-2-one

> <CAS>
40073-45-8

> <URL>
https://www.enaminestore.com/catalog/EN300-1247062

> <ROCS_ShapeQuery>
_x1247relevant_x1083L0AP1_x1305L0BP1_

> <ROCS_TanimotoCombo>
1.031 

> <ROCS_ShapeTanimoto>
0.499 

> <ROCS_ColorTanimoto>
0.532 

> <ROCS_RefTversky>
0.421 

> <ROCS_RefColorTversky>
0.652 

> <ROCS_RefTverskyCombo>
1.073 

> <ROCS_FitTversky>
1.588 

> <ROCS_FitColorTversky>
0.742 

> <ROCS_FitTverskyCombo>
2.330 

> <ROCS_ColorScore>
-6.261

> <ROCS_Overlap>
1036.616

> <ROCS_Rank>
280                 

$$$$
untitled-dbase-52514_1
  -OEChem-06232314403D

 24 25  0     1  0  0  0  0  0999 V2000
  -10.6452   13.8250  -36.9350 C   0  0  0  0  0  0  0  0  0  0  0  0
  -13.1532   16.2816  -37.7119 C   0  0  0  0  0  0  0  0  0  0  0  0
  -11.1762   15.4930  -38.7938 C   0  0  0  0  0  0  0  0  0  0  0  0
  -13.6733   14.1409  -38.4690 C   0  0  0  0  0  0  0  0  0  0  0  0
  -12.9175   14.8286  -37.3323 C   0  0  1  0  0  0  0  0  0  0  0  0
  -12.5689   16.0659  -39.1050 C   0  0  2  0  0  0  0  0  0  0  0  0
  -12.5847   17.2530  -40.0343 C   0  0  0  0  0  0  0  0  0  0  0  0
   -9.1939   14.2315  -36.9341 C   0  0  0  0  0  0  0  0  0  0  0  0
  -11.4898   14.6661  -37.6266 N   0  0  0  0  0  0  0  0  0  0  0  0
  -11.0113   12.8057  -36.3488 O   0  0  0  0  0  0  0  0  0  0  0  0
  -13.3745   14.9737  -39.6239 O   0  0  0  0  0  0  0  0  0  0  0  0
   -9.0207   15.3684  -37.6319 F   0  0  0  0  0  0  0  0  0  0  0  0
   -8.7597   14.4380  -35.6777 F   0  0  0  0  0  0  0  0  0  0  0  0
   -8.4300   13.2745  -37.4914 F   0  0  0  0  0  0  0  0  0  0  0  0
  -14.2163   16.5452  -37.7230 H   0  0  0  0  0  0  0  0  0  0  0  0
  -12.5930   16.9964  -37.1003 H   0  0  0  0  0  0  0  0  0  0  0  0
  -10.7778   14.8604  -39.5923 H   0  0  0  0  0  0  0  0  0  0  0  0
  -10.4480   16.2559  -38.5021 H   0  0  0  0  0  0  0  0  0  0  0  0
  -13.3461   13.1146  -38.6612 H   0  0  0  0  0  0  0  0  0  0  0  0
  -14.7569   14.1550  -38.3138 H   0  0  0  0  0  0  0  0  0  0  0  0
  -13.1947   14.5123  -36.3257 H   0  0  0  0  0  0  0  0  0  0  0  0
  -12.1449   16.9938  -41.0037 H   0  0  0  0  0  0  0  0  0  0  0  0
  -12.0111   18.0853  -39.6116 H   0  0  0  0  0  0  0  0  0  0  0  0
  -13.6101   17.5984  -40.2066 H   0  0  0  0  0  0  0  0  0  0  0  0
  1  8  1  0  0  0  0
  1  9  1  0  0  0  0
  1 10  2  0  0  0  0
  2  5  1  0  0  0  0
  2  6  1  0  0  0  0
  3  6  1  0  0  0  0
  3  9  1  0  0  0  0
  4  5  1  0  0  0  0
  4 11  1  0  0  0  0
  5  9  1  0  0  0  0
  6  7  1  0  0  0  0
  6 11  1  0  0  0  0
  8 12  1  0  0  0  0
  8 13  1  0  0  0  0
  8 14  1  0  0  0  0
  2 15  1  0  0  0  0
  2 16  1  0  0  0  0
  3 17  1  0  0  0  0
  3 18  1  0  0  0  0
  4 19  1  0  0  0  0
  4 20  1  0  0  0  0
  5 21  1  0  0  0  0
  7 22  1  0  0  0  0
  7 23  1  0  0  0  0
  7 24  1  0  0  0  0
M  END
> <id>
EN300-7072511

> <smiles>
CC1(CC2CO1)CN2C(=O)C(F)(F)F

> <MDLNUMBER>
MFCD32807111

> <IUPAC Name>
2,2,2-trifluoro-1-{1-methyl-2-oxa-5-azabicyclo[2.2.1]heptan-5-yl}ethan-1-one

> <URL>
https://www.enaminestore.com/catalog/EN300-7072511

> <ROCS_ShapeQuery>
_x1247relevant_x1083L0AP1_x1305L0BP1_

> <ROCS_TanimotoCombo>
1.031 

> <ROCS_ShapeTanimoto>
0.544 

> <ROCS_ColorTanimoto>
0.486 

> <ROCS_RefTversky>
0.459 

> <ROCS_RefColorTversky>
0.617 

> <ROCS_RefTverskyCombo>
1.076 

> <ROCS_FitTversky>
1.515 

> <ROCS_FitColorTversky>
0.697 

> <ROCS_FitTverskyCombo>
2.212 

> <ROCS_ColorScore>
-5.924

> <ROCS_Overlap>
1132.817

> <ROCS_Rank>
281                 

$$$$
untitled-dbase-1680_0
  -OEChem-06232314403D

 26 28  0     0  0  0  0  0  0999 V2000
  -12.3990   16.9349  -37.8804 C   0  0  0  0  0  0  0  0  0  0  0  0
  -14.3831   15.4088  -38.0658 C   0  0  0  0  0  0  0  0  0  0  0  0
  -12.3984   14.7264  -36.6877 C   0  0  0  0  0  0  0  0  0  0  0  0
  -12.8816   15.7686  -40.0498 C   0  0  0  0  0  0  0  0  0  0  0  0
  -10.8970   15.0863  -38.6719 C   0  0  0  0  0  0  0  0  0  0  0  0
  -12.8818   13.5536  -38.8591 C   0  0  0  0  0  0  0  0  0  0  0  0
  -13.2728   15.9160  -37.1264 C   0  0  0  0  0  0  0  0  0  0  0  0
  -11.7646   16.2776  -39.1195 C   0  0  0  0  0  0  0  0  0  0  0  0
  -13.7506   14.7445  -39.3004 C   0  0  0  0  0  0  0  0  0  0  0  0
  -11.7702   14.0638  -37.9253 C   0  0  0  0  0  0  0  0  0  0  0  0
  -15.1649   14.1077  -40.4861 Br  0  0  0  0  0  0  0  0  0  0  0  0
  -10.6616   12.5596  -37.3593 Br  0  0  0  0  0  0  0  0  0  0  0  0
  -13.0068   17.7958  -38.1842 H   0  0  0  0  0  0  0  0  0  0  0  0
  -11.6136   17.3168  -37.2168 H   0  0  0  0  0  0  0  0  0  0  0  0
  -15.0254   14.6987  -37.5285 H   0  0  0  0  0  0  0  0  0  0  0  0
  -15.0262   16.2476  -38.3628 H   0  0  0  0  0  0  0  0  0  0  0  0
  -11.6196   15.0764  -35.9974 H   0  0  0  0  0  0  0  0  0  0  0  0
  -13.0093   14.0055  -36.1286 H   0  0  0  0  0  0  0  0  0  0  0  0
  -13.4894   16.6160  -40.3936 H   0  0  0  0  0  0  0  0  0  0  0  0
  -12.4379   15.3189  -40.9478 H   0  0  0  0  0  0  0  0  0  0  0  0
  -10.4218   14.6258  -39.5480 H   0  0  0  0  0  0  0  0  0  0  0  0
  -10.0828   15.4448  -38.0283 H   0  0  0  0  0  0  0  0  0  0  0  0
  -13.4961   12.7990  -38.3480 H   0  0  0  0  0  0  0  0  0  0  0  0
  -12.4472   13.0504  -39.7342 H   0  0  0  0  0  0  0  0  0  0  0  0
  -13.7202   16.3918  -36.2465 H   0  0  0  0  0  0  0  0  0  0  0  0
  -11.1448   17.0091  -39.6500 H   0  0  0  0  0  0  0  0  0  0  0  0
  1  7  1  0  0  0  0
  1  8  1  0  0  0  0
  2  7  1  0  0  0  0
  2  9  1  0  0  0  0
  3  7  1  0  0  0  0
  3 10  1  0  0  0  0
  4  8  1  0  0  0  0
  4  9  1  0  0  0  0
  5  8  1  0  0  0  0
  5 10  1  0  0  0  0
  6  9  1  0  0  0  0
  6 10  1  0  0  0  0
  9 11  1  0  0  0  0
 10 12  1  0  0  0  0
  1 13  1  0  0  0  0
  1 14  1  0  0  0  0
  2 15  1  0  0  0  0
  2 16  1  0  0  0  0
  3 17  1  0  0  0  0
  3 18  1  0  0  0  0
  4 19  1  0  0  0  0
  4 20  1  0  0  0  0
  5 21  1  0  0  0  0
  5 22  1  0  0  0  0
  6 23  1  0  0  0  0
  6 24  1  0  0  0  0
  7 25  1  0  0  0  0
  8 26  1  0  0  0  0
M  END
> <id>
EN300-99195

> <smiles>
BrC1(CC2CC3C1)CC(Br)(C2)C3

> <IUPAC Name>
1,3-dibromoadamantane

> <CAS>
876-53-9

> <Purity>
95

> <URL>
https://www.enaminestore.com/catalog/EN300-99195

> <MP>
108-110

> <ROCS_ShapeQuery>
_x1247relevant_x1083L0AP1_x1305L0BP1_

> <ROCS_TanimotoCombo>
1.031 

> <ROCS_ShapeTanimoto>
0.461 

> <ROCS_ColorTanimoto>
0.570 

> <ROCS_RefTversky>
0.394 

> <ROCS_RefColorTversky>
0.686 

> <ROCS_RefTverskyCombo>
1.080 

> <ROCS_FitTversky>
1.580 

> <ROCS_FitColorTversky>
0.772 

> <ROCS_FitTverskyCombo>
2.352 

> <ROCS_ColorScore>
-6.585

> <ROCS_Overlap>
969.134

> <ROCS_Rank>
282                 

$$$$
untitled-dbase-50369_0
  -OEChem-06232314403D

 22 24  0     0  0  0  0  0  0999 V2000
   -9.7451   15.0395  -37.8417 C   0  0  0  0  0  0  0  0  0  0  0  0
  -12.9367   15.9074  -39.7224 C   0  0  0  0  0  0  0  0  0  0  0  0
  -13.1194   15.9163  -37.1505 C   0  0  0  0  0  0  0  0  0  0  0  0
  -13.1770   13.9731  -37.9894 C   0  0  0  0  0  0  0  0  0  0  0  0
  -11.4250   15.6322  -39.6368 C   0  0  0  0  0  0  0  0  0  0  0  0
  -11.1998   14.3183  -36.1855 C   0  0  0  0  0  0  0  0  0  0  0  0
  -13.6891   15.3609  -38.4944 C   0  0  0  0  0  0  0  0  0  0  0  0
  -12.0369   14.8111  -37.3324 C   0  0  0  0  0  0  0  0  0  0  0  0
  -11.0206   15.2110  -38.3063 N   0  0  0  0  0  0  0  0  0  0  0  0
   -8.6945   15.2692  -38.4229 O   0  0  0  0  0  0  0  0  0  0  0  0
   -9.8178   14.5394  -36.5634 O   0  0  0  0  0  0  0  0  0  0  0  0
  -13.1106   16.9874  -39.7979 H   0  0  0  0  0  0  0  0  0  0  0  0
  -13.3379   15.4527  -40.6353 H   0  0  0  0  0  0  0  0  0  0  0  0
  -12.7718   16.9534  -37.1601 H   0  0  0  0  0  0  0  0  0  0  0  0
  -13.7753   15.7754  -36.2829 H   0  0  0  0  0  0  0  0  0  0  0  0
  -13.8431   13.4717  -37.2770 H   0  0  0  0  0  0  0  0  0  0  0  0
  -12.8828   13.2537  -38.7589 H   0  0  0  0  0  0  0  0  0  0  0  0
  -11.1496   14.8223  -40.3222 H   0  0  0  0  0  0  0  0  0  0  0  0
  -10.8380   16.5080  -39.9326 H   0  0  0  0  0  0  0  0  0  0  0  0
  -11.3906   14.8685  -35.2592 H   0  0  0  0  0  0  0  0  0  0  0  0
  -11.3305   13.2474  -36.0023 H   0  0  0  0  0  0  0  0  0  0  0  0
  -14.7751   15.4465  -38.6004 H   0  0  0  0  0  0  0  0  0  0  0  0
  1  9  1  0  0  0  0
  1 10  2  0  0  0  0
  1 11  1  0  0  0  0
  2  5  1  0  0  0  0
  2  7  1  0  0  0  0
  3  7  1  0  0  0  0
  3  8  1  0  0  0  0
  4  7  1  0  0  0  0
  4  8  1  0  0  0  0
  5  9  1  0  0  0  0
  6  8  1  0  0  0  0
  6 11  1  0  0  0  0
  8  9  1  0  0  0  0
  2 12  1  0  0  0  0
  2 13  1  0  0  0  0
  3 14  1  0  0  0  0
  3 15  1  0  0  0  0
  4 16  1  0  0  0  0
  4 17  1  0  0  0  0
  5 18  1  0  0  0  0
  5 19  1  0  0  0  0
  6 20  1  0  0  0  0
  6 21  1  0  0  0  0
  7 22  1  0  0  0  0
M  END
> <id>
EN300-37351363

> <smiles>
O=C1OCC2(CC3C2)N1CC3

> <IUPAC Name>
3-oxa-5-azatricyclo[6.1.1.0,1,5]decan-4-one

> <CAS>
2763777-76-8

> <Purity>
95

> <URL>
https://www.enaminestore.com/catalog/EN300-37351363

> <ROCS_ShapeQuery>
_x1247relevant_x1083L0AP1_x1305L0BP1_

> <ROCS_TanimotoCombo>
1.031 

> <ROCS_ShapeTanimoto>
0.477 

> <ROCS_ColorTanimoto>
0.554 

> <ROCS_RefTversky>
0.403 

> <ROCS_RefColorTversky>
0.662 

> <ROCS_RefTverskyCombo>
1.065 

> <ROCS_FitTversky>
1.619 

> <ROCS_FitColorTversky>
0.773 

> <ROCS_FitTverskyCombo>
2.392 

> <ROCS_ColorScore>
-6.350

> <ROCS_Overlap>
991.112

> <ROCS_Rank>
283                 

$$$$
untitled-dbase-4383_0
  -OEChem-06232314403D

 26 28  0     1  0  0  0  0  0999 V2000
  -11.2178   15.1903  -39.1532 C   0  0  0  0  0  0  0  0  0  0  0  0
   -9.2249   14.9596  -36.0543 C   0  0  0  0  0  0  0  0  0  0  0  0
   -9.4055   13.5909  -36.6896 C   0  0  0  0  0  0  0  0  0  0  0  0
   -9.9595   15.9008  -37.0062 C   0  0  0  0  0  0  0  0  0  0  0  0
  -10.8693   13.6080  -37.1123 C   0  0  0  0  0  0  0  0  0  0  0  0
  -13.7952   15.4075  -39.5521 C   0  0  0  0  0  0  0  0  0  0  0  0
  -14.0952   14.2363  -38.6226 C   0  0  0  0  0  0  0  0  0  0  0  0
  -12.5068   16.0174  -39.0247 C   0  0  1  0  0  0  0  0  0  0  0  0
  -12.5454   15.6165  -37.5294 C   0  0  2  0  0  0  0  0  0  0  0  0
  -11.0849   15.0419  -37.6050 C   0  0  0  0  0  0  0  0  0  0  0  0
  -10.5630   14.8069  -40.0995 O   0  0  0  0  0  0  0  0  0  0  0  0
  -13.6234   14.6633  -37.3386 O   0  0  0  0  0  0  0  0  0  0  0  0
   -9.7001   14.9800  -35.0661 H   0  0  0  0  0  0  0  0  0  0  0  0
   -8.1731   15.2329  -35.9318 H   0  0  0  0  0  0  0  0  0  0  0  0
   -8.7556   13.4921  -37.5670 H   0  0  0  0  0  0  0  0  0  0  0  0
   -9.1823   12.7736  -35.9983 H   0  0  0  0  0  0  0  0  0  0  0  0
  -10.3328   16.7826  -36.4760 H   0  0  0  0  0  0  0  0  0  0  0  0
   -9.2713   16.2433  -37.7884 H   0  0  0  0  0  0  0  0  0  0  0  0
  -11.0851   12.8516  -37.8731 H   0  0  0  0  0  0  0  0  0  0  0  0
  -11.4992   13.4039  -36.2382 H   0  0  0  0  0  0  0  0  0  0  0  0
  -13.7273   15.0986  -40.5992 H   0  0  0  0  0  0  0  0  0  0  0  0
  -14.6007   16.1473  -39.4708 H   0  0  0  0  0  0  0  0  0  0  0  0
  -15.1630   14.0078  -38.5735 H   0  0  0  0  0  0  0  0  0  0  0  0
  -13.5444   13.3362  -38.9133 H   0  0  0  0  0  0  0  0  0  0  0  0
  -12.3605   17.0806  -39.2331 H   0  0  0  0  0  0  0  0  0  0  0  0
  -12.6671   16.4601  -36.8417 H   0  0  0  0  0  0  0  0  0  0  0  0
  1  8  1  0  0  0  0
  1 10  1  0  0  0  0
  1 11  2  0  0  0  0
  2  3  1  0  0  0  0
  2  4  1  0  0  0  0
  3  5  1  0  0  0  0
  4 10  1  0  0  0  0
  5 10  1  0  0  0  0
  6  7  1  0  0  0  0
  6  8  1  1  0  0  0
  7 12  1  0  0  0  0
  8  9  1  0  0  0  0
  9 10  1  0  0  0  0
  9 12  1  1  0  0  0
  2 13  1  0  0  0  0
  2 14  1  0  0  0  0
  3 15  1  0  0  0  0
  3 16  1  0  0  0  0
  4 17  1  0  0  0  0
  4 18  1  0  0  0  0
  5 19  1  0  0  0  0
  5 20  1  0  0  0  0
  6 21  1  0  0  0  0
  6 22  1  0  0  0  0
  7 23  1  0  0  0  0
  7 24  1  0  0  0  0
  8 25  1  0  0  0  0
  9 26  1  0  0  0  0
M  END
> <id>
EN300-187359

> <smiles>
O=C1[C@H]2CCO[C@H]2C31CCCC3

> <MDLNUMBER>
MFCD28390151

> <IUPAC Name>
(1S,5R)-4-oxaspiro[bicyclo[3.2.0]heptane-6,1'-cyclopentane]-7-one

> <CAS>
1807938-13-1

> <URL>
https://www.enaminestore.com/catalog/EN300-187359

> <ROCS_ShapeQuery>
_x1247relevant_x1083L0AP1_x1305L0BP1_

> <ROCS_TanimotoCombo>
1.031 

> <ROCS_ShapeTanimoto>
0.494 

> <ROCS_ColorTanimoto>
0.536 

> <ROCS_RefTversky>
0.416 

> <ROCS_RefColorTversky>
0.659 

> <ROCS_RefTverskyCombo>
1.075 

> <ROCS_FitTversky>
1.610 

> <ROCS_FitColorTversky>
0.743 

> <ROCS_FitTverskyCombo>
2.353 

> <ROCS_ColorScore>
-6.326

> <ROCS_Overlap>
1024.021

> <ROCS_Rank>
284                 

$$$$
untitled-dbase-17790_0
  -OEChem-06232314403D

 23 25  0     1  0  0  0  0  0999 V2000
   -9.0560   14.9398  -36.8450 C   0  0  0  0  0  0  0  0  0  0  0  0
   -9.7566   14.0371  -36.0455 C   0  0  0  0  0  0  0  0  0  0  0  0
   -9.7110   15.6197  -37.8720 C   0  0  0  0  0  0  0  0  0  0  0  0
  -11.1149   13.8109  -36.2709 C   0  0  0  0  0  0  0  0  0  0  0  0
  -11.0740   15.3984  -38.0887 C   0  0  0  0  0  0  0  0  0  0  0  0
  -11.7791   14.4977  -37.2892 C   0  0  0  0  0  0  0  0  0  0  0  0
  -11.7654   16.1019  -39.1807 C   0  0  0  0  0  0  0  0  0  0  0  0
  -14.0254   14.9723  -39.6533 C   0  0  0  0  0  0  0  0  0  0  0  0
  -13.9054   15.1580  -38.1629 C   0  0  2  0  0  0  0  0  0  0  0  0
  -13.2515   16.1484  -39.1011 C   0  0  1  0  0  0  0  0  0  0  0  0
  -13.8988   17.5082  -39.2113 C   0  0  0  0  0  0  0  0  0  0  0  0
  -11.1629   16.6422  -40.0970 O   0  0  0  0  0  0  0  0  0  0  0  0
  -13.0975   14.1764  -37.4810 O   0  0  0  0  0  0  0  0  0  0  0  0
   -7.9980   15.1115  -36.6692 H   0  0  0  0  0  0  0  0  0  0  0  0
   -9.2434   13.5044  -35.2501 H   0  0  0  0  0  0  0  0  0  0  0  0
   -9.1483   16.3171  -38.4864 H   0  0  0  0  0  0  0  0  0  0  0  0
  -11.6485   13.0952  -35.6510 H   0  0  0  0  0  0  0  0  0  0  0  0
  -13.4732   14.1637  -40.1185 H   0  0  0  0  0  0  0  0  0  0  0  0
  -14.9939   15.1530  -40.1050 H   0  0  0  0  0  0  0  0  0  0  0  0
  -14.8027   15.4751  -37.6412 H   0  0  0  0  0  0  0  0  0  0  0  0
  -14.9880   17.4246  -39.1403 H   0  0  0  0  0  0  0  0  0  0  0  0
  -13.6528   17.9766  -40.1697 H   0  0  0  0  0  0  0  0  0  0  0  0
  -13.5524   18.1671  -38.4086 H   0  0  0  0  0  0  0  0  0  0  0  0
  1  2  2  0  0  0  0
  1  3  1  0  0  0  0
  2  4  1  0  0  0  0
  3  5  2  0  0  0  0
  4  6  2  0  0  0  0
  5  6  1  0  0  0  0
  5  7  1  0  0  0  0
  6 13  1  0  0  0  0
  7 10  1  0  0  0  0
  7 12  2  0  0  0  0
  8  9  1  1  0  0  0
  8 10  1  0  0  0  0
  9 10  1  0  0  0  0
  9 13  1  0  0  0  0
 10 11  1  6  0  0  0
  1 14  1  0  0  0  0
  2 15  1  0  0  0  0
  3 16  1  0  0  0  0
  4 17  1  0  0  0  0
  8 18  1  0  0  0  0
  8 19  1  0  0  0  0
  9 20  1  0  0  0  0
 11 21  1  0  0  0  0
 11 22  1  0  0  0  0
 11 23  1  0  0  0  0
M  END
> <id>
EN300-37015911

> <smiles>
C[C@@]12C[C@H]2OC=3C=CC=CC3C1=O |&1:1,3,r|

> <MDLNUMBER>
MFCD34563889

> <IUPAC Name>
rac-(3R,5S)-5-methyl-2-oxatricyclo[5.4.0.0,3,5]undeca-1(11),7,9-trien-6-one

> <Purity>
95

> <URL>
https://www.enaminestore.com/catalog/EN300-37015911

> <ROCS_ShapeQuery>
_x1247relevant_x1083L0AP1_x1305L0BP1_

> <ROCS_TanimotoCombo>
1.031 

> <ROCS_ShapeTanimoto>
0.538 

> <ROCS_ColorTanimoto>
0.492 

> <ROCS_RefTversky>
0.449 

> <ROCS_RefColorTversky>
0.572 

> <ROCS_RefTverskyCombo>
1.020 

> <ROCS_FitTversky>
1.586 

> <ROCS_FitColorTversky>
0.781 

> <ROCS_FitTverskyCombo>
2.367 

> <ROCS_ColorScore>
-5.443

> <ROCS_Overlap>
1105.863

> <ROCS_Rank>
285                 

$$$$
untitled-dbase-10268_0
  -OEChem-06232314403D

 22 24  0     0  0  0  0  0  0999 V2000
  -10.2239   15.8306  -36.7670 C   0  0  0  0  0  0  0  0  0  0  0  0
  -11.3602   15.6640  -37.4950 C   0  0  0  0  0  0  0  0  0  0  0  0
  -11.4566   14.2963  -37.7729 C   0  0  0  0  0  0  0  0  0  0  0  0
  -13.8916   14.4549  -37.7736 C   0  0  0  0  0  0  0  0  0  0  0  0
  -12.5961   14.7896  -39.8739 C   0  0  0  0  0  0  0  0  0  0  0  0
  -13.7001   15.9785  -37.4521 C   0  0  0  0  0  0  0  0  0  0  0  0
  -12.4375   16.3041  -39.4965 C   0  0  0  0  0  0  0  0  0  0  0  0
  -12.6595   13.9188  -38.5754 C   0  0  0  0  0  0  0  0  0  0  0  0
  -10.4546   13.5886  -37.2673 N   0  0  0  0  0  0  0  0  0  0  0  0
   -9.7136   14.5539  -36.6548 N   0  0  0  0  0  0  0  0  0  0  0  0
  -12.3776   16.4253  -38.0021 N   0  0  0  0  0  0  0  0  0  0  0  0
   -9.7294   16.6837  -36.3259 H   0  0  0  0  0  0  0  0  0  0  0  0
  -13.9976   13.8992  -36.8336 H   0  0  0  0  0  0  0  0  0  0  0  0
  -14.8122   14.3093  -38.3506 H   0  0  0  0  0  0  0  0  0  0  0  0
  -13.5037   14.6475  -40.4717 H   0  0  0  0  0  0  0  0  0  0  0  0
  -11.7415   14.4815  -40.4892 H   0  0  0  0  0  0  0  0  0  0  0  0
  -14.5130   16.5688  -37.8913 H   0  0  0  0  0  0  0  0  0  0  0  0
  -13.7306   16.1451  -36.3679 H   0  0  0  0  0  0  0  0  0  0  0  0
  -11.5237   16.7148  -39.9435 H   0  0  0  0  0  0  0  0  0  0  0  0
  -13.2783   16.8872  -39.8906 H   0  0  0  0  0  0  0  0  0  0  0  0
  -12.7300   12.8498  -38.7894 H   0  0  0  0  0  0  0  0  0  0  0  0
   -8.8670   14.2714  -36.1775 H   0  0  0  0  0  0  0  0  0  0  0  0
  1  2  2  0  0  0  0
  1 10  1  0  0  0  0
  2  3  1  0  0  0  0
  2 11  1  0  0  0  0
  3  8  1  0  0  0  0
  3  9  2  0  0  0  0
  4  6  1  0  0  0  0
  4  8  1  0  0  0  0
  5  7  1  0  0  0  0
  5  8  1  0  0  0  0
  6 11  1  0  0  0  0
  7 11  1  0  0  0  0
  9 10  1  0  0  0  0
  1 12  1  0  0  0  0
  4 13  1  0  0  0  0
  4 14  1  0  0  0  0
  5 15  1  0  0  0  0
  5 16  1  0  0  0  0
  6 17  1  0  0  0  0
  6 18  1  0  0  0  0
  7 19  1  0  0  0  0
  7 20  1  0  0  0  0
  8 21  1  0  0  0  0
 10 22  1  0  0  0  0
M  END
> <id>
EN300-366245

> <smiles>
Cl.C1CN2CCC1C3=NNC=C23

> <MDLNUMBER>
MFCD30539885

> <IUPAC Name>
1,4,5-triazatricyclo[5.2.2.0,2,6]undeca-2,5-diene hydrochloride

> <CAS>
2089258-31-9

> <Purity>
95

> <URL>
https://www.enaminestore.com/catalog/EN300-366245

> <Saltdate>
Cl

> <ROCS_ShapeQuery>
_x1247relevant_x1083L0AP1_x1305L0BP1_

> <ROCS_TanimotoCombo>
1.031 

> <ROCS_ShapeTanimoto>
0.486 

> <ROCS_ColorTanimoto>
0.544 

> <ROCS_RefTversky>
0.410 

> <ROCS_RefColorTversky>
0.689 

> <ROCS_RefTverskyCombo>
1.099 

> <ROCS_FitTversky>
1.620 

> <ROCS_FitColorTversky>
0.721 

> <ROCS_FitTverskyCombo>
2.342 

> <ROCS_ColorScore>
-6.645

> <ROCS_Overlap>
1008.289

> <ROCS_Rank>
286                 

$$$$
untitled-dbase-25008_4
  -OEChem-06232314403D

 36 38  0     1  0  0  0  0  0999 V2000
   -8.9955   15.2233  -36.2383 C   0  0  0  0  0  0  0  0  0  0  0  0
  -14.4020   15.7489  -38.3221 C   0  0  0  0  0  0  0  0  0  0  0  0
  -13.4758   16.6072  -39.1761 C   0  0  0  0  0  0  0  0  0  0  0  0
   -8.8900   14.1385  -37.3101 C   0  0  0  0  0  0  0  0  0  0  0  0
  -10.4858   15.4230  -35.9718 C   0  0  0  0  0  0  0  0  0  0  0  0
  -12.6970   14.5486  -36.8833 C   0  0  0  0  0  0  0  0  0  0  0  0
  -11.1569   15.9047  -38.3932 C   0  0  0  0  0  0  0  0  0  0  0  0
  -13.6238   14.4434  -38.1202 C   0  0  2  0  0  0  0  0  0  0  0  0
  -12.2656   15.7059  -39.4584 C   0  0  1  0  0  0  0  0  0  0  0  0
  -10.3216   13.6279  -37.5498 C   0  0  2  0  0  0  0  0  0  0  0  0
  -11.2137   14.8726  -37.2165 C   0  0  0  0  0  0  0  0  0  0  0  0
  -13.5216   13.8837  -40.5035 C   0  0  0  0  0  0  0  0  0  0  0  0
  -12.7871   14.3354  -39.3263 N   0  0  0  0  0  0  0  0  0  0  0  0
  -10.5444   12.4807  -36.6645 N   0  0  0  0  0  0  0  0  0  0  0  0
   -8.4683   14.9082  -35.3299 H   0  0  0  0  0  0  0  0  0  0  0  0
   -8.5335   16.1591  -36.5739 H   0  0  0  0  0  0  0  0  0  0  0  0
  -14.6857   16.2287  -37.3838 H   0  0  0  0  0  0  0  0  0  0  0  0
  -15.3290   15.5554  -38.8737 H   0  0  0  0  0  0  0  0  0  0  0  0
  -13.9831   16.8691  -40.1122 H   0  0  0  0  0  0  0  0  0  0  0  0
  -13.2002   17.5442  -38.6841 H   0  0  0  0  0  0  0  0  0  0  0  0
   -8.4355   14.5227  -38.2361 H   0  0  0  0  0  0  0  0  0  0  0  0
   -8.2347   13.3278  -36.9513 H   0  0  0  0  0  0  0  0  0  0  0  0
  -10.7721   14.9491  -35.0321 H   0  0  0  0  0  0  0  0  0  0  0  0
  -10.6771   16.4974  -35.8555 H   0  0  0  0  0  0  0  0  0  0  0  0
  -13.1171   15.2892  -36.1952 H   0  0  0  0  0  0  0  0  0  0  0  0
  -12.7617   13.5855  -36.3654 H   0  0  0  0  0  0  0  0  0  0  0  0
  -10.1974   15.8145  -38.9058 H   0  0  0  0  0  0  0  0  0  0  0  0
  -11.2052   16.9232  -38.0081 H   0  0  0  0  0  0  0  0  0  0  0  0
  -14.3011   13.6026  -37.9804 H   0  0  0  0  0  0  0  0  0  0  0  0
  -11.8413   15.9151  -40.4449 H   0  0  0  0  0  0  0  0  0  0  0  0
  -10.4385   13.3272  -38.5525 H   0  0  0  0  0  0  0  0  0  0  0  0
  -12.8378   13.8262  -41.3632 H   0  0  0  0  0  0  0  0  0  0  0  0
  -13.9502   12.8895  -40.3090 H   0  0  0  0  0  0  0  0  0  0  0  0
  -14.3309   14.5948  -40.7258 H   0  0  0  0  0  0  0  0  0  0  0  0
  -11.4676   12.1433  -36.8120 H   0  0  0  0  0  0  0  0  0  0  0  0
   -9.8779   11.7776  -36.8869 H   0  0  0  0  0  0  0  0  0  0  0  0
  1  4  1  0  0  0  0
  1  5  1  0  0  0  0
  2  3  1  0  0  0  0
  2  8  1  0  0  0  0
  3  9  1  0  0  0  0
  4 10  1  0  0  0  0
  5 11  1  0  0  0  0
  6  8  1  0  0  0  0
  6 11  1  0  0  0  0
  7  9  1  0  0  0  0
  7 11  1  0  0  0  0
  8 13  1  0  0  0  0
  9 13  1  0  0  0  0
 10 11  1  0  0  0  0
 10 14  1  0  0  0  0
 12 13  1  0  0  0  0
  1 15  1  0  0  0  0
  1 16  1  0  0  0  0
  2 17  1  0  0  0  0
  2 18  1  0  0  0  0
  3 19  1  0  0  0  0
  3 20  1  0  0  0  0
  4 21  1  0  0  0  0
  4 22  1  0  0  0  0
  5 23  1  0  0  0  0
  5 24  1  0  0  0  0
  6 25  1  0  0  0  0
  6 26  1  0  0  0  0
  7 27  1  0  0  0  0
  7 28  1  0  0  0  0
  8 29  1  0  0  0  0
  9 30  1  0  0  0  0
 10 31  1  0  0  0  0
 12 32  1  0  0  0  0
 12 33  1  0  0  0  0
 12 34  1  0  0  0  0
 14 35  1  0  0  0  0
 14 36  1  0  0  0  0
M  END
> <id>
EN300-1461657

> <smiles>
CN1C2CCC1CC3(CCCC3N)C2

> <IUPAC Name>
8-methyl-8-azaspiro[bicyclo[3.2.1]octane-3,1'-cyclopentane]-2'-amine

> <CAS>
2169196-96-5

> <URL>
https://www.enaminestore.com/catalog/EN300-1461657

> <ROCS_ShapeQuery>
_x1247relevant_x1083L0AP1_x1305L0BP1_

> <ROCS_TanimotoCombo>
1.030 

> <ROCS_ShapeTanimoto>
0.540 

> <ROCS_ColorTanimoto>
0.491 

> <ROCS_RefTversky>
0.452 

> <ROCS_RefColorTversky>
0.662 

> <ROCS_RefTverskyCombo>
1.114 

> <ROCS_FitTversky>
1.560 

> <ROCS_FitColorTversky>
0.655 

> <ROCS_FitTverskyCombo>
2.215 

> <ROCS_ColorScore>
-6.399

> <ROCS_Overlap>
1114.131

> <ROCS_Rank>
287                 

$$$$
untitled-dbase-7399_0
  -OEChem-06232314403D

 20 22  0     1  0  0  0  0  0999 V2000
  -12.4034   14.9074  -36.3346 C   0  0  0  0  0  0  0  0  0  0  0  0
  -11.2117   14.5671  -38.5272 C   0  0  0  0  0  0  0  0  0  0  0  0
  -12.4398   16.2626  -39.6364 C   0  0  0  0  0  0  0  0  0  0  0  0
  -11.6612   15.5783  -37.4581 C   0  0  1  0  0  0  0  0  0  0  0  0
  -12.2964   14.7371  -39.6182 C   0  0  2  0  0  0  0  0  0  0  0  0
  -12.7778   16.3493  -38.1608 C   0  0  2  0  0  0  0  0  0  0  0  0
  -13.9304   15.3637  -37.9696 C   0  0  1  0  0  0  0  0  0  0  0  0
  -13.6456   14.2626  -39.0208 C   0  0  1  0  0  0  0  0  0  0  0  0
  -11.9033   14.4499  -35.3194 O   0  0  0  0  0  0  0  0  0  0  0  0
  -13.7370   14.8477  -36.6465 O   0  0  0  0  0  0  0  0  0  0  0  0
  -15.1818   14.1324  -40.4974 I   0  0  0  0  0  0  0  0  0  0  0  0
  -10.2318   14.8536  -38.9268 H   0  0  0  0  0  0  0  0  0  0  0  0
  -11.1474   13.5387  -38.1571 H   0  0  0  0  0  0  0  0  0  0  0  0
  -11.5063   16.7760  -39.8901 H   0  0  0  0  0  0  0  0  0  0  0  0
  -13.2417   16.6302  -40.2823 H   0  0  0  0  0  0  0  0  0  0  0  0
  -10.8571   16.2192  -37.0902 H   0  0  0  0  0  0  0  0  0  0  0  0
  -12.0226   14.2850  -40.5742 H   0  0  0  0  0  0  0  0  0  0  0  0
  -12.9605   17.3446  -37.7495 H   0  0  0  0  0  0  0  0  0  0  0  0
  -14.9144   15.8352  -38.0440 H   0  0  0  0  0  0  0  0  0  0  0  0
  -13.5386   13.2755  -38.5551 H   0  0  0  0  0  0  0  0  0  0  0  0
  1  4  1  0  0  0  0
  1  9  2  0  0  0  0
  1 10  1  0  0  0  0
  2  4  1  0  0  0  0
  2  5  1  0  0  0  0
  3  5  1  0  0  0  0
  3  6  1  0  0  0  0
  4  6  1  0  0  0  0
  5  8  1  0  0  0  0
  6  7  1  0  0  0  0
  7  8  1  0  0  0  0
  7 10  1  0  0  0  0
  8 11  1  0  0  0  0
  2 12  1  0  0  0  0
  2 13  1  0  0  0  0
  3 14  1  0  0  0  0
  3 15  1  0  0  0  0
  4 16  1  0  0  0  0
  5 17  1  0  0  0  0
  6 18  1  0  0  0  0
  7 19  1  0  0  0  0
  8 20  1  0  0  0  0
M  END
> <id>
EN300-248094

> <smiles>
IC1C2CC3C(C2)C(=O)OC13

> <MDLNUMBER>
MFCD00089713

> <IUPAC Name>
2-iodo-4-oxatricyclo[4.2.1.0,3,7]nonan-5-one

> <CAS>
14948-68-6

> <Purity>
95

> <URL>
https://www.enaminestore.com/catalog/EN300-248094

> <ROCS_ShapeQuery>
_x1247relevant_x1083L0AP1_x1305L0BP1_

> <ROCS_TanimotoCombo>
1.030 

> <ROCS_ShapeTanimoto>
0.424 

> <ROCS_ColorTanimoto>
0.606 

> <ROCS_RefTversky>
0.371 

> <ROCS_RefColorTversky>
0.928 

> <ROCS_RefTverskyCombo>
1.298 

> <ROCS_FitTversky>
1.513 

> <ROCS_FitColorTversky>
0.637 

> <ROCS_FitTverskyCombo>
2.149 

> <ROCS_ColorScore>
-9.198

> <ROCS_Overlap>
911.351

> <ROCS_Rank>
288                 

$$$$
untitled-dbase-49777_24
  -OEChem-06232314403D

 39 41  0     1  0  0  0  0  0999 V2000
  -10.0253   14.9319  -37.8473 C   0  0  0  0  0  0  0  0  0  0  0  0
  -13.3210   15.5590  -36.5462 C   0  0  0  0  0  0  0  0  0  0  0  0
  -13.3596   14.0608  -36.9151 C   0  0  0  0  0  0  0  0  0  0  0  0
  -12.3392   14.9603  -40.5112 C   0  0  0  0  0  0  0  0  0  0  0  0
  -12.6813   16.7921  -38.6820 C   0  0  0  0  0  0  0  0  0  0  0  0
  -13.0427   14.2876  -39.3648 C   0  0  1  0  0  0  0  0  0  0  0  0
  -12.1677   16.1493  -37.3755 C   0  0  2  0  0  0  0  0  0  0  0  0
  -12.3565   13.9248  -38.0656 C   0  0  1  0  0  0  0  0  0  0  0  0
  -13.2940   15.7682  -39.6455 C   0  0  2  0  0  0  0  0  0  0  0  0
   -8.9442   14.7527  -35.4677 C   0  0  0  0  0  0  0  0  0  0  0  0
   -8.7301   12.2724  -35.8018 C   0  0  0  0  0  0  0  0  0  0  0  0
   -7.1809   13.8356  -37.0119 C   0  0  0  0  0  0  0  0  0  0  0  0
   -8.5923   13.6441  -36.4587 C   0  0  0  0  0  0  0  0  0  0  0  0
  -11.4010   14.9705  -37.7336 N   0  0  0  0  0  0  0  0  0  0  0  0
  -14.5943   16.1670  -40.2243 N   0  0  0  0  0  0  0  0  0  0  0  0
   -9.3330   15.8906  -38.1814 O   0  0  0  0  0  0  0  0  0  0  0  0
   -9.5199   13.6957  -37.5483 O   0  0  0  0  0  0  0  0  0  0  0  0
  -14.2805   16.0452  -36.7514 H   0  0  0  0  0  0  0  0  0  0  0  0
  -13.1171   15.6613  -35.4741 H   0  0  0  0  0  0  0  0  0  0  0  0
  -13.0291   13.4677  -36.0539 H   0  0  0  0  0  0  0  0  0  0  0  0
  -14.3722   13.7398  -37.1808 H   0  0  0  0  0  0  0  0  0  0  0  0
  -11.2765   15.1558  -40.4427 H   0  0  0  0  0  0  0  0  0  0  0  0
  -12.6557   14.6941  -41.5144 H   0  0  0  0  0  0  0  0  0  0  0  0
  -13.4163   17.5680  -38.4334 H   0  0  0  0  0  0  0  0  0  0  0  0
  -11.8527   17.3013  -39.1908 H   0  0  0  0  0  0  0  0  0  0  0  0
  -13.8162   13.5721  -39.6237 H   0  0  0  0  0  0  0  0  0  0  0  0
  -11.5801   16.8725  -36.7993 H   0  0  0  0  0  0  0  0  0  0  0  0
  -11.8914   12.9382  -38.1238 H   0  0  0  0  0  0  0  0  0  0  0  0
   -8.8465   15.7389  -35.9355 H   0  0  0  0  0  0  0  0  0  0  0  0
   -9.9664   14.6466  -35.0901 H   0  0  0  0  0  0  0  0  0  0  0  0
   -8.2573   14.7462  -34.6137 H   0  0  0  0  0  0  0  0  0  0  0  0
   -8.4786   11.4740  -36.5093 H   0  0  0  0  0  0  0  0  0  0  0  0
   -9.7646   12.0921  -35.4879 H   0  0  0  0  0  0  0  0  0  0  0  0
   -8.0804   12.1768  -34.9259 H   0  0  0  0  0  0  0  0  0  0  0  0
   -6.9283   13.0406  -37.7228 H   0  0  0  0  0  0  0  0  0  0  0  0
   -7.0740   14.7998  -37.5195 H   0  0  0  0  0  0  0  0  0  0  0  0
   -6.4369   13.7804  -36.2090 H   0  0  0  0  0  0  0  0  0  0  0  0
  -15.3014   15.7712  -39.6599 H   0  0  0  0  0  0  0  0  0  0  0  0
  -14.6308   17.1537  -40.2124 H   0  0  0  0  0  0  0  0  0  0  0  0
  1 14  1  0  0  0  0
  1 16  2  0  0  0  0
  1 17  1  0  0  0  0
  2  3  1  0  0  0  0
  2  7  1  6  0  0  0
  3  8  1  6  0  0  0
  4  6  1  1  0  0  0
  4  9  1  0  0  0  0
  5  7  1  0  0  0  0
  5  9  1  0  0  0  0
  6  8  1  0  0  0  0
  6  9  1  0  0  0  0
  7 14  1  0  0  0  0
  8 14  1  0  0  0  0
  9 15  1  6  0  0  0
 10 13  1  0  0  0  0
 11 13  1  0  0  0  0
 12 13  1  0  0  0  0
 13 17  1  0  0  0  0
  2 18  1  0  0  0  0
  2 19  1  0  0  0  0
  3 20  1  0  0  0  0
  3 21  1  0  0  0  0
  4 22  1  0  0  0  0
  4 23  1  0  0  0  0
  5 24  1  0  0  0  0
  5 25  1  0  0  0  0
  6 26  1  0  0  0  0
  7 27  1  0  0  0  0
  8 28  1  0  0  0  0
 10 29  1  0  0  0  0
 10 30  1  0  0  0  0
 10 31  1  0  0  0  0
 11 32  1  0  0  0  0
 11 33  1  0  0  0  0
 11 34  1  0  0  0  0
 12 35  1  0  0  0  0
 12 36  1  0  0  0  0
 12 37  1  0  0  0  0
 15 38  1  0  0  0  0
 15 39  1  0  0  0  0
M  END
> <id>
EN300-6738471

> <smiles>
CC(C)(C)OC(=O)N1[C@@H]2CC[C@H]1[C@@H]3C[C@]3(N)C2 |&1:8,11,12,14,r|

> <IUPAC Name>
rac-tert-butyl (1R,2R,4R,6S)-4-amino-9-azatricyclo[4.2.1.0,2,4]nonane-9-carboxylate

> <CAS>
2287239-08-9

> <Purity>
95

> <URL>
https://www.enaminestore.com/catalog/EN300-6738471

> <ROCS_ShapeQuery>
_x1247relevant_x1083L0AP1_x1305L0BP1_

> <ROCS_TanimotoCombo>
1.030 

> <ROCS_ShapeTanimoto>
0.516 

> <ROCS_ColorTanimoto>
0.514 

> <ROCS_RefTversky>
0.458 

> <ROCS_RefColorTversky>
0.811 

> <ROCS_RefTverskyCombo>
1.269 

> <ROCS_FitTversky>
1.326 

> <ROCS_FitColorTversky>
0.585 

> <ROCS_FitTverskyCombo>
1.911 

> <ROCS_ColorScore>
-8.012

> <ROCS_Overlap>
1131.500

> <ROCS_Rank>
289                 

$$$$
untitled-dbase-43930_0
  -OEChem-06232314403D

 22 24  0     1  0  0  0  0  0999 V2000
   -9.0613   15.0265  -36.7372 C   0  0  0  0  0  0  0  0  0  0  0  0
   -9.7233   14.0220  -36.0323 C   0  0  0  0  0  0  0  0  0  0  0  0
   -9.7169   15.7125  -37.7595 C   0  0  0  0  0  0  0  0  0  0  0  0
  -11.0433   13.6996  -36.3469 C   0  0  0  0  0  0  0  0  0  0  0  0
  -11.0456   15.4056  -38.0707 C   0  0  0  0  0  0  0  0  0  0  0  0
  -11.7128   14.3937  -37.3605 C   0  0  0  0  0  0  0  0  0  0  0  0
  -11.7635   16.0988  -39.1969 C   0  0  0  0  0  0  0  0  0  0  0  0
  -13.1242   14.0368  -37.7558 C   0  0  0  0  0  0  0  0  0  0  0  0
  -14.2261   15.3004  -39.5428 C   0  0  0  0  0  0  0  0  0  0  0  0
  -13.2281   16.2218  -38.8978 C   0  0  1  0  0  0  0  0  0  0  0  0
  -13.9436   15.2043  -38.1117 N   0  0  2  0  0  0  0  0  0  0  0  0
   -8.0308   15.2698  -36.4951 H   0  0  0  0  0  0  0  0  0  0  0  0
   -9.2073   13.4842  -35.2421 H   0  0  0  0  0  0  0  0  0  0  0  0
   -9.1855   16.4836  -38.3108 H   0  0  0  0  0  0  0  0  0  0  0  0
  -11.5428   12.9046  -35.7997 H   0  0  0  0  0  0  0  0  0  0  0  0
  -11.3503   17.1042  -39.3412 H   0  0  0  0  0  0  0  0  0  0  0  0
  -11.5965   15.5411  -40.1262 H   0  0  0  0  0  0  0  0  0  0  0  0
  -13.0881   13.2808  -38.5511 H   0  0  0  0  0  0  0  0  0  0  0  0
  -13.6210   13.5563  -36.9042 H   0  0  0  0  0  0  0  0  0  0  0  0
  -15.1956   15.7078  -39.7988 H   0  0  0  0  0  0  0  0  0  0  0  0
  -13.8711   14.5168  -40.1992 H   0  0  0  0  0  0  0  0  0  0  0  0
  -13.5319   17.2429  -38.7015 H   0  0  0  0  0  0  0  0  0  0  0  0
  1  2  2  0  0  0  0
  1  3  1  0  0  0  0
  2  4  1  0  0  0  0
  3  5  2  0  0  0  0
  4  6  2  0  0  0  0
  5  6  1  0  0  0  0
  5  7  1  0  0  0  0
  6  8  1  0  0  0  0
  7 10  1  0  0  0  0
  8 11  1  0  0  0  0
  9 10  1  6  0  0  0
  9 11  1  0  0  0  0
 10 11  1  0  0  0  0
  1 12  1  0  0  0  0
  2 13  1  0  0  0  0
  3 14  1  0  0  0  0
  4 15  1  0  0  0  0
  7 16  1  0  0  0  0
  7 17  1  0  0  0  0
  8 18  1  0  0  0  0
  8 19  1  0  0  0  0
  9 20  1  0  0  0  0
  9 21  1  0  0  0  0
 10 22  1  0  0  0  0
M  END
> <id>
EN300-27779011

> <smiles>
C1[C@@H]2CC=3C=CC=CC3CN12

> <MDLNUMBER>
MFCD33550073

> <IUPAC Name>
(8aS)-1H,3H,8H,8aH-azirino[1,2-b]isoquinoline

> <CAS>
2639390-26-2

> <Purity>
95

> <URL>
https://www.enaminestore.com/catalog/EN300-27779011

> <ROCS_ShapeQuery>
_x1247relevant_x1083L0AP1_x1305L0BP1_

> <ROCS_TanimotoCombo>
1.030 

> <ROCS_ShapeTanimoto>
0.486 

> <ROCS_ColorTanimoto>
0.544 

> <ROCS_RefTversky>
0.407 

> <ROCS_RefColorTversky>
0.576 

> <ROCS_RefTverskyCombo>
0.983 

> <ROCS_FitTversky>
1.666 

> <ROCS_FitColorTversky>
0.908 

> <ROCS_FitTverskyCombo>
2.574 

> <ROCS_ColorScore>
-5.456

> <ROCS_Overlap>
1000.903

> <ROCS_Rank>
290                 

$$$$
untitled-dbase-17286_0
  -OEChem-06232314403D

 23 24  0     1  0  0  0  0  0999 V2000
  -11.3120   14.6056  -37.6868 C   0  0  0  0  0  0  0  0  0  0  0  0
  -11.3677   16.1255  -37.9001 C   0  0  0  0  0  0  0  0  0  0  0  0
  -13.5497   15.3623  -37.3938 C   0  0  0  0  0  0  0  0  0  0  0  0
  -13.0616   14.2398  -39.4465 C   0  0  0  0  0  0  0  0  0  0  0  0
  -12.7670   14.1667  -37.9333 C   0  0  1  0  0  0  0  0  0  0  0  0
  -12.8300   16.3606  -38.3119 C   0  0  2  0  0  0  0  0  0  0  0  0
  -13.1328   15.7602  -39.7087 C   0  0  1  0  0  0  0  0  0  0  0  0
  -12.2223   16.2179  -40.8404 C   0  0  0  0  0  0  0  0  0  0  0  0
  -14.4753   16.0958  -40.0721 O   0  0  0  0  0  0  0  0  0  0  0  0
  -10.6064   14.1196  -38.3679 H   0  0  0  0  0  0  0  0  0  0  0  0
  -11.0044   14.3816  -36.6592 H   0  0  0  0  0  0  0  0  0  0  0  0
  -11.1499   16.6398  -36.9563 H   0  0  0  0  0  0  0  0  0  0  0  0
  -10.6390   16.4732  -38.6363 H   0  0  0  0  0  0  0  0  0  0  0  0
  -14.6270   15.2928  -37.5757 H   0  0  0  0  0  0  0  0  0  0  0  0
  -13.3728   15.5499  -36.3292 H   0  0  0  0  0  0  0  0  0  0  0  0
  -12.2763   13.7406  -40.0241 H   0  0  0  0  0  0  0  0  0  0  0  0
  -14.0170   13.7508  -39.6698 H   0  0  0  0  0  0  0  0  0  0  0  0
  -13.0121   13.2003  -37.4884 H   0  0  0  0  0  0  0  0  0  0  0  0
  -13.1675   17.3925  -38.1881 H   0  0  0  0  0  0  0  0  0  0  0  0
  -12.3133   17.2953  -40.9804 H   0  0  0  0  0  0  0  0  0  0  0  0
  -12.4989   15.7166  -41.7682 H   0  0  0  0  0  0  0  0  0  0  0  0
  -11.1850   15.9786  -40.6051 H   0  0  0  0  0  0  0  0  0  0  0  0
  -14.4827   17.0513  -40.2282 H   0  0  0  0  0  0  0  0  0  0  0  0
  1  2  1  0  0  0  0
  1  5  1  0  0  0  0
  2  6  1  0  0  0  0
  3  5  1  0  0  0  0
  3  6  1  0  0  0  0
  4  5  1  0  0  0  0
  4  7  1  0  0  0  0
  6  7  1  0  0  0  0
  7  8  1  0  0  0  0
  7  9  1  0  0  0  0
  1 10  1  0  0  0  0
  1 11  1  0  0  0  0
  2 12  1  0  0  0  0
  2 13  1  0  0  0  0
  3 14  1  0  0  0  0
  3 15  1  0  0  0  0
  4 16  1  0  0  0  0
  4 17  1  0  0  0  0
  5 18  1  0  0  0  0
  6 19  1  0  0  0  0
  8 20  1  0  0  0  0
  8 21  1  0  0  0  0
  8 22  1  0  0  0  0
  9 23  1  0  0  0  0
M  END
> <id>
EN300-1241638

> <smiles>
CC1(O)CC2CCC1C2

> <IUPAC Name>
2-methylbicyclo[2.2.1]heptan-2-ol

> <CAS>
5240-73-3

> <Purity>
95

> <URL>
https://www.enaminestore.com/catalog/EN300-1241638

> <ROCS_ShapeQuery>
_x1247relevant_x1083L0AP1_x1305L0BP1_

> <ROCS_TanimotoCombo>
1.030 

> <ROCS_ShapeTanimoto>
0.416 

> <ROCS_ColorTanimoto>
0.615 

> <ROCS_RefTversky>
0.354 

> <ROCS_RefColorTversky>
0.713 

> <ROCS_RefTverskyCombo>
1.066 

> <ROCS_FitTversky>
1.729 

> <ROCS_FitColorTversky>
0.817 

> <ROCS_FitTverskyCombo>
2.547 

> <ROCS_ColorScore>
-6.838

> <ROCS_Overlap>
867.366

> <ROCS_Rank>
291                 

$$$$
untitled-dbase-50956_31
  -OEChem-06232314403D

 32 33  0     0  0  0  0  0  0999 V2000
   -9.9595   15.2566  -37.6884 C   0  0  0  0  0  0  0  0  0  0  0  0
  -13.5640   15.8109  -37.5395 C   0  0  0  0  0  0  0  0  0  0  0  0
  -13.2703   14.1012  -38.7048 C   0  0  0  0  0  0  0  0  0  0  0  0
  -11.7939   16.0340  -39.2945 C   0  0  0  0  0  0  0  0  0  0  0  0
  -12.4503   14.6882  -37.4855 C   0  0  0  0  0  0  0  0  0  0  0  0
  -13.2328   15.6207  -39.0509 C   0  0  0  0  0  0  0  0  0  0  0  0
   -7.8996   13.6407  -37.6764 C   0  0  0  0  0  0  0  0  0  0  0  0
   -8.3885   13.1080  -35.2709 C   0  0  0  0  0  0  0  0  0  0  0  0
   -9.8446   12.1576  -37.0833 C   0  0  0  0  0  0  0  0  0  0  0  0
   -8.9950   13.3518  -36.6511 C   0  0  0  0  0  0  0  0  0  0  0  0
  -11.2636   15.3245  -38.1196 N   0  0  0  0  0  0  0  0  0  0  0  0
  -14.2955   16.0352  -39.9266 N   0  0  0  0  0  0  0  0  0  0  0  0
   -9.0167   15.8053  -38.2529 O   0  0  0  0  0  0  0  0  0  0  0  0
   -9.8420   14.5022  -36.5529 O   0  0  0  0  0  0  0  0  0  0  0  0
  -14.5613   15.5186  -37.1900 H   0  0  0  0  0  0  0  0  0  0  0  0
  -13.2991   16.7760  -37.0965 H   0  0  0  0  0  0  0  0  0  0  0  0
  -12.7248   13.4314  -39.3767 H   0  0  0  0  0  0  0  0  0  0  0  0
  -14.2409   13.6524  -38.4625 H   0  0  0  0  0  0  0  0  0  0  0  0
  -11.3496   15.6259  -40.2054 H   0  0  0  0  0  0  0  0  0  0  0  0
  -11.6038   17.1054  -39.1973 H   0  0  0  0  0  0  0  0  0  0  0  0
  -12.3119   14.0966  -36.5828 H   0  0  0  0  0  0  0  0  0  0  0  0
   -8.3309   13.8163  -38.6684 H   0  0  0  0  0  0  0  0  0  0  0  0
   -7.3051   14.5162  -37.3957 H   0  0  0  0  0  0  0  0  0  0  0  0
   -7.2250   12.7831  -37.7800 H   0  0  0  0  0  0  0  0  0  0  0  0
   -9.1710   12.9003  -34.5321 H   0  0  0  0  0  0  0  0  0  0  0  0
   -7.8568   13.9980  -34.9155 H   0  0  0  0  0  0  0  0  0  0  0  0
   -7.6884   12.2664  -35.2803 H   0  0  0  0  0  0  0  0  0  0  0  0
  -10.6305   11.9502  -36.3480 H   0  0  0  0  0  0  0  0  0  0  0  0
  -10.3178   12.3300  -38.0554 H   0  0  0  0  0  0  0  0  0  0  0  0
   -9.2350   11.2491  -37.1489 H   0  0  0  0  0  0  0  0  0  0  0  0
  -13.9656   16.7616  -40.5286 H   0  0  0  0  0  0  0  0  0  0  0  0
  -14.5954   15.2560  -40.4760 H   0  0  0  0  0  0  0  0  0  0  0  0
  1 11  1  0  0  0  0
  1 13  2  0  0  0  0
  1 14  1  0  0  0  0
  2  5  1  6  0  0  0
  2  6  1  0  0  0  0
  3  5  1  0  0  0  0
  3  6  1  0  0  0  0
  4  6  1  0  0  0  0
  4 11  1  0  0  0  0
  5 11  1  0  0  0  0
  6 12  1  1  0  0  0
  7 10  1  0  0  0  0
  8 10  1  0  0  0  0
  9 10  1  0  0  0  0
 10 14  1  0  0  0  0
  2 15  1  0  0  0  0
  2 16  1  0  0  0  0
  3 17  1  0  0  0  0
  3 18  1  0  0  0  0
  4 19  1  0  0  0  0
  4 20  1  0  0  0  0
  5 21  1  0  0  0  0
  7 22  1  0  0  0  0
  7 23  1  0  0  0  0
  7 24  1  0  0  0  0
  8 25  1  0  0  0  0
  8 26  1  0  0  0  0
  8 27  1  0  0  0  0
  9 28  1  0  0  0  0
  9 29  1  0  0  0  0
  9 30  1  0  0  0  0
 12 31  1  0  0  0  0
 12 32  1  0  0  0  0
M  END
> <id>
EN300-37375326

> <smiles>
CC(C)(C)OC(=O)N1C[C@]2(N)C[C@H]1C2

> <IUPAC Name>
tert-butyl (4r)-4-amino-2-azabicyclo[2.1.1]hexane-2-carboxylate

> <CAS>
2361636-63-5

> <URL>
https://www.enaminestore.com/catalog/EN300-37375326

> <ROCS_ShapeQuery>
_x1247relevant_x1083L0AP1_x1305L0BP1_

> <ROCS_TanimotoCombo>
1.030 

> <ROCS_ShapeTanimoto>
0.503 

> <ROCS_ColorTanimoto>
0.526 

> <ROCS_RefTversky>
0.433 

> <ROCS_RefColorTversky>
0.725 

> <ROCS_RefTverskyCombo>
1.157 

> <ROCS_FitTversky>
1.482 

> <ROCS_FitColorTversky>
0.658 

> <ROCS_FitTverskyCombo>
2.140 

> <ROCS_ColorScore>
-7.043

> <ROCS_Overlap>
1066.242

> <ROCS_Rank>
292                 

$$$$
untitled-dbase-26479_31
  -OEChem-06232314403D

 32 33  0     0  0  0  0  0  0999 V2000
   -9.9595   15.2555  -37.6885 C   0  0  0  0  0  0  0  0  0  0  0  0
  -13.5636   15.8121  -37.5398 C   0  0  0  0  0  0  0  0  0  0  0  0
  -13.2709   14.1013  -38.7038 C   0  0  0  0  0  0  0  0  0  0  0  0
  -11.7934   16.0327  -39.2951 C   0  0  0  0  0  0  0  0  0  0  0  0
  -12.4506   14.6888  -37.4850 C   0  0  0  0  0  0  0  0  0  0  0  0
  -13.2326   15.6205  -39.0510 C   0  0  0  0  0  0  0  0  0  0  0  0
   -7.9006   13.6383  -37.6754 C   0  0  0  0  0  0  0  0  0  0  0  0
   -8.3897   13.1079  -35.2694 C   0  0  0  0  0  0  0  0  0  0  0  0
   -9.8466   12.1570  -37.0808 C   0  0  0  0  0  0  0  0  0  0  0  0
   -8.9962   13.3510  -36.6497 C   0  0  0  0  0  0  0  0  0  0  0  0
  -11.2635   15.3239  -38.1197 N   0  0  0  0  0  0  0  0  0  0  0  0
  -14.2951   16.0349  -39.9270 N   0  0  0  0  0  0  0  0  0  0  0  0
   -9.0164   15.8031  -38.2535 O   0  0  0  0  0  0  0  0  0  0  0  0
   -9.8424   14.5020  -36.5524 O   0  0  0  0  0  0  0  0  0  0  0  0
  -14.5611   15.5204  -37.1902 H   0  0  0  0  0  0  0  0  0  0  0  0
  -13.2984   16.7773  -37.0975 H   0  0  0  0  0  0  0  0  0  0  0  0
  -12.7256   13.4307  -39.3751 H   0  0  0  0  0  0  0  0  0  0  0  0
  -14.2418   13.6532  -38.4613 H   0  0  0  0  0  0  0  0  0  0  0  0
  -11.3496   15.6235  -40.2057 H   0  0  0  0  0  0  0  0  0  0  0  0
  -11.6027   17.1042  -39.1989 H   0  0  0  0  0  0  0  0  0  0  0  0
  -12.3126   14.0978  -36.5818 H   0  0  0  0  0  0  0  0  0  0  0  0
   -8.3319   13.8133  -38.6675 H   0  0  0  0  0  0  0  0  0  0  0  0
   -7.3055   14.5137  -37.3955 H   0  0  0  0  0  0  0  0  0  0  0  0
   -7.2267   12.7801  -37.7783 H   0  0  0  0  0  0  0  0  0  0  0  0
   -9.1722   12.9014  -34.5303 H   0  0  0  0  0  0  0  0  0  0  0  0
   -7.8573   13.9979  -34.9147 H   0  0  0  0  0  0  0  0  0  0  0  0
   -7.6901   12.2659  -35.2780 H   0  0  0  0  0  0  0  0  0  0  0  0
  -10.6325   11.9508  -36.3452 H   0  0  0  0  0  0  0  0  0  0  0  0
  -10.3198   12.3289  -38.0530 H   0  0  0  0  0  0  0  0  0  0  0  0
   -9.2377   11.2480  -37.1457 H   0  0  0  0  0  0  0  0  0  0  0  0
  -13.9649   16.7607  -40.5295 H   0  0  0  0  0  0  0  0  0  0  0  0
  -14.5954   15.2554  -40.4758 H   0  0  0  0  0  0  0  0  0  0  0  0
  1 11  1  0  0  0  0
  1 13  2  0  0  0  0
  1 14  1  0  0  0  0
  2  5  1  0  0  0  0
  2  6  1  0  0  0  0
  3  5  1  0  0  0  0
  3  6  1  0  0  0  0
  4  6  1  0  0  0  0
  4 11  1  0  0  0  0
  5 11  1  0  0  0  0
  6 12  1  0  0  0  0
  7 10  1  0  0  0  0
  8 10  1  0  0  0  0
  9 10  1  0  0  0  0
 10 14  1  0  0  0  0
  2 15  1  0  0  0  0
  2 16  1  0  0  0  0
  3 17  1  0  0  0  0
  3 18  1  0  0  0  0
  4 19  1  0  0  0  0
  4 20  1  0  0  0  0
  5 21  1  0  0  0  0
  7 22  1  0  0  0  0
  7 23  1  0  0  0  0
  7 24  1  0  0  0  0
  8 25  1  0  0  0  0
  8 26  1  0  0  0  0
  8 27  1  0  0  0  0
  9 28  1  0  0  0  0
  9 29  1  0  0  0  0
  9 30  1  0  0  0  0
 12 31  1  0  0  0  0
 12 32  1  0  0  0  0
M  END
> <id>
EN300-7434257

> <smiles>
CC(C)(C)OC(=O)N1CC2(N)CC1C2

> <MDLNUMBER>
MFCD32066114

> <IUPAC Name>
tert-butyl 4-amino-2-azabicyclo[2.1.1]hexane-2-carboxylate

> <CAS>
2361636-63-5

> <Purity>
95

> <URL>
https://www.enaminestore.com/catalog/EN300-7434257

> <ROCS_ShapeQuery>
_x1247relevant_x1083L0AP1_x1305L0BP1_

> <ROCS_TanimotoCombo>
1.030 

> <ROCS_ShapeTanimoto>
0.503 

> <ROCS_ColorTanimoto>
0.526 

> <ROCS_RefTversky>
0.433 

> <ROCS_RefColorTversky>
0.725 

> <ROCS_RefTverskyCombo>
1.157 

> <ROCS_FitTversky>
1.482 

> <ROCS_FitColorTversky>
0.658 

> <ROCS_FitTverskyCombo>
2.140 

> <ROCS_ColorScore>
-7.043

> <ROCS_Overlap>
1066.243

> <ROCS_Rank>
293                 

$$$$
untitled-dbase-23524_0
  -OEChem-06232314403D

 20 22  0     1  0  0  0  0  0999 V2000
  -11.0806   13.5080  -36.7206 C   0  0  0  0  0  0  0  0  0  0  0  0
   -9.7734   13.8952  -36.4247 C   0  0  0  0  0  0  0  0  0  0  0  0
  -10.0735   15.9863  -37.6333 C   0  0  0  0  0  0  0  0  0  0  0  0
  -11.8665   14.3694  -37.4699 C   0  0  0  0  0  0  0  0  0  0  0  0
  -11.3756   15.6078  -37.9305 C   0  0  0  0  0  0  0  0  0  0  0  0
   -9.2732   15.1249  -36.8777 C   0  0  0  0  0  0  0  0  0  0  0  0
  -13.2950   14.1458  -37.9086 C   0  0  0  0  0  0  0  0  0  0  0  0
  -12.4200   16.3402  -38.7111 C   0  0  2  0  0  0  0  0  0  0  0  0
  -13.6421   15.4150  -38.6699 C   0  0  1  0  0  0  0  0  0  0  0  0
  -12.9906   15.7664  -39.9611 C   0  0  0  0  0  0  0  0  0  0  0  0
  -12.3025   14.8209  -40.6886 F   0  0  0  0  0  0  0  0  0  0  0  0
  -13.6373   16.5810  -40.8640 F   0  0  0  0  0  0  0  0  0  0  0  0
   -7.4964   15.6225  -36.4608 Br  0  0  0  0  0  0  0  0  0  0  0  0
  -11.4662   12.5559  -36.3724 H   0  0  0  0  0  0  0  0  0  0  0  0
   -9.1481   13.2264  -35.8380 H   0  0  0  0  0  0  0  0  0  0  0  0
   -9.6931   16.9397  -37.9884 H   0  0  0  0  0  0  0  0  0  0  0  0
  -13.3756   13.2681  -38.5569 H   0  0  0  0  0  0  0  0  0  0  0  0
  -13.9459   14.0342  -37.0360 H   0  0  0  0  0  0  0  0  0  0  0  0
  -12.5870   17.3927  -38.5141 H   0  0  0  0  0  0  0  0  0  0  0  0
  -14.6109   15.8313  -38.4358 H   0  0  0  0  0  0  0  0  0  0  0  0
  1  2  1  0  0  0  0
  1  4  2  0  0  0  0
  2  6  2  0  0  0  0
  3  5  2  0  0  0  0
  3  6  1  0  0  0  0
  4  5  1  0  0  0  0
  4  7  1  0  0  0  0
  5  8  1  0  0  0  0
  6 13  1  0  0  0  0
  7  9  1  0  0  0  0
  8  9  1  0  0  0  0
  8 10  1  0  0  0  0
  9 10  1  0  0  0  0
 10 11  1  0  0  0  0
 10 12  1  0  0  0  0
  1 14  1  0  0  0  0
  2 15  1  0  0  0  0
  3 16  1  0  0  0  0
  7 17  1  0  0  0  0
  7 18  1  0  0  0  0
  8 19  1  0  0  0  0
  9 20  1  0  0  0  0
M  END
> <id>
EN300-2008081

> <smiles>
FC1(F)C2CC=3C=CC(Br)=CC3C21

> <MDLNUMBER>
MFCD31667760

> <IUPAC Name>
3-bromo-1,1-difluoro-1H,1aH,6H,6aH-cyclopropa[a]indene

> <CAS>
2230808-64-5

> <Purity>
95

> <URL>
https://www.enaminestore.com/catalog/EN300-2008081

> <ROCS_ShapeQuery>
_x1247relevant_x1083L0AP1_x1305L0BP1_

> <ROCS_TanimotoCombo>
1.029 

> <ROCS_ShapeTanimoto>
0.508 

> <ROCS_ColorTanimoto>
0.521 

> <ROCS_RefTversky>
0.430 

> <ROCS_RefColorTversky>
0.560 

> <ROCS_RefTverskyCombo>
0.990 

> <ROCS_FitTversky>
1.554 

> <ROCS_FitColorTversky>
0.883 

> <ROCS_FitTverskyCombo>
2.436 

> <ROCS_ColorScore>
-5.303

> <ROCS_Overlap>
1059.212

> <ROCS_Rank>
294                 

$$$$
untitled-dbase-16925_1
  -OEChem-06232314403D

 29 31  0     1  0  0  0  0  0999 V2000
  -10.0564   14.6103  -35.4029 C   0  0  0  0  0  0  0  0  0  0  0  0
   -8.8512   14.2181  -36.2477 C   0  0  0  0  0  0  0  0  0  0  0  0
  -13.4272   14.7420  -39.6688 C   0  0  0  0  0  0  0  0  0  0  0  0
  -12.4062   15.8722  -39.7835 C   0  0  0  0  0  0  0  0  0  0  0  0
  -10.9402   15.6001  -36.1599 C   0  0  0  0  0  0  0  0  0  0  0  0
  -12.3777   13.9694  -37.5201 C   0  0  0  0  0  0  0  0  0  0  0  0
   -9.2853   13.7366  -37.6281 C   0  0  0  0  0  0  0  0  0  0  0  0
  -13.6036   14.6295  -38.1572 C   0  0  1  0  0  0  0  0  0  0  0  0
  -12.1197   16.2014  -38.3148 C   0  0  2  0  0  0  0  0  0  0  0  0
  -11.3159   15.0989  -37.5768 C   0  0  1  0  0  0  0  0  0  0  0  0
  -10.1061   14.7304  -38.3219 N   0  0  0  0  0  0  0  0  0  0  0  0
  -13.4410   16.0052  -37.7479 O   0  0  0  0  0  0  0  0  0  0  0  0
  -10.6355   13.7177  -35.1428 H   0  0  0  0  0  0  0  0  0  0  0  0
   -9.7173   15.0532  -34.4600 H   0  0  0  0  0  0  0  0  0  0  0  0
   -8.1735   15.0712  -36.3466 H   0  0  0  0  0  0  0  0  0  0  0  0
   -8.2953   13.4219  -35.7399 H   0  0  0  0  0  0  0  0  0  0  0  0
  -14.3646   15.0445  -40.1483 H   0  0  0  0  0  0  0  0  0  0  0  0
  -13.0897   13.8096  -40.1306 H   0  0  0  0  0  0  0  0  0  0  0  0
  -11.5235   15.6054  -40.3684 H   0  0  0  0  0  0  0  0  0  0  0  0
  -12.8798   16.7320  -40.2721 H   0  0  0  0  0  0  0  0  0  0  0  0
  -11.8566   15.7626  -35.5749 H   0  0  0  0  0  0  0  0  0  0  0  0
  -10.4305   16.5704  -36.2097 H   0  0  0  0  0  0  0  0  0  0  0  0
  -12.6003   13.6885  -36.4838 H   0  0  0  0  0  0  0  0  0  0  0  0
  -12.0904   13.0551  -38.0514 H   0  0  0  0  0  0  0  0  0  0  0  0
   -8.4079   13.4695  -38.2344 H   0  0  0  0  0  0  0  0  0  0  0  0
   -9.8731   12.8155  -37.5142 H   0  0  0  0  0  0  0  0  0  0  0  0
  -14.5602   14.2075  -37.8417 H   0  0  0  0  0  0  0  0  0  0  0  0
  -11.7656   17.2236  -38.1636 H   0  0  0  0  0  0  0  0  0  0  0  0
   -9.5462   15.5555  -38.5278 H   0  0  0  0  0  0  0  0  0  0  0  0
  1  2  1  0  0  0  0
  1  5  1  0  0  0  0
  2  7  1  0  0  0  0
  3  4  1  0  0  0  0
  3  8  1  0  0  0  0
  4  9  1  0  0  0  0
  5 10  1  0  0  0  0
  6  8  1  0  0  0  0
  6 10  1  0  0  0  0
  7 11  1  0  0  0  0
  8 12  1  0  0  0  0
  9 10  1  0  0  0  0
  9 12  1  0  0  0  0
 10 11  1  0  0  0  0
  1 13  1  0  0  0  0
  1 14  1  0  0  0  0
  2 15  1  0  0  0  0
  2 16  1  0  0  0  0
  3 17  1  0  0  0  0
  3 18  1  0  0  0  0
  4 19  1  0  0  0  0
  4 20  1  0  0  0  0
  5 21  1  0  0  0  0
  5 22  1  0  0  0  0
  6 23  1  0  0  0  0
  6 24  1  0  0  0  0
  7 25  1  0  0  0  0
  7 26  1  0  0  0  0
  8 27  1  0  0  0  0
  9 28  1  0  0  0  0
 11 29  1  0  0  0  0
M  END
> <id>
EN300-1461633

> <smiles>
C1CC2OC1CC32CCCCN3

> <IUPAC Name>
7-oxaspiro[bicyclo[2.2.1]heptane-2,2'-piperidine]

> <CAS>
2167345-79-9

> <URL>
https://www.enaminestore.com/catalog/EN300-1461633

> <ROCS_ShapeQuery>
_x1247relevant_x1083L0AP1_x1305L0BP1_

> <ROCS_TanimotoCombo>
1.029 

> <ROCS_ShapeTanimoto>
0.513 

> <ROCS_ColorTanimoto>
0.516 

> <ROCS_RefTversky>
0.428 

> <ROCS_RefColorTversky>
0.701 

> <ROCS_RefTverskyCombo>
1.129 

> <ROCS_FitTversky>
1.640 

> <ROCS_FitColorTversky>
0.661 

> <ROCS_FitTverskyCombo>
2.301 

> <ROCS_ColorScore>
-6.803

> <ROCS_Overlap>
1052.069

> <ROCS_Rank>
295                 

$$$$
untitled-dbase-28050_3
  -OEChem-06232314403D

 39 40  0     1  0  0  0  0  0999 V2000
  -13.0076   14.9734  -37.0779 C   0  0  0  0  0  0  0  0  0  0  0  0
  -14.0282   15.0586  -37.9430 C   0  0  0  0  0  0  0  0  0  0  0  0
   -9.3944   13.9426  -37.0882 C   0  0  0  0  0  0  0  0  0  0  0  0
   -9.2946   15.4064  -36.6628 C   0  0  0  0  0  0  0  0  0  0  0  0
  -10.8839   13.6490  -37.2688 C   0  0  0  0  0  0  0  0  0  0  0  0
  -10.7319   15.8935  -36.5071 C   0  0  0  0  0  0  0  0  0  0  0  0
  -11.3852   15.5322  -38.9327 C   0  0  0  0  0  0  0  0  0  0  0  0
  -12.4067   14.9035  -39.8855 C   0  0  0  0  0  0  0  0  0  0  0  0
  -11.5517   15.0216  -37.4770 C   0  0  0  0  0  0  0  0  0  0  0  0
  -13.8547   15.1711  -39.4344 C   0  0  1  0  0  0  0  0  0  0  0  0
  -16.2592   14.5628  -39.7999 C   0  0  0  0  0  0  0  0  0  0  0  0
  -14.5085   12.7693  -39.7315 C   0  0  0  0  0  0  0  0  0  0  0  0
  -14.6117   14.3467  -41.6776 C   0  0  0  0  0  0  0  0  0  0  0  0
  -14.8058   14.2153  -40.1587 C   0  0  0  0  0  0  0  0  0  0  0  0
  -14.2289   16.4958  -39.8259 O   0  0  0  0  0  0  0  0  0  0  0  0
  -13.2509   14.8685  -36.0189 H   0  0  0  0  0  0  0  0  0  0  0  0
  -15.0419   15.0504  -37.5499 H   0  0  0  0  0  0  0  0  0  0  0  0
   -8.8355   13.7478  -38.0103 H   0  0  0  0  0  0  0  0  0  0  0  0
   -8.9688   13.2976  -36.3094 H   0  0  0  0  0  0  0  0  0  0  0  0
   -8.7522   15.4848  -35.7152 H   0  0  0  0  0  0  0  0  0  0  0  0
   -8.7536   16.0051  -37.4007 H   0  0  0  0  0  0  0  0  0  0  0  0
  -11.0149   13.0169  -38.1579 H   0  0  0  0  0  0  0  0  0  0  0  0
  -11.2879   13.0929  -36.4142 H   0  0  0  0  0  0  0  0  0  0  0  0
  -11.0738   15.8213  -35.4720 H   0  0  0  0  0  0  0  0  0  0  0  0
  -10.7848   16.9466  -36.8026 H   0  0  0  0  0  0  0  0  0  0  0  0
  -10.3711   15.3222  -39.2976 H   0  0  0  0  0  0  0  0  0  0  0  0
  -11.4972   16.6258  -38.9558 H   0  0  0  0  0  0  0  0  0  0  0  0
  -12.2415   15.3119  -40.8931 H   0  0  0  0  0  0  0  0  0  0  0  0
  -12.2168   13.8215  -39.9470 H   0  0  0  0  0  0  0  0  0  0  0  0
  -16.9653   13.8940  -40.3046 H   0  0  0  0  0  0  0  0  0  0  0  0
  -16.5038   15.5896  -40.0946 H   0  0  0  0  0  0  0  0  0  0  0  0
  -16.4308   14.4760  -38.7211 H   0  0  0  0  0  0  0  0  0  0  0  0
  -15.1771   12.0632  -40.2368 H   0  0  0  0  0  0  0  0  0  0  0  0
  -13.4787   12.4885  -39.9791 H   0  0  0  0  0  0  0  0  0  0  0  0
  -14.6394   12.6378  -38.6516 H   0  0  0  0  0  0  0  0  0  0  0  0
  -15.2824   13.6715  -42.2210 H   0  0  0  0  0  0  0  0  0  0  0  0
  -13.5844   14.1032  -41.9708 H   0  0  0  0  0  0  0  0  0  0  0  0
  -14.8218   15.3679  -42.0153 H   0  0  0  0  0  0  0  0  0  0  0  0
  -13.6366   17.0959  -39.3503 H   0  0  0  0  0  0  0  0  0  0  0  0
  1  2  2  0  0  0  0
  1  9  1  0  0  0  0
  2 10  1  0  0  0  0
  3  4  1  0  0  0  0
  3  5  1  0  0  0  0
  4  6  1  0  0  0  0
  5  9  1  0  0  0  0
  6  9  1  0  0  0  0
  7  8  1  0  0  0  0
  7  9  1  0  0  0  0
  8 10  1  0  0  0  0
 10 14  1  0  0  0  0
 10 15  1  0  0  0  0
 11 14  1  0  0  0  0
 12 14  1  0  0  0  0
 13 14  1  0  0  0  0
  1 16  1  0  0  0  0
  2 17  1  0  0  0  0
  3 18  1  0  0  0  0
  3 19  1  0  0  0  0
  4 20  1  0  0  0  0
  4 21  1  0  0  0  0
  5 22  1  0  0  0  0
  5 23  1  0  0  0  0
  6 24  1  0  0  0  0
  6 25  1  0  0  0  0
  7 26  1  0  0  0  0
  7 27  1  0  0  0  0
  8 28  1  0  0  0  0
  8 29  1  0  0  0  0
 11 30  1  0  0  0  0
 11 31  1  0  0  0  0
 11 32  1  0  0  0  0
 12 33  1  0  0  0  0
 12 34  1  0  0  0  0
 12 35  1  0  0  0  0
 13 36  1  0  0  0  0
 13 37  1  0  0  0  0
 13 38  1  0  0  0  0
 15 39  1  0  0  0  0
M  END
> <id>
EN300-1156443

> <smiles>
CC(C)(C)C1(O)CCC2(CCCC2)C=C1

> <IUPAC Name>
8-tert-butylspiro[4.5]dec-6-en-8-ol

> <CAS>
2138079-06-6

> <URL>
https://www.enaminestore.com/catalog/EN300-1156443

> <ROCS_ShapeQuery>
_x1247relevant_x1083L0AP1_x1305L0BP1_

> <ROCS_TanimotoCombo>
1.029 

> <ROCS_ShapeTanimoto>
0.524 

> <ROCS_ColorTanimoto>
0.505 

> <ROCS_RefTversky>
0.447 

> <ROCS_RefColorTversky>
0.522 

> <ROCS_RefTverskyCombo>
0.969 

> <ROCS_FitTversky>
1.491 

> <ROCS_FitColorTversky>
0.940 

> <ROCS_FitTverskyCombo>
2.431 

> <ROCS_ColorScore>
-4.919

> <ROCS_Overlap>
1102.295

> <ROCS_Rank>
296                 

$$$$
untitled-dbase-35994_0
  -OEChem-06232314403D

 28 30  0     1  0  0  0  0  0999 V2000
  -12.5294   15.5495  -36.5280 C   0  0  0  0  0  0  0  0  0  0  0  0
  -12.2144   13.4816  -37.9203 C   0  0  0  0  0  0  0  0  0  0  0  0
  -14.2957   14.8609  -38.1723 C   0  0  0  0  0  0  0  0  0  0  0  0
  -12.8915   16.9008  -38.6107 C   0  0  0  0  0  0  0  0  0  0  0  0
  -12.5751   14.8271  -40.0071 C   0  0  0  0  0  0  0  0  0  0  0  0
  -13.2440   14.3473  -37.1715 C   0  0  0  0  0  0  0  0  0  0  0  0
  -11.8350   16.3919  -37.6124 C   0  0  2  0  0  0  0  0  0  0  0  0
  -11.5184   14.3150  -39.0106 C   0  0  1  0  0  0  0  0  0  0  0  0
  -13.6146   15.7052  -39.2719 C   0  0  0  0  0  0  0  0  0  0  0  0
  -10.8251   15.5139  -38.3571 C   0  0  0  0  0  0  0  0  0  0  0  0
  -14.6215   16.1966  -40.2109 N   0  0  0  0  0  0  0  0  0  0  0  0
   -9.8683   15.0813  -37.4978 F   0  0  0  0  0  0  0  0  0  0  0  0
  -10.1831   16.2471  -39.3009 F   0  0  0  0  0  0  0  0  0  0  0  0
  -13.2528   16.1662  -35.9806 H   0  0  0  0  0  0  0  0  0  0  0  0
  -11.7926   15.1979  -35.7952 H   0  0  0  0  0  0  0  0  0  0  0  0
  -11.4718   13.0903  -37.2146 H   0  0  0  0  0  0  0  0  0  0  0  0
  -12.7118   12.6144  -38.3719 H   0  0  0  0  0  0  0  0  0  0  0  0
  -14.8267   14.0079  -38.6154 H   0  0  0  0  0  0  0  0  0  0  0  0
  -15.0477   15.4583  -37.6398 H   0  0  0  0  0  0  0  0  0  0  0  0
  -13.6119   17.5431  -38.0870 H   0  0  0  0  0  0  0  0  0  0  0  0
  -12.4075   17.5264  -39.3725 H   0  0  0  0  0  0  0  0  0  0  0  0
  -12.0833   15.4001  -40.8040 H   0  0  0  0  0  0  0  0  0  0  0  0
  -13.0671   13.9730  -40.4911 H   0  0  0  0  0  0  0  0  0  0  0  0
  -13.7340   13.7498  -36.3948 H   0  0  0  0  0  0  0  0  0  0  0  0
  -11.3217   17.2420  -37.1503 H   0  0  0  0  0  0  0  0  0  0  0  0
  -10.7814   13.6979  -39.5361 H   0  0  0  0  0  0  0  0  0  0  0  0
  -15.0750   15.4128  -40.6162 H   0  0  0  0  0  0  0  0  0  0  0  0
  -15.2678   16.7549  -39.7061 H   0  0  0  0  0  0  0  0  0  0  0  0
  1  6  1  0  0  0  0
  1  7  1  0  0  0  0
  2  6  1  0  0  0  0
  2  8  1  0  0  0  0
  3  6  1  0  0  0  0
  3  9  1  0  0  0  0
  4  7  1  0  0  0  0
  4  9  1  0  0  0  0
  5  8  1  0  0  0  0
  5  9  1  0  0  0  0
  7 10  1  0  0  0  0
  8 10  1  0  0  0  0
  9 11  1  0  0  0  0
 10 12  1  0  0  0  0
 10 13  1  0  0  0  0
  1 14  1  0  0  0  0
  1 15  1  0  0  0  0
  2 16  1  0  0  0  0
  2 17  1  0  0  0  0
  3 18  1  0  0  0  0
  3 19  1  0  0  0  0
  4 20  1  0  0  0  0
  4 21  1  0  0  0  0
  5 22  1  0  0  0  0
  5 23  1  0  0  0  0
  6 24  1  0  0  0  0
  7 25  1  0  0  0  0
  8 26  1  0  0  0  0
 11 27  1  0  0  0  0
 11 28  1  0  0  0  0
M  END
> <id>
EN300-1708691

> <smiles>
NC1(CC2CC3C1)CC(C2)C3(F)F

> <MDLNUMBER>
MFCD02720745

> <IUPAC Name>
4,4-difluoroadamantan-1-amine

> <CAS>
380191-17-3

> <URL>
https://www.enaminestore.com/catalog/EN300-1708691

> <ROCS_ShapeQuery>
_x1247relevant_x1083L0AP1_x1305L0BP1_

> <ROCS_TanimotoCombo>
1.029 

> <ROCS_ShapeTanimoto>
0.485 

> <ROCS_ColorTanimoto>
0.543 

> <ROCS_RefTversky>
0.419 

> <ROCS_RefColorTversky>
0.665 

> <ROCS_RefTverskyCombo>
1.084 

> <ROCS_FitTversky>
1.484 

> <ROCS_FitColorTversky>
0.749 

> <ROCS_FitTverskyCombo>
2.232 

> <ROCS_ColorScore>
-6.386

> <ROCS_Overlap>
1032.452

> <ROCS_Rank>
297                 

$$$$
untitled-dbase-19868_0
  -OEChem-06232314403D

 28 30  0     1  0  0  0  0  0999 V2000
  -12.5294   15.5495  -36.5280 C   0  0  0  0  0  0  0  0  0  0  0  0
  -12.2144   13.4816  -37.9203 C   0  0  0  0  0  0  0  0  0  0  0  0
  -14.2957   14.8609  -38.1723 C   0  0  0  0  0  0  0  0  0  0  0  0
  -12.8915   16.9008  -38.6107 C   0  0  0  0  0  0  0  0  0  0  0  0
  -12.5751   14.8271  -40.0071 C   0  0  0  0  0  0  0  0  0  0  0  0
  -13.2440   14.3473  -37.1715 C   0  0  0  0  0  0  0  0  0  0  0  0
  -11.8350   16.3919  -37.6124 C   0  0  2  0  0  0  0  0  0  0  0  0
  -11.5184   14.3150  -39.0106 C   0  0  1  0  0  0  0  0  0  0  0  0
  -13.6146   15.7052  -39.2719 C   0  0  0  0  0  0  0  0  0  0  0  0
  -10.8251   15.5139  -38.3571 C   0  0  0  0  0  0  0  0  0  0  0  0
  -14.6215   16.1966  -40.2109 N   0  0  0  0  0  0  0  0  0  0  0  0
   -9.8683   15.0813  -37.4978 F   0  0  0  0  0  0  0  0  0  0  0  0
  -10.1831   16.2471  -39.3009 F   0  0  0  0  0  0  0  0  0  0  0  0
  -13.2528   16.1662  -35.9806 H   0  0  0  0  0  0  0  0  0  0  0  0
  -11.7926   15.1979  -35.7952 H   0  0  0  0  0  0  0  0  0  0  0  0
  -11.4718   13.0903  -37.2146 H   0  0  0  0  0  0  0  0  0  0  0  0
  -12.7118   12.6144  -38.3719 H   0  0  0  0  0  0  0  0  0  0  0  0
  -14.8267   14.0079  -38.6154 H   0  0  0  0  0  0  0  0  0  0  0  0
  -15.0477   15.4583  -37.6398 H   0  0  0  0  0  0  0  0  0  0  0  0
  -13.6119   17.5431  -38.0870 H   0  0  0  0  0  0  0  0  0  0  0  0
  -12.4075   17.5264  -39.3725 H   0  0  0  0  0  0  0  0  0  0  0  0
  -12.0833   15.4001  -40.8040 H   0  0  0  0  0  0  0  0  0  0  0  0
  -13.0671   13.9730  -40.4911 H   0  0  0  0  0  0  0  0  0  0  0  0
  -13.7340   13.7498  -36.3948 H   0  0  0  0  0  0  0  0  0  0  0  0
  -11.3217   17.2420  -37.1503 H   0  0  0  0  0  0  0  0  0  0  0  0
  -10.7814   13.6979  -39.5361 H   0  0  0  0  0  0  0  0  0  0  0  0
  -15.0750   15.4128  -40.6162 H   0  0  0  0  0  0  0  0  0  0  0  0
  -15.2678   16.7549  -39.7061 H   0  0  0  0  0  0  0  0  0  0  0  0
  1  6  1  0  0  0  0
  1  7  1  0  0  0  0
  2  6  1  0  0  0  0
  2  8  1  0  0  0  0
  3  6  1  0  0  0  0
  3  9  1  0  0  0  0
  4  7  1  0  0  0  0
  4  9  1  0  0  0  0
  5  8  1  0  0  0  0
  5  9  1  0  0  0  0
  7 10  1  0  0  0  0
  8 10  1  0  0  0  0
  9 11  1  0  0  0  0
 10 12  1  0  0  0  0
 10 13  1  0  0  0  0
  1 14  1  0  0  0  0
  1 15  1  0  0  0  0
  2 16  1  0  0  0  0
  2 17  1  0  0  0  0
  3 18  1  0  0  0  0
  3 19  1  0  0  0  0
  4 20  1  0  0  0  0
  4 21  1  0  0  0  0
  5 22  1  0  0  0  0
  5 23  1  0  0  0  0
  6 24  1  0  0  0  0
  7 25  1  0  0  0  0
  8 26  1  0  0  0  0
 11 27  1  0  0  0  0
 11 28  1  0  0  0  0
M  END
> <id>
EN300-1709551

> <smiles>
Cl.NC1(CC2CC3C1)CC(C2)C3(F)F

> <MDLNUMBER>
MFCD07995960

> <IUPAC Name>
4,4-difluoroadamantan-1-amine hydrochloride

> <CAS>
1049763-69-0

> <Purity>
95

> <URL>
https://www.enaminestore.com/catalog/EN300-1709551

> <Saltdate>
Cl

> <ROCS_ShapeQuery>
_x1247relevant_x1083L0AP1_x1305L0BP1_

> <ROCS_TanimotoCombo>
1.029 

> <ROCS_ShapeTanimoto>
0.485 

> <ROCS_ColorTanimoto>
0.543 

> <ROCS_RefTversky>
0.419 

> <ROCS_RefColorTversky>
0.665 

> <ROCS_RefTverskyCombo>
1.084 

> <ROCS_FitTversky>
1.484 

> <ROCS_FitColorTversky>
0.749 

> <ROCS_FitTverskyCombo>
2.232 

> <ROCS_ColorScore>
-6.386

> <ROCS_Overlap>
1032.452

> <ROCS_Rank>
298                 

$$$$
untitled-dbase-46223_1
  -OEChem-06232314403D

 29 31  0     0  0  0  0  0  0999 V2000
  -13.1550   13.5532  -36.5792 C   0  0  0  0  0  0  0  0  0  0  0  0
   -8.8075   13.8834  -35.6908 C   0  0  0  0  0  0  0  0  0  0  0  0
  -13.1882   14.2977  -39.0631 C   0  0  0  0  0  0  0  0  0  0  0  0
  -13.5976   15.8444  -37.7104 C   0  0  0  0  0  0  0  0  0  0  0  0
  -10.6686   15.5285  -36.4153 C   0  0  0  0  0  0  0  0  0  0  0  0
  -10.2475   13.9367  -37.8074 C   0  0  0  0  0  0  0  0  0  0  0  0
  -12.7662   14.5160  -37.5625 C   0  0  0  0  0  0  0  0  0  0  0  0
  -11.3021   15.0437  -37.7227 C   0  0  0  0  0  0  0  0  0  0  0  0
  -12.8136   15.8375  -39.0878 C   0  0  0  0  0  0  0  0  0  0  0  0
   -8.1222   12.6534  -36.2231 C   0  0  0  0  0  0  0  0  0  0  0  0
  -13.2799   16.7055  -40.2211 C   0  0  0  0  0  0  0  0  0  0  0  0
  -13.4705   12.7721  -35.7814 N   0  0  0  0  0  0  0  0  0  0  0  0
   -9.7768   14.3893  -36.5123 N   0  0  0  0  0  0  0  0  0  0  0  0
   -8.4975   14.3717  -34.6052 O   0  0  0  0  0  0  0  0  0  0  0  0
  -11.3791   15.9878  -38.8256 O   0  0  0  0  0  0  0  0  0  0  0  0
  -12.5465   13.6448  -39.6624 H   0  0  0  0  0  0  0  0  0  0  0  0
  -14.2372   14.0431  -39.2545 H   0  0  0  0  0  0  0  0  0  0  0  0
  -14.6883   15.7470  -37.7642 H   0  0  0  0  0  0  0  0  0  0  0  0
  -13.3445   16.6595  -37.0257 H   0  0  0  0  0  0  0  0  0  0  0  0
  -10.1432   16.4857  -36.4805 H   0  0  0  0  0  0  0  0  0  0  0  0
  -11.3023   15.5143  -35.5248 H   0  0  0  0  0  0  0  0  0  0  0  0
  -10.6080   12.9048  -37.8024 H   0  0  0  0  0  0  0  0  0  0  0  0
   -9.5009   14.0638  -38.5968 H   0  0  0  0  0  0  0  0  0  0  0  0
   -7.2598   12.9512  -36.8119 H   0  0  0  0  0  0  0  0  0  0  0  0
   -8.8180   12.0962  -36.8438 H   0  0  0  0  0  0  0  0  0  0  0  0
   -7.8042   12.0326  -35.3906 H   0  0  0  0  0  0  0  0  0  0  0  0
  -12.9393   17.7409  -40.0912 H   0  0  0  0  0  0  0  0  0  0  0  0
  -14.3757   16.7176  -40.2839 H   0  0  0  0  0  0  0  0  0  0  0  0
  -12.8921   16.3422  -41.1817 H   0  0  0  0  0  0  0  0  0  0  0  0
  1  7  1  0  0  0  0
  1 12  3  0  0  0  0
  2 10  1  0  0  0  0
  2 13  1  0  0  0  0
  2 14  2  0  0  0  0
  3  7  1  0  0  0  0
  3  9  1  0  0  0  0
  4  7  1  0  0  0  0
  4  9  1  0  0  0  0
  5  8  1  0  0  0  0
  5 13  1  0  0  0  0
  6  8  1  0  0  0  0
  6 13  1  0  0  0  0
  7  8  1  0  0  0  0
  8 15  1  0  0  0  0
  9 11  1  0  0  0  0
  9 15  1  0  0  0  0
  3 16  1  0  0  0  0
  3 17  1  0  0  0  0
  4 18  1  0  0  0  0
  4 19  1  0  0  0  0
  5 20  1  0  0  0  0
  5 21  1  0  0  0  0
  6 22  1  0  0  0  0
  6 23  1  0  0  0  0
 10 24  1  0  0  0  0
 10 25  1  0  0  0  0
 10 26  1  0  0  0  0
 11 27  1  0  0  0  0
 11 28  1  0  0  0  0
 11 29  1  0  0  0  0
M  END
> <id>
EN300-28272616

> <smiles>
CC(=O)N1CC2(C1)OC3(C)CC2(C3)C#N

> <IUPAC Name>
1-acetyl-4'-methyl-3'-oxaspiro[azetidine-3,2'-bicyclo[2.1.1]hexane]-1'-carbonitrile

> <CAS>
2680681-66-5

> <URL>
https://www.enaminestore.com/catalog/EN300-28272616

> <ROCS_ShapeQuery>
_x1247relevant_x1083L0AP1_x1305L0BP1_

> <ROCS_TanimotoCombo>
1.029 

> <ROCS_ShapeTanimoto>
0.510 

> <ROCS_ColorTanimoto>
0.518 

> <ROCS_RefTversky>
0.444 

> <ROCS_RefColorTversky>
0.718 

> <ROCS_RefTverskyCombo>
1.162 

> <ROCS_FitTversky>
1.415 

> <ROCS_FitColorTversky>
0.651 

> <ROCS_FitTverskyCombo>
2.066 

> <ROCS_ColorScore>
-6.982

> <ROCS_Overlap>
1095.292

> <ROCS_Rank>
299                 

$$$$
untitled-dbase-28797_0
  -OEChem-06232314403D

 22 23  0     1  0  0  0  0  0999 V2000
  -11.3401   14.6953  -37.7380 C   0  0  0  0  0  0  0  0  0  0  0  0
  -11.4683   16.2019  -37.7029 C   0  0  0  0  0  0  0  0  0  0  0  0
  -13.5888   15.1412  -37.4349 C   0  0  0  0  0  0  0  0  0  0  0  0
  -12.8882   14.3295  -39.5829 C   0  0  0  0  0  0  0  0  0  0  0  0
  -12.6877   14.0890  -38.0792 C   0  0  1  0  0  0  0  0  0  0  0  0
  -12.9328   16.3170  -38.1782 C   0  0  2  0  0  0  0  0  0  0  0  0
  -13.1126   15.8631  -39.6557 C   0  0  1  0  0  0  0  0  0  0  0  0
  -12.2121   16.5526  -40.6722 C   0  0  0  0  0  0  0  0  0  0  0  0
  -10.3084   14.0699  -37.5513 O   0  0  0  0  0  0  0  0  0  0  0  0
  -14.4680   16.1024  -40.0474 O   0  0  0  0  0  0  0  0  0  0  0  0
  -11.3526   16.5505  -36.6728 H   0  0  0  0  0  0  0  0  0  0  0  0
  -10.7504   16.6887  -38.3627 H   0  0  0  0  0  0  0  0  0  0  0  0
  -14.6480   15.0038  -37.6748 H   0  0  0  0  0  0  0  0  0  0  0  0
  -13.4692   15.2089  -36.3476 H   0  0  0  0  0  0  0  0  0  0  0  0
  -12.0091   14.0084  -40.1527 H   0  0  0  0  0  0  0  0  0  0  0  0
  -13.7637   13.7798  -39.9460 H   0  0  0  0  0  0  0  0  0  0  0  0
  -12.8116   13.0662  -37.7257 H   0  0  0  0  0  0  0  0  0  0  0  0
  -13.3921   17.2830  -37.9539 H   0  0  0  0  0  0  0  0  0  0  0  0
  -12.4115   17.6245  -40.6813 H   0  0  0  0  0  0  0  0  0  0  0  0
  -12.3973   16.1505  -41.6685 H   0  0  0  0  0  0  0  0  0  0  0  0
  -11.1653   16.3901  -40.4145 H   0  0  0  0  0  0  0  0  0  0  0  0
  -14.5735   17.0641  -40.0829 H   0  0  0  0  0  0  0  0  0  0  0  0
  1  2  1  0  0  0  0
  1  5  1  0  0  0  0
  1  9  2  0  0  0  0
  2  6  1  6  0  0  0
  3  5  1  0  0  0  0
  3  6  1  0  0  0  0
  4  5  1  6  0  0  0
  4  7  1  0  0  0  0
  6  7  1  0  0  0  0
  7  8  1  6  0  0  0
  7 10  1  0  0  0  0
  2 11  1  0  0  0  0
  2 12  1  0  0  0  0
  3 13  1  0  0  0  0
  3 14  1  0  0  0  0
  4 15  1  0  0  0  0
  4 16  1  0  0  0  0
  5 17  1  0  0  0  0
  6 18  1  0  0  0  0
  8 19  1  0  0  0  0
  8 20  1  0  0  0  0
  8 21  1  0  0  0  0
 10 22  1  0  0  0  0
M  END
> <id>
EN300-7435916

> <smiles>
C[C@@]1(O)C[C@@H]2C[C@H]1CC2=O |&1:1,4,6,r|

> <IUPAC Name>
rac-(1R,4R,5S)-5-hydroxy-5-methylbicyclo[2.2.1]heptan-2-one

> <CAS>
1932103-22-4

> <Purity>
95

> <URL>
https://www.enaminestore.com/catalog/EN300-7435916

> <ROCS_ShapeQuery>
_x1247relevant_x1083L0AP1_x1305L0BP1_

> <ROCS_TanimotoCombo>
1.028 

> <ROCS_ShapeTanimoto>
0.463 

> <ROCS_ColorTanimoto>
0.565 

> <ROCS_RefTversky>
0.387 

> <ROCS_RefColorTversky>
0.711 

> <ROCS_RefTverskyCombo>
1.098 

> <ROCS_FitTversky>
1.730 

> <ROCS_FitColorTversky>
0.734 

> <ROCS_FitTverskyCombo>
2.464 

> <ROCS_ColorScore>
-6.860

> <ROCS_Overlap>
951.197

> <ROCS_Rank>
300                 

$$$$
untitled-dbase-37890_0
  -OEChem-06232314403D

 31 33  0     1  0  0  0  0  0999 V2000
  -14.2376   14.9954  -37.7046 C   0  0  0  0  0  0  0  0  0  0  0  0
  -12.1210   16.0175  -36.8308 C   0  0  0  0  0  0  0  0  0  0  0  0
  -12.1126   13.6638  -37.7116 C   0  0  0  0  0  0  0  0  0  0  0  0
  -13.1032   16.8229  -38.9930 C   0  0  0  0  0  0  0  0  0  0  0  0
  -13.0941   14.4709  -39.8731 C   0  0  0  0  0  0  0  0  0  0  0  0
  -10.9727   15.4930  -39.0034 C   0  0  0  0  0  0  0  0  0  0  0  0
  -13.4313   16.2986  -37.5855 C   0  0  1  0  0  0  0  0  0  0  0  0
  -13.4226   13.9394  -38.4685 C   0  0  2  0  0  0  0  0  0  0  0  0
  -11.2799   14.9605  -37.5839 C   0  0  0  0  0  0  0  0  0  0  0  0
  -12.2797   15.7789  -39.7758 C   0  0  0  0  0  0  0  0  0  0  0  0
   -9.9780   14.6820  -36.8274 C   0  0  0  0  0  0  0  0  0  0  0  0
  -11.9677   16.2900  -41.1089 N   0  0  0  0  0  0  0  0  0  0  0  0
  -10.2539   14.2217  -35.5993 F   0  0  0  0  0  0  0  0  0  0  0  0
   -9.2551   13.7657  -37.4863 F   0  0  0  0  0  0  0  0  0  0  0  0
   -9.2625   15.8104  -36.7213 F   0  0  0  0  0  0  0  0  0  0  0  0
  -14.4936   14.6207  -36.7059 H   0  0  0  0  0  0  0  0  0  0  0  0
  -15.1841   15.1865  -38.2248 H   0  0  0  0  0  0  0  0  0  0  0  0
  -11.5508   16.9492  -36.7226 H   0  0  0  0  0  0  0  0  0  0  0  0
  -12.3485   15.6681  -35.8155 H   0  0  0  0  0  0  0  0  0  0  0  0
  -12.3404   13.2598  -36.7166 H   0  0  0  0  0  0  0  0  0  0  0  0
  -11.5366   12.8930  -38.2398 H   0  0  0  0  0  0  0  0  0  0  0  0
  -14.0366   17.0521  -39.5244 H   0  0  0  0  0  0  0  0  0  0  0  0
  -12.5481   17.7669  -38.9126 H   0  0  0  0  0  0  0  0  0  0  0  0
  -12.5322   13.7098  -40.4308 H   0  0  0  0  0  0  0  0  0  0  0  0
  -14.0269   14.6408  -40.4273 H   0  0  0  0  0  0  0  0  0  0  0  0
  -10.3682   16.4083  -38.9342 H   0  0  0  0  0  0  0  0  0  0  0  0
  -10.3637   14.7600  -39.5504 H   0  0  0  0  0  0  0  0  0  0  0  0
  -14.0177   17.0468  -37.0403 H   0  0  0  0  0  0  0  0  0  0  0  0
  -14.0030   13.0136  -38.5505 H   0  0  0  0  0  0  0  0  0  0  0  0
  -12.8225   16.4689  -41.5798 H   0  0  0  0  0  0  0  0  0  0  0  0
  -11.4424   17.1253  -41.0045 H   0  0  0  0  0  0  0  0  0  0  0  0
  1  7  1  0  0  0  0
  1  8  1  0  0  0  0
  2  7  1  0  0  0  0
  2  9  1  0  0  0  0
  3  8  1  0  0  0  0
  3  9  1  0  0  0  0
  4  7  1  0  0  0  0
  4 10  1  0  0  0  0
  5  8  1  0  0  0  0
  5 10  1  0  0  0  0
  6  9  1  0  0  0  0
  6 10  1  0  0  0  0
  9 11  1  0  0  0  0
 10 12  1  0  0  0  0
 11 13  1  0  0  0  0
 11 14  1  0  0  0  0
 11 15  1  0  0  0  0
  1 16  1  0  0  0  0
  1 17  1  0  0  0  0
  2 18  1  0  0  0  0
  2 19  1  0  0  0  0
  3 20  1  0  0  0  0
  3 21  1  0  0  0  0
  4 22  1  0  0  0  0
  4 23  1  0  0  0  0
  5 24  1  0  0  0  0
  5 25  1  0  0  0  0
  6 26  1  0  0  0  0
  6 27  1  0  0  0  0
  7 28  1  0  0  0  0
  8 29  1  0  0  0  0
 12 30  1  0  0  0  0
 12 31  1  0  0  0  0
M  END
> <id>
EN300-150594

> <smiles>
NC1(CC2CC3C1)CC(C2)(C3)C(F)(F)F

> <MDLNUMBER>
MFCD01852006

> <IUPAC Name>
3-(trifluoromethyl)adamantan-1-amine

> <CAS>
130974-28-6

> <URL>
https://www.enaminestore.com/catalog/EN300-150594

> <ROCS_ShapeQuery>
_x1247relevant_x1083L0AP1_x1305L0BP1_

> <ROCS_TanimotoCombo>
1.028 

> <ROCS_ShapeTanimoto>
0.574 

> <ROCS_ColorTanimoto>
0.454 

> <ROCS_RefTversky>
0.481 

> <ROCS_RefColorTversky>
0.589 

> <ROCS_RefTverskyCombo>
1.070 

> <ROCS_FitTversky>
1.514 

> <ROCS_FitColorTversky>
0.664 

> <ROCS_FitTverskyCombo>
2.178 

> <ROCS_ColorScore>
-5.660

> <ROCS_Overlap>
1186.169

> <ROCS_Rank>
301                 

$$$$
untitled-dbase-3325_0
  -OEChem-06232314403D

 31 33  0     1  0  0  0  0  0999 V2000
  -14.2376   14.9954  -37.7046 C   0  0  0  0  0  0  0  0  0  0  0  0
  -12.1210   16.0175  -36.8308 C   0  0  0  0  0  0  0  0  0  0  0  0
  -12.1126   13.6638  -37.7116 C   0  0  0  0  0  0  0  0  0  0  0  0
  -13.1032   16.8229  -38.9930 C   0  0  0  0  0  0  0  0  0  0  0  0
  -13.0941   14.4709  -39.8731 C   0  0  0  0  0  0  0  0  0  0  0  0
  -10.9727   15.4930  -39.0034 C   0  0  0  0  0  0  0  0  0  0  0  0
  -13.4313   16.2986  -37.5855 C   0  0  1  0  0  0  0  0  0  0  0  0
  -13.4226   13.9394  -38.4685 C   0  0  2  0  0  0  0  0  0  0  0  0
  -11.2799   14.9605  -37.5839 C   0  0  0  0  0  0  0  0  0  0  0  0
  -12.2797   15.7789  -39.7758 C   0  0  0  0  0  0  0  0  0  0  0  0
   -9.9780   14.6820  -36.8274 C   0  0  0  0  0  0  0  0  0  0  0  0
  -11.9677   16.2900  -41.1089 N   0  0  0  0  0  0  0  0  0  0  0  0
  -10.2539   14.2217  -35.5993 F   0  0  0  0  0  0  0  0  0  0  0  0
   -9.2551   13.7657  -37.4863 F   0  0  0  0  0  0  0  0  0  0  0  0
   -9.2625   15.8104  -36.7213 F   0  0  0  0  0  0  0  0  0  0  0  0
  -14.4936   14.6207  -36.7059 H   0  0  0  0  0  0  0  0  0  0  0  0
  -15.1841   15.1865  -38.2248 H   0  0  0  0  0  0  0  0  0  0  0  0
  -11.5508   16.9492  -36.7226 H   0  0  0  0  0  0  0  0  0  0  0  0
  -12.3485   15.6681  -35.8155 H   0  0  0  0  0  0  0  0  0  0  0  0
  -12.3404   13.2598  -36.7166 H   0  0  0  0  0  0  0  0  0  0  0  0
  -11.5366   12.8930  -38.2398 H   0  0  0  0  0  0  0  0  0  0  0  0
  -14.0366   17.0521  -39.5244 H   0  0  0  0  0  0  0  0  0  0  0  0
  -12.5481   17.7669  -38.9126 H   0  0  0  0  0  0  0  0  0  0  0  0
  -12.5322   13.7098  -40.4308 H   0  0  0  0  0  0  0  0  0  0  0  0
  -14.0269   14.6408  -40.4273 H   0  0  0  0  0  0  0  0  0  0  0  0
  -10.3682   16.4083  -38.9342 H   0  0  0  0  0  0  0  0  0  0  0  0
  -10.3637   14.7600  -39.5504 H   0  0  0  0  0  0  0  0  0  0  0  0
  -14.0177   17.0468  -37.0403 H   0  0  0  0  0  0  0  0  0  0  0  0
  -14.0030   13.0136  -38.5505 H   0  0  0  0  0  0  0  0  0  0  0  0
  -12.8225   16.4689  -41.5798 H   0  0  0  0  0  0  0  0  0  0  0  0
  -11.4424   17.1253  -41.0045 H   0  0  0  0  0  0  0  0  0  0  0  0
  1  7  1  0  0  0  0
  1  8  1  0  0  0  0
  2  7  1  0  0  0  0
  2  9  1  0  0  0  0
  3  8  1  0  0  0  0
  3  9  1  0  0  0  0
  4  7  1  0  0  0  0
  4 10  1  0  0  0  0
  5  8  1  0  0  0  0
  5 10  1  0  0  0  0
  6  9  1  0  0  0  0
  6 10  1  0  0  0  0
  9 11  1  0  0  0  0
 10 12  1  0  0  0  0
 11 13  1  0  0  0  0
 11 14  1  0  0  0  0
 11 15  1  0  0  0  0
  1 16  1  0  0  0  0
  1 17  1  0  0  0  0
  2 18  1  0  0  0  0
  2 19  1  0  0  0  0
  3 20  1  0  0  0  0
  3 21  1  0  0  0  0
  4 22  1  0  0  0  0
  4 23  1  0  0  0  0
  5 24  1  0  0  0  0
  5 25  1  0  0  0  0
  6 26  1  0  0  0  0
  6 27  1  0  0  0  0
  7 28  1  0  0  0  0
  8 29  1  0  0  0  0
 12 30  1  0  0  0  0
 12 31  1  0  0  0  0
M  END
> <id>
EN300-128123

> <smiles>
Cl.NC1(CC2CC3C1)CC(C2)(C3)C(F)(F)F

> <MDLNUMBER>
MFCD02208045

> <IUPAC Name>
3-(trifluoromethyl)adamantan-1-amine hydrochloride

> <CAS>
1171704-13-4

> <Purity>
95

> <URL>
https://www.enaminestore.com/catalog/EN300-128123

> <Saltdate>
Cl

> <ROCS_ShapeQuery>
_x1247relevant_x1083L0AP1_x1305L0BP1_

> <ROCS_TanimotoCombo>
1.028 

> <ROCS_ShapeTanimoto>
0.574 

> <ROCS_ColorTanimoto>
0.454 

> <ROCS_RefTversky>
0.481 

> <ROCS_RefColorTversky>
0.589 

> <ROCS_RefTverskyCombo>
1.070 

> <ROCS_FitTversky>
1.514 

> <ROCS_FitColorTversky>
0.664 

> <ROCS_FitTverskyCombo>
2.178 

> <ROCS_ColorScore>
-5.660

> <ROCS_Overlap>
1186.169

> <ROCS_Rank>
302                 

$$$$
untitled-dbase-16551_2
  -OEChem-06232314403D

 30 32  0     1  0  0  0  0  0999 V2000
  -13.9171   14.4304  -39.2512 C   0  0  0  0  0  0  0  0  0  0  0  0
  -13.3235   15.6637  -39.9203 C   0  0  0  0  0  0  0  0  0  0  0  0
   -9.5482   14.1632  -37.6413 C   0  0  0  0  0  0  0  0  0  0  0  0
  -12.1465   13.8495  -37.5294 C   0  0  0  0  0  0  0  0  0  0  0  0
  -11.1343   15.9422  -38.6710 C   0  0  0  0  0  0  0  0  0  0  0  0
   -9.5629   14.3549  -36.1203 C   0  0  0  0  0  0  0  0  0  0  0  0
  -13.5018   14.5539  -37.7794 C   0  0  1  0  0  0  0  0  0  0  0  0
  -12.6054   16.4077  -38.7870 C   0  0  2  0  0  0  0  0  0  0  0  0
  -10.9544   14.8241  -37.6292 C   0  0  0  0  0  0  0  0  0  0  0  0
  -14.5935   16.7105  -37.3904 C   0  0  0  0  0  0  0  0  0  0  0  0
  -10.5878   15.3995  -36.2969 N   0  0  0  0  0  0  0  0  0  0  0  0
  -13.3294   16.0025  -37.5686 N   0  0  0  0  0  0  0  0  0  0  0  0
  -15.0098   14.4539  -39.3442 H   0  0  0  0  0  0  0  0  0  0  0  0
  -13.5721   13.4998  -39.7126 H   0  0  0  0  0  0  0  0  0  0  0  0
  -12.6608   15.4126  -40.7532 H   0  0  0  0  0  0  0  0  0  0  0  0
  -14.1316   16.2828  -40.3292 H   0  0  0  0  0  0  0  0  0  0  0  0
   -8.7413   14.6872  -38.1624 H   0  0  0  0  0  0  0  0  0  0  0  0
   -9.5306   13.1081  -37.9465 H   0  0  0  0  0  0  0  0  0  0  0  0
  -12.1763   13.3967  -36.5255 H   0  0  0  0  0  0  0  0  0  0  0  0
  -12.0314   13.0155  -38.2367 H   0  0  0  0  0  0  0  0  0  0  0  0
  -10.7763   15.6216  -39.6611 H   0  0  0  0  0  0  0  0  0  0  0  0
  -10.5198   16.8137  -38.3910 H   0  0  0  0  0  0  0  0  0  0  0  0
   -9.8844   13.4871  -35.5379 H   0  0  0  0  0  0  0  0  0  0  0  0
   -8.6242   14.7313  -35.6987 H   0  0  0  0  0  0  0  0  0  0  0  0
  -14.2547   14.1085  -37.1177 H   0  0  0  0  0  0  0  0  0  0  0  0
  -12.6170   17.4898  -38.9557 H   0  0  0  0  0  0  0  0  0  0  0  0
  -14.3960   17.7819  -37.2384 H   0  0  0  0  0  0  0  0  0  0  0  0
  -15.2181   16.5764  -38.2859 H   0  0  0  0  0  0  0  0  0  0  0  0
  -15.1193   16.3065  -36.5128 H   0  0  0  0  0  0  0  0  0  0  0  0
  -11.3343   15.3388  -35.6056 H   0  0  0  0  0  0  0  0  0  0  0  0
  1  2  1  0  0  0  0
  1  7  1  0  0  0  0
  2  8  1  0  0  0  0
  3  6  1  0  0  0  0
  3  9  1  0  0  0  0
  4  7  1  0  0  0  0
  4  9  1  0  0  0  0
  5  8  1  0  0  0  0
  5  9  1  0  0  0  0
  6 11  1  0  0  0  0
  7 12  1  0  0  0  0
  8 12  1  0  0  0  0
  9 11  1  0  0  0  0
 10 12  1  0  0  0  0
  1 13  1  0  0  0  0
  1 14  1  0  0  0  0
  2 15  1  0  0  0  0
  2 16  1  0  0  0  0
  3 17  1  0  0  0  0
  3 18  1  0  0  0  0
  4 19  1  0  0  0  0
  4 20  1  0  0  0  0
  5 21  1  0  0  0  0
  5 22  1  0  0  0  0
  6 23  1  0  0  0  0
  6 24  1  0  0  0  0
  7 25  1  0  0  0  0
  8 26  1  0  0  0  0
 10 27  1  0  0  0  0
 10 28  1  0  0  0  0
 10 29  1  0  0  0  0
 11 30  1  0  0  0  0
M  END
> <id>
EN300-1297141

> <smiles>
CN1C2CCC1CC3(CCN3)C2

> <IUPAC Name>
8'-methyl-8'-azaspiro[azetidine-2,3'-bicyclo[3.2.1]octane]

> <CAS>
2166529-40-2

> <URL>
https://www.enaminestore.com/catalog/EN300-1297141

> <ROCS_ShapeQuery>
_x1247relevant_x1083L0AP1_x1305L0BP1_

> <ROCS_TanimotoCombo>
1.028 

> <ROCS_ShapeTanimoto>
0.525 

> <ROCS_ColorTanimoto>
0.504 

> <ROCS_RefTversky>
0.433 

> <ROCS_RefColorTversky>
0.675 

> <ROCS_RefTverskyCombo>
1.108 

> <ROCS_FitTversky>
1.672 

> <ROCS_FitColorTversky>
0.665 

> <ROCS_FitTverskyCombo>
2.337 

> <ROCS_ColorScore>
-6.529

> <ROCS_Overlap>
1066.057

> <ROCS_Rank>
303                 

$$$$
untitled-dbase-27547_0
  -OEChem-06232314403D

 22 24  0     1  0  0  0  0  0999 V2000
  -13.9495   14.7424  -38.4863 C   0  0  0  0  0  0  0  0  0  0  0  0
  -13.7825   16.0581  -38.2747 C   0  0  0  0  0  0  0  0  0  0  0  0
  -10.4252   13.6241  -37.4482 C   0  0  0  0  0  0  0  0  0  0  0  0
  -10.1352   15.9063  -37.0808 C   0  0  0  0  0  0  0  0  0  0  0  0
  -11.9597   15.3350  -39.4807 C   0  0  0  0  0  0  0  0  0  0  0  0
  -12.5793   14.1485  -38.7299 C   0  0  1  0  0  0  0  0  0  0  0  0
  -12.3004   16.3452  -38.3767 C   0  0  2  0  0  0  0  0  0  0  0  0
  -11.8274   14.1816  -37.3809 C   0  0  2  0  0  0  0  0  0  0  0  0
  -11.6326   15.7150  -37.1342 C   0  0  1  0  0  0  0  0  0  0  0  0
   -9.5848   14.6623  -37.1742 N   0  0  0  0  0  0  0  0  0  0  0  0
  -10.1427   12.4657  -37.7123 O   0  0  0  0  0  0  0  0  0  0  0  0
   -9.5686   16.9839  -36.9849 O   0  0  0  0  0  0  0  0  0  0  0  0
   -8.2280   14.4615  -36.9980 O   0  0  0  0  0  0  0  0  0  0  0  0
  -14.8791   14.1984  -38.4359 H   0  0  0  0  0  0  0  0  0  0  0  0
  -14.5525   16.7693  -38.0225 H   0  0  0  0  0  0  0  0  0  0  0  0
  -10.8866   15.2291  -39.6688 H   0  0  0  0  0  0  0  0  0  0  0  0
  -12.4562   15.5518  -40.4361 H   0  0  0  0  0  0  0  0  0  0  0  0
  -12.5663   13.2066  -39.2795 H   0  0  0  0  0  0  0  0  0  0  0  0
  -12.0364   17.3776  -38.6088 H   0  0  0  0  0  0  0  0  0  0  0  0
  -12.3763   13.7003  -36.5640 H   0  0  0  0  0  0  0  0  0  0  0  0
  -12.0793   16.0390  -36.1879 H   0  0  0  0  0  0  0  0  0  0  0  0
   -7.8864   15.3679  -36.8179 H   0  0  0  0  0  0  0  0  0  0  0  0
  1  2  2  0  0  0  0
  1  6  1  0  0  0  0
  2  7  1  0  0  0  0
  3  8  1  0  0  0  0
  3 10  1  0  0  0  0
  3 11  2  0  0  0  0
  4  9  1  0  0  0  0
  4 10  1  0  0  0  0
  4 12  2  0  0  0  0
  5  6  1  0  0  0  0
  5  7  1  0  0  0  0
  6  8  1  0  0  0  0
  7  9  1  0  0  0  0
  8  9  1  0  0  0  0
 10 13  1  0  0  0  0
  1 14  1  0  0  0  0
  2 15  1  0  0  0  0
  5 16  1  0  0  0  0
  5 17  1  0  0  0  0
  6 18  1  0  0  0  0
  7 19  1  0  0  0  0
  8 20  1  0  0  0  0
  9 21  1  0  0  0  0
 13 22  1  0  0  0  0
M  END
> <id>
EN300-7465429

> <smiles>
ON1C(=O)C2C3CC(C=C3)C2C1=O

> <IUPAC Name>
4-hydroxy-4-azatricyclo[5.2.1.0,2,6]dec-8-ene-3,5-dione

> <CAS>
21715-90-2

> <Purity>
95

> <URL>
https://www.enaminestore.com/catalog/EN300-7465429

> <MP>
169-170

> <ROCS_ShapeQuery>
_x1247relevant_x1083L0AP1_x1305L0BP1_

> <ROCS_TanimotoCombo>
1.028 

> <ROCS_ShapeTanimoto>
0.496 

> <ROCS_ColorTanimoto>
0.532 

> <ROCS_RefTversky>
0.428 

> <ROCS_RefColorTversky>
0.690 

> <ROCS_RefTverskyCombo>
1.117 

> <ROCS_FitTversky>
1.476 

> <ROCS_FitColorTversky>
0.700 

> <ROCS_FitTverskyCombo>
2.176 

> <ROCS_ColorScore>
-6.663

> <ROCS_Overlap>
1053.510

> <ROCS_Rank>
304                 

$$$$
untitled-dbase-15034_20
  -OEChem-06232314403D

 38 40  0     1  0  0  0  0  0999 V2000
   -9.5372   15.1573  -37.0384 C   0  0  0  0  0  0  0  0  0  0  0  0
  -13.1433   16.6066  -38.9252 C   0  0  0  0  0  0  0  0  0  0  0  0
  -14.0696   14.4398  -38.6671 C   0  0  0  0  0  0  0  0  0  0  0  0
  -10.7173   15.7643  -39.1493 C   0  0  0  0  0  0  0  0  0  0  0  0
  -13.8818   15.7375  -37.8797 C   0  0  1  0  0  0  0  0  0  0  0  0
  -12.1678   15.6051  -39.5893 C   0  0  1  0  0  0  0  0  0  0  0  0
  -12.5862   14.2696  -38.9369 C   0  0  1  0  0  0  0  0  0  0  0  0
  -11.9035   14.4038  -37.5547 C   0  0  2  0  0  0  0  0  0  0  0  0
  -12.8643   15.3448  -36.7842 C   0  0  2  0  0  0  0  0  0  0  0  0
   -7.3776   13.9723  -35.5888 C   0  0  0  0  0  0  0  0  0  0  0  0
   -9.1549   12.7424  -34.3091 C   0  0  0  0  0  0  0  0  0  0  0  0
   -8.9125   12.3736  -36.7817 C   0  0  0  0  0  0  0  0  0  0  0  0
   -8.7876   13.3863  -35.6443 C   0  0  0  0  0  0  0  0  0  0  0  0
  -10.6497   15.0943  -37.8597 N   0  0  0  0  0  0  0  0  0  0  0  0
   -8.5115   15.7761  -37.3128 O   0  0  0  0  0  0  0  0  0  0  0  0
   -9.7148   14.4518  -35.8788 O   0  0  0  0  0  0  0  0  0  0  0  0
  -13.6432   14.5208  -35.3546 S   0  0  0  0  0  0  0  0  0  0  0  0
  -13.8572   16.9746  -39.6720 H   0  0  0  0  0  0  0  0  0  0  0  0
  -12.6423   17.4727  -38.4813 H   0  0  0  0  0  0  0  0  0  0  0  0
  -14.4950   13.6209  -38.0804 H   0  0  0  0  0  0  0  0  0  0  0  0
  -14.6572   14.5739  -39.5814 H   0  0  0  0  0  0  0  0  0  0  0  0
  -10.0353   15.2383  -39.8266 H   0  0  0  0  0  0  0  0  0  0  0  0
  -10.3913   16.8049  -39.0608 H   0  0  0  0  0  0  0  0  0  0  0  0
  -14.8002   16.2013  -37.5120 H   0  0  0  0  0  0  0  0  0  0  0  0
  -12.2782   15.6115  -40.6778 H   0  0  0  0  0  0  0  0  0  0  0  0
  -12.2889   13.3839  -39.5032 H   0  0  0  0  0  0  0  0  0  0  0  0
  -11.7139   13.4454  -37.0618 H   0  0  0  0  0  0  0  0  0  0  0  0
  -12.3426   16.2348  -36.3869 H   0  0  0  0  0  0  0  0  0  0  0  0
   -7.1102   14.4355  -36.5453 H   0  0  0  0  0  0  0  0  0  0  0  0
   -7.2845   14.7255  -34.7997 H   0  0  0  0  0  0  0  0  0  0  0  0
   -6.6347   13.1872  -35.4072 H   0  0  0  0  0  0  0  0  0  0  0  0
  -10.1659   12.3206  -34.3444 H   0  0  0  0  0  0  0  0  0  0  0  0
   -9.1589   13.4868  -33.5048 H   0  0  0  0  0  0  0  0  0  0  0  0
   -8.4555   11.9444  -34.0396 H   0  0  0  0  0  0  0  0  0  0  0  0
   -9.9238   11.9532  -36.8217 H   0  0  0  0  0  0  0  0  0  0  0  0
   -8.6884   12.8277  -37.7524 H   0  0  0  0  0  0  0  0  0  0  0  0
   -8.2321   11.5284  -36.6272 H   0  0  0  0  0  0  0  0  0  0  0  0
  -12.5081   14.3471  -34.6659 H   0  0  0  0  0  0  0  0  0  0  0  0
  1 14  1  0  0  0  0
  1 15  2  0  0  0  0
  1 16  1  0  0  0  0
  2  5  1  0  0  0  0
  2  6  1  0  0  0  0
  3  5  1  0  0  0  0
  3  7  1  0  0  0  0
  4  6  1  0  0  0  0
  4 14  1  0  0  0  0
  5  9  1  0  0  0  0
  6  7  1  0  0  0  0
  7  8  1  0  0  0  0
  8  9  1  0  0  0  0
  8 14  1  0  0  0  0
  9 17  1  0  0  0  0
 10 13  1  0  0  0  0
 11 13  1  0  0  0  0
 12 13  1  0  0  0  0
 13 16  1  0  0  0  0
  2 18  1  0  0  0  0
  2 19  1  0  0  0  0
  3 20  1  0  0  0  0
  3 21  1  0  0  0  0
  4 22  1  0  0  0  0
  4 23  1  0  0  0  0
  5 24  1  0  0  0  0
  6 25  1  0  0  0  0
  7 26  1  0  0  0  0
  8 27  1  0  0  0  0
  9 28  1  0  0  0  0
 10 29  1  0  0  0  0
 10 30  1  0  0  0  0
 10 31  1  0  0  0  0
 11 32  1  0  0  0  0
 11 33  1  0  0  0  0
 11 34  1  0  0  0  0
 12 35  1  0  0  0  0
 12 36  1  0  0  0  0
 12 37  1  0  0  0  0
 17 38  1  0  0  0  0
M  END
> <id>
EN300-1289473

> <smiles>
CC(C)(C)OC(=O)N1CC2CC3CC2C1C3S

> <IUPAC Name>
tert-butyl 2-sulfanyl-4-azatricyclo[4.2.1.0,3,7]nonane-4-carboxylate

> <CAS>
2172173-81-6

> <URL>
https://www.enaminestore.com/catalog/EN300-1289473

> <ROCS_ShapeQuery>
_x1247relevant_x1083L0AP1_x1305L0BP1_

> <ROCS_TanimotoCombo>
1.028 

> <ROCS_ShapeTanimoto>
0.511 

> <ROCS_ColorTanimoto>
0.517 

> <ROCS_RefTversky>
0.455 

> <ROCS_RefColorTversky>
0.834 

> <ROCS_RefTverskyCombo>
1.289 

> <ROCS_FitTversky>
1.317 

> <ROCS_FitColorTversky>
0.577 

> <ROCS_FitTverskyCombo>
1.893 

> <ROCS_ColorScore>
-8.264

> <ROCS_Overlap>
1124.754

> <ROCS_Rank>
305                 

$$$$
untitled-dbase-48497_0
  -OEChem-06232314403D

 27 28  0     1  0  0  0  0  0999 V2000
  -12.9616   16.1248  -39.5444 C   0  0  0  0  0  0  0  0  0  0  0  0
  -13.5616   14.4532  -37.3286 C   0  0  0  0  0  0  0  0  0  0  0  0
  -13.3636   15.9754  -37.1665 C   0  0  0  0  0  0  0  0  0  0  0  0
  -13.1083   14.6485  -39.8377 C   0  0  1  0  0  0  0  0  0  0  0  0
  -12.5979   14.0843  -38.4913 C   0  0  1  0  0  0  0  0  0  0  0  0
  -12.2504   16.2867  -38.1915 C   0  0  1  0  0  0  0  0  0  0  0  0
  -11.3696   15.0028  -38.1851 C   0  0  0  0  0  0  0  0  0  0  0  0
  -11.5589   17.6152  -38.0009 C   0  0  0  0  0  0  0  0  0  0  0  0
  -10.2610   14.9818  -39.2594 C   0  0  0  0  0  0  0  0  0  0  0  0
  -10.6726   14.6977  -36.8433 C   0  0  0  0  0  0  0  0  0  0  0  0
  -13.3542   17.0384  -40.2539 O   0  0  0  0  0  0  0  0  0  0  0  0
  -14.9238   14.2317  -40.2924 Br  0  0  0  0  0  0  0  0  0  0  0  0
  -13.2799   13.9300  -36.4081 H   0  0  0  0  0  0  0  0  0  0  0  0
  -14.6074   14.1963  -37.5120 H   0  0  0  0  0  0  0  0  0  0  0  0
  -14.2920   16.5154  -37.3863 H   0  0  0  0  0  0  0  0  0  0  0  0
  -13.0680   16.2224  -36.1413 H   0  0  0  0  0  0  0  0  0  0  0  0
  -12.4775   14.3585  -40.6809 H   0  0  0  0  0  0  0  0  0  0  0  0
  -12.3747   13.0149  -38.5311 H   0  0  0  0  0  0  0  0  0  0  0  0
  -11.0752   17.6620  -37.0198 H   0  0  0  0  0  0  0  0  0  0  0  0
  -12.2777   18.4382  -38.0680 H   0  0  0  0  0  0  0  0  0  0  0  0
  -10.7927   17.7658  -38.7683 H   0  0  0  0  0  0  0  0  0  0  0  0
   -9.4617   15.6461  -38.9542 H   0  0  0  0  0  0  0  0  0  0  0  0
  -10.6778   15.3141  -40.2024 H   0  0  0  0  0  0  0  0  0  0  0  0
   -9.8843   13.9709  -39.3575 H   0  0  0  0  0  0  0  0  0  0  0  0
   -9.8386   15.3778  -36.7151 H   0  0  0  0  0  0  0  0  0  0  0  0
  -10.3154   13.6747  -36.8547 H   0  0  0  0  0  0  0  0  0  0  0  0
  -11.3840   14.8309  -36.0367 H   0  0  0  0  0  0  0  0  0  0  0  0
  1  4  1  0  0  0  0
  1  6  1  0  0  0  0
  1 11  2  0  0  0  0
  2  3  1  0  0  0  0
  2  5  1  0  0  0  0
  3  6  1  0  0  0  0
  4  5  1  0  0  0  0
  4 12  1  0  0  0  0
  5  7  1  0  0  0  0
  6  7  1  0  0  0  0
  6  8  1  0  0  0  0
  7  9  1  0  0  0  0
  7 10  1  0  0  0  0
  2 13  1  0  0  0  0
  2 14  1  0  0  0  0
  3 15  1  0  0  0  0
  3 16  1  0  0  0  0
  4 17  1  0  0  0  0
  5 18  1  0  0  0  0
  8 19  1  0  0  0  0
  8 20  1  0  0  0  0
  8 21  1  0  0  0  0
  9 22  1  0  0  0  0
  9 23  1  0  0  0  0
  9 24  1  0  0  0  0
 10 25  1  0  0  0  0
 10 26  1  0  0  0  0
 10 27  1  0  0  0  0
M  END
> <id>
EN300-297762

> <smiles>
CC1(C)C2CCC1(C)C(=O)C2Br

> <MDLNUMBER>
MFCD00067084

> <IUPAC Name>
3-bromo-1,7,7-trimethylbicyclo[2.2.1]heptan-2-one

> <CAS>
76-29-9

> <URL>
https://www.enaminestore.com/catalog/EN300-297762

> <ROCS_ShapeQuery>
_x1247relevant_x1083L0AP1_x1305L0BP1_

> <ROCS_TanimotoCombo>
1.028 

> <ROCS_ShapeTanimoto>
0.480 

> <ROCS_ColorTanimoto>
0.548 

> <ROCS_RefTversky>
0.406 

> <ROCS_RefColorTversky>
0.696 

> <ROCS_RefTverskyCombo>
1.102 

> <ROCS_FitTversky>
1.615 

> <ROCS_FitColorTversky>
0.720 

> <ROCS_FitTverskyCombo>
2.335 

> <ROCS_ColorScore>
-6.718

> <ROCS_Overlap>
997.889

> <ROCS_Rank>
306                 

$$$$
untitled-dbase-17191_2
  -OEChem-06232314403D

 20 21  0     1  0  0  0  0  0999 V2000
  -11.5276   14.7760  -37.6386 C   0  0  0  0  0  0  0  0  0  0  0  0
  -13.8675   14.3444  -37.9966 C   0  0  0  0  0  0  0  0  0  0  0  0
  -13.9979   15.8846  -38.0271 C   0  0  0  0  0  0  0  0  0  0  0  0
  -12.3804   15.2076  -39.6557 C   0  0  0  0  0  0  0  0  0  0  0  0
  -12.4715   14.1250  -38.5929 C   0  0  1  0  0  0  0  0  0  0  0  0
  -12.6463   16.3127  -38.6322 C   0  0  2  0  0  0  0  0  0  0  0  0
   -9.3390   14.2399  -37.0910 C   0  0  0  0  0  0  0  0  0  0  0  0
  -11.5874   16.0762  -37.5947 N   0  0  0  0  0  0  0  0  0  0  0  0
  -10.7324   14.0116  -36.8918 O   0  0  0  0  0  0  0  0  0  0  0  0
  -13.9548   13.9579  -36.9756 H   0  0  0  0  0  0  0  0  0  0  0  0
  -14.6434   13.8833  -38.6170 H   0  0  0  0  0  0  0  0  0  0  0  0
  -14.8318   16.1813  -38.6721 H   0  0  0  0  0  0  0  0  0  0  0  0
  -14.1581   16.2978  -37.0262 H   0  0  0  0  0  0  0  0  0  0  0  0
  -11.3872   15.2852  -40.1129 H   0  0  0  0  0  0  0  0  0  0  0  0
  -13.1486   15.1331  -40.4317 H   0  0  0  0  0  0  0  0  0  0  0  0
  -12.2107   13.1116  -38.8925 H   0  0  0  0  0  0  0  0  0  0  0  0
  -12.6166   17.3306  -39.0257 H   0  0  0  0  0  0  0  0  0  0  0  0
   -8.7636   13.5745  -36.4427 H   0  0  0  0  0  0  0  0  0  0  0  0
   -9.1032   15.2823  -36.8625 H   0  0  0  0  0  0  0  0  0  0  0  0
   -9.0905   14.0325  -38.1346 H   0  0  0  0  0  0  0  0  0  0  0  0
  1  5  1  0  0  0  0
  1  8  2  0  0  0  0
  1  9  1  0  0  0  0
  2  3  1  0  0  0  0
  2  5  1  0  0  0  0
  3  6  1  0  0  0  0
  4  5  1  0  0  0  0
  4  6  1  0  0  0  0
  6  8  1  0  0  0  0
  7  9  1  0  0  0  0
  2 10  1  0  0  0  0
  2 11  1  0  0  0  0
  3 12  1  0  0  0  0
  3 13  1  0  0  0  0
  4 14  1  0  0  0  0
  4 15  1  0  0  0  0
  5 16  1  0  0  0  0
  6 17  1  0  0  0  0
  7 18  1  0  0  0  0
  7 19  1  0  0  0  0
  7 20  1  0  0  0  0
M  END
> <id>
EN300-1645752

> <smiles>
COC1=NC2CCC1C2

> <MDLNUMBER>
MFCD32762022

> <IUPAC Name>
3-methoxy-2-azabicyclo[2.2.1]hept-2-ene

> <CAS>
2222664-20-0

> <Purity>
95

> <URL>
https://www.enaminestore.com/catalog/EN300-1645752

> <ROCS_ShapeQuery>
_x1247relevant_x1083L0AP1_x1305L0BP1_

> <ROCS_TanimotoCombo>
1.028 

> <ROCS_ShapeTanimoto>
0.434 

> <ROCS_ColorTanimoto>
0.594 

> <ROCS_RefTversky>
0.366 

> <ROCS_RefColorTversky>
0.630 

> <ROCS_RefTverskyCombo>
0.996 

> <ROCS_FitTversky>
1.746 

> <ROCS_FitColorTversky>
0.912 

> <ROCS_FitTverskyCombo>
2.658 

> <ROCS_ColorScore>
-5.989

> <ROCS_Overlap>
897.828

> <ROCS_Rank>
307                 

$$$$
untitled-dbase-30852_1
  -OEChem-06232314403D

 23 24  0     1  0  0  0  0  0999 V2000
  -12.5324   14.6191  -39.7640 C   0  0  0  0  0  0  0  0  0  0  0  0
  -12.8268   15.9270  -39.7221 C   0  0  0  0  0  0  0  0  0  0  0  0
  -10.2038   14.3874  -37.0504 C   0  0  0  0  0  0  0  0  0  0  0  0
  -13.6404   14.1865  -37.5930 C   0  0  0  0  0  0  0  0  0  0  0  0
  -13.9533   15.6994  -37.5086 C   0  0  0  0  0  0  0  0  0  0  0  0
  -12.3411   14.0057  -38.3974 C   0  0  2  0  0  0  0  0  0  0  0  0
  -12.8884   16.4704  -38.3158 C   0  0  1  0  0  0  0  0  0  0  0  0
   -8.9929   12.4724  -36.3363 C   0  0  0  0  0  0  0  0  0  0  0  0
  -11.3103   14.8272  -37.7301 N   0  0  0  0  0  0  0  0  0  0  0  0
   -9.3835   15.1306  -36.5169 O   0  0  0  0  0  0  0  0  0  0  0  0
  -11.6033   16.2218  -37.6911 O   0  0  0  0  0  0  0  0  0  0  0  0
  -10.1190   13.0204  -37.0305 O   0  0  0  0  0  0  0  0  0  0  0  0
  -12.4467   14.0518  -40.6803 H   0  0  0  0  0  0  0  0  0  0  0  0
  -13.0050   16.5333  -40.5989 H   0  0  0  0  0  0  0  0  0  0  0  0
  -13.5351   13.7672  -36.5855 H   0  0  0  0  0  0  0  0  0  0  0  0
  -14.4728   13.6600  -38.0756 H   0  0  0  0  0  0  0  0  0  0  0  0
  -14.9608   15.8985  -37.8915 H   0  0  0  0  0  0  0  0  0  0  0  0
  -13.9256   16.0117  -36.4579 H   0  0  0  0  0  0  0  0  0  0  0  0
  -12.0275   12.9599  -38.4509 H   0  0  0  0  0  0  0  0  0  0  0  0
  -13.0754   17.5479  -38.3080 H   0  0  0  0  0  0  0  0  0  0  0  0
   -9.0291   11.3814  -36.3857 H   0  0  0  0  0  0  0  0  0  0  0  0
   -9.0107   12.8014  -35.2942 H   0  0  0  0  0  0  0  0  0  0  0  0
   -8.0753   12.8261  -36.8123 H   0  0  0  0  0  0  0  0  0  0  0  0
  1  2  2  0  0  0  0
  1  6  1  0  0  0  0
  2  7  1  0  0  0  0
  3  9  1  0  0  0  0
  3 10  2  0  0  0  0
  3 12  1  0  0  0  0
  4  5  1  0  0  0  0
  4  6  1  0  0  0  0
  5  7  1  0  0  0  0
  6  9  1  0  0  0  0
  7 11  1  0  0  0  0
  8 12  1  0  0  0  0
  9 11  1  0  0  0  0
  1 13  1  0  0  0  0
  2 14  1  0  0  0  0
  4 15  1  0  0  0  0
  4 16  1  0  0  0  0
  5 17  1  0  0  0  0
  5 18  1  0  0  0  0
  6 19  1  0  0  0  0
  7 20  1  0  0  0  0
  8 21  1  0  0  0  0
  8 22  1  0  0  0  0
  8 23  1  0  0  0  0
M  END
> <id>
EN300-26690455

> <smiles>
COC(=O)N1OC2CCC1C=C2

> <MDLNUMBER>
MFCD32678946

> <IUPAC Name>
methyl 2-oxa-3-azabicyclo[2.2.2]oct-5-ene-3-carboxylate

> <CAS>
110590-27-7

> <Purity>
95

> <URL>
https://www.enaminestore.com/catalog/EN300-26690455

> <ROCS_ShapeQuery>
_x1247relevant_x1083L0AP1_x1305L0BP1_

> <ROCS_TanimotoCombo>
1.028 

> <ROCS_ShapeTanimoto>
0.492 

> <ROCS_ColorTanimoto>
0.535 

> <ROCS_RefTversky>
0.416 

> <ROCS_RefColorTversky>
0.613 

> <ROCS_RefTverskyCombo>
1.030 

> <ROCS_FitTversky>
1.589 

> <ROCS_FitColorTversky>
0.808 

> <ROCS_FitTverskyCombo>
2.397 

> <ROCS_ColorScore>
-5.851

> <ROCS_Overlap>
1024.714

> <ROCS_Rank>
308                 

$$$$
untitled-dbase-41504_0
  -OEChem-06232314403D

 28 30  0     1  0  0  0  0  0999 V2000
  -13.6823   14.4850  -39.2330 C   0  0  0  0  0  0  0  0  0  0  0  0
  -13.7904   14.4129  -37.7025 C   0  0  0  0  0  0  0  0  0  0  0  0
   -9.3994   13.7198  -36.8935 C   0  0  0  0  0  0  0  0  0  0  0  0
  -12.9150   16.5346  -38.3011 C   0  0  0  0  0  0  0  0  0  0  0  0
  -11.2380   15.0163  -39.0714 C   0  0  0  0  0  0  0  0  0  0  0  0
   -9.2132   15.1763  -36.5160 C   0  0  0  0  0  0  0  0  0  0  0  0
  -12.6225   15.5785  -39.4551 C   0  0  1  0  0  0  0  0  0  0  0  0
  -12.7495   15.4438  -37.2351 C   0  0  2  0  0  0  0  0  0  0  0  0
  -10.9047   13.5944  -36.9462 C   0  0  2  0  0  0  0  0  0  0  0  0
  -11.3167   14.9425  -37.5253 C   0  0  1  0  0  0  0  0  0  0  0  0
  -10.3665   15.8887  -36.9860 O   0  0  0  0  0  0  0  0  0  0  0  0
  -11.4096   13.4593  -35.6207 O   0  0  0  0  0  0  0  0  0  0  0  0
  -13.3927   13.5246  -39.6710 H   0  0  0  0  0  0  0  0  0  0  0  0
  -14.6453   14.7803  -39.6642 H   0  0  0  0  0  0  0  0  0  0  0  0
  -14.7959   14.7144  -37.3863 H   0  0  0  0  0  0  0  0  0  0  0  0
  -13.6170   13.4002  -37.3316 H   0  0  0  0  0  0  0  0  0  0  0  0
   -8.9695   13.5384  -37.8853 H   0  0  0  0  0  0  0  0  0  0  0  0
   -8.9153   13.0514  -36.1755 H   0  0  0  0  0  0  0  0  0  0  0  0
  -12.1866   17.3476  -38.2166 H   0  0  0  0  0  0  0  0  0  0  0  0
  -13.9260   16.9549  -38.3339 H   0  0  0  0  0  0  0  0  0  0  0  0
  -11.0696   14.0412  -39.5404 H   0  0  0  0  0  0  0  0  0  0  0  0
  -10.4471   15.7002  -39.4006 H   0  0  0  0  0  0  0  0  0  0  0  0
   -9.1633   15.3033  -35.4296 H   0  0  0  0  0  0  0  0  0  0  0  0
   -8.3102   15.6085  -36.9565 H   0  0  0  0  0  0  0  0  0  0  0  0
  -12.6527   16.0187  -40.4537 H   0  0  0  0  0  0  0  0  0  0  0  0
  -12.8987   15.8037  -36.2143 H   0  0  0  0  0  0  0  0  0  0  0  0
  -11.2424   12.7332  -37.5371 H   0  0  0  0  0  0  0  0  0  0  0  0
  -11.1428   14.2588  -35.1419 H   0  0  0  0  0  0  0  0  0  0  0  0
  1  2  1  0  0  0  0
  1  7  1  0  0  0  0
  2  8  1  0  0  0  0
  3  6  1  0  0  0  0
  3  9  1  0  0  0  0
  4  7  1  0  0  0  0
  4  8  1  0  0  0  0
  5  7  1  0  0  0  0
  5 10  1  0  0  0  0
  6 11  1  0  0  0  0
  8 10  1  0  0  0  0
  9 10  1  0  0  0  0
  9 12  1  0  0  0  0
 10 11  1  0  0  0  0
  1 13  1  0  0  0  0
  1 14  1  0  0  0  0
  2 15  1  0  0  0  0
  2 16  1  0  0  0  0
  3 17  1  0  0  0  0
  3 18  1  0  0  0  0
  4 19  1  0  0  0  0
  4 20  1  0  0  0  0
  5 21  1  0  0  0  0
  5 22  1  0  0  0  0
  6 23  1  0  0  0  0
  6 24  1  0  0  0  0
  7 25  1  0  0  0  0
  8 26  1  0  0  0  0
  9 27  1  0  0  0  0
 12 28  1  0  0  0  0
M  END
> <id>
EN300-744381

> <smiles>
OC1CCOC21CC3CCC2C3

> <IUPAC Name>
spiro[bicyclo[2.2.1]heptane-2,2'-oxolane]-3'-ol

> <CAS>
2138334-97-9

> <URL>
https://www.enaminestore.com/catalog/EN300-744381

> <ROCS_ShapeQuery>
_x1247relevant_x1083L0AP1_x1305L0BP1_

> <ROCS_TanimotoCombo>
1.027 

> <ROCS_ShapeTanimoto>
0.503 

> <ROCS_ColorTanimoto>
0.524 

> <ROCS_RefTversky>
0.423 

> <ROCS_RefColorTversky>
0.708 

> <ROCS_RefTverskyCombo>
1.131 

> <ROCS_FitTversky>
1.607 

> <ROCS_FitColorTversky>
0.668 

> <ROCS_FitTverskyCombo>
2.275 

> <ROCS_ColorScore>
-6.869

> <ROCS_Overlap>
1040.734

> <ROCS_Rank>
309                 

$$$$
untitled-dbase-8470_49
  -OEChem-06232314403D

 34 35  0     1  0  0  0  0  0999 V2000
  -10.0158   14.3652  -37.6199 C   0  0  0  0  0  0  0  0  0  0  0  0
  -13.2988   15.8411  -37.3405 C   0  0  0  0  0  0  0  0  0  0  0  0
  -12.1884   16.2838  -39.3925 C   0  0  0  0  0  0  0  0  0  0  0  0
  -12.4478   13.7198  -37.9651 C   0  0  0  0  0  0  0  0  0  0  0  0
  -13.6139   14.6698  -38.2845 C   0  0  2  0  0  0  0  0  0  0  0  0
  -11.8906   16.0283  -37.9033 C   0  0  2  0  0  0  0  0  0  0  0  0
  -13.3617   15.3168  -39.6662 C   0  0  1  0  0  0  0  0  0  0  0  0
   -9.4006   14.5744  -35.0827 C   0  0  0  0  0  0  0  0  0  0  0  0
   -9.6835   12.0890  -34.8553 C   0  0  0  0  0  0  0  0  0  0  0  0
   -7.6547   13.0163  -36.0094 C   0  0  0  0  0  0  0  0  0  0  0  0
   -9.1443   13.2159  -35.7336 C   0  0  0  0  0  0  0  0  0  0  0  0
  -11.3492   14.6696  -37.7959 N   0  0  0  0  0  0  0  0  0  0  0  0
   -9.0879   15.0797  -37.9910 O   0  0  0  0  0  0  0  0  0  0  0  0
  -14.5003   16.0529  -40.0888 O   0  0  0  0  0  0  0  0  0  0  0  0
   -9.8490   13.1671  -36.9790 O   0  0  0  0  0  0  0  0  0  0  0  0
  -13.9483   16.7098  -37.4895 H   0  0  0  0  0  0  0  0  0  0  0  0
  -13.3049   15.5555  -36.2830 H   0  0  0  0  0  0  0  0  0  0  0  0
  -12.4757   17.3275  -39.5627 H   0  0  0  0  0  0  0  0  0  0  0  0
  -11.3198   16.0573  -40.0202 H   0  0  0  0  0  0  0  0  0  0  0  0
  -12.5909   13.1852  -37.0204 H   0  0  0  0  0  0  0  0  0  0  0  0
  -12.2213   13.0074  -38.7637 H   0  0  0  0  0  0  0  0  0  0  0  0
  -14.6078   14.2376  -38.1536 H   0  0  0  0  0  0  0  0  0  0  0  0
  -11.2603   16.7814  -37.4271 H   0  0  0  0  0  0  0  0  0  0  0  0
  -13.1141   14.5831  -40.4402 H   0  0  0  0  0  0  0  0  0  0  0  0
   -9.0150   15.3860  -35.7101 H   0  0  0  0  0  0  0  0  0  0  0  0
  -10.4686   14.7446  -34.9116 H   0  0  0  0  0  0  0  0  0  0  0  0
   -8.8794   14.6522  -34.1217 H   0  0  0  0  0  0  0  0  0  0  0  0
   -9.5018   11.1124  -35.3185 H   0  0  0  0  0  0  0  0  0  0  0  0
  -10.7693   12.1751  -34.7328 H   0  0  0  0  0  0  0  0  0  0  0  0
   -9.2211   12.0935  -33.8630 H   0  0  0  0  0  0  0  0  0  0  0  0
   -7.4705   12.0420  -36.4762 H   0  0  0  0  0  0  0  0  0  0  0  0
   -7.2585   13.7957  -36.6684 H   0  0  0  0  0  0  0  0  0  0  0  0
   -7.0809   13.0252  -35.0756 H   0  0  0  0  0  0  0  0  0  0  0  0
  -15.2088   15.4081  -40.2484 H   0  0  0  0  0  0  0  0  0  0  0  0
  1 12  1  0  0  0  0
  1 13  2  0  0  0  0
  1 15  1  0  0  0  0
  2  5  1  0  0  0  0
  2  6  1  0  0  0  0
  3  6  1  0  0  0  0
  3  7  1  0  0  0  0
  4  5  1  0  0  0  0
  4 12  1  0  0  0  0
  5  7  1  0  0  0  0
  6 12  1  0  0  0  0
  7 14  1  0  0  0  0
  8 11  1  0  0  0  0
  9 11  1  0  0  0  0
 10 11  1  0  0  0  0
 11 15  1  0  0  0  0
  2 16  1  0  0  0  0
  2 17  1  0  0  0  0
  3 18  1  0  0  0  0
  3 19  1  0  0  0  0
  4 20  1  0  0  0  0
  4 21  1  0  0  0  0
  5 22  1  0  0  0  0
  6 23  1  0  0  0  0
  7 24  1  0  0  0  0
  8 25  1  0  0  0  0
  8 26  1  0  0  0  0
  8 27  1  0  0  0  0
  9 28  1  0  0  0  0
  9 29  1  0  0  0  0
  9 30  1  0  0  0  0
 10 31  1  0  0  0  0
 10 32  1  0  0  0  0
 10 33  1  0  0  0  0
 14 34  1  0  0  0  0
M  END
> <id>
EN300-296284

> <smiles>
CC(C)(C)OC(=O)N1CC2CC1CC2O

> <MDLNUMBER>
MFCD20278317

> <IUPAC Name>
tert-butyl 5-hydroxy-2-azabicyclo[2.2.1]heptane-2-carboxylate

> <CAS>
207405-60-5

> <Purity>
95

> <URL>
https://www.enaminestore.com/catalog/EN300-296284

> <ROCS_ShapeQuery>
_x1247relevant_x1083L0AP1_x1305L0BP1_

> <ROCS_TanimotoCombo>
1.027 

> <ROCS_ShapeTanimoto>
0.520 

> <ROCS_ColorTanimoto>
0.508 

> <ROCS_RefTversky>
0.448 

> <ROCS_RefColorTversky>
0.695 

> <ROCS_RefTverskyCombo>
1.143 

> <ROCS_FitTversky>
1.447 

> <ROCS_FitColorTversky>
0.653 

> <ROCS_FitTverskyCombo>
2.099 

> <ROCS_ColorScore>
-6.745

> <ROCS_Overlap>
1104.904

> <ROCS_Rank>
310                 

$$$$
untitled-dbase-24259_49
  -OEChem-06232314403D

 34 35  0     1  0  0  0  0  0999 V2000
  -10.0248   14.3506  -37.6059 C   0  0  0  0  0  0  0  0  0  0  0  0
  -13.3037   15.8382  -37.3438 C   0  0  0  0  0  0  0  0  0  0  0  0
  -12.1762   16.2874  -39.3847 C   0  0  0  0  0  0  0  0  0  0  0  0
  -12.4568   13.7168  -37.9728 C   0  0  0  0  0  0  0  0  0  0  0  0
  -13.6165   14.6732  -38.2968 C   0  0  2  0  0  0  0  0  0  0  0  0
  -11.8906   16.0226  -37.8948 C   0  0  2  0  0  0  0  0  0  0  0  0
  -13.3513   15.3257  -39.6726 C   0  0  1  0  0  0  0  0  0  0  0  0
   -9.4277   14.5449  -35.0631 C   0  0  0  0  0  0  0  0  0  0  0  0
   -9.7221   12.0594  -34.8501 C   0  0  0  0  0  0  0  0  0  0  0  0
   -7.6810   12.9844  -35.9844 C   0  0  0  0  0  0  0  0  0  0  0  0
   -9.1718   13.1886  -35.7187 C   0  0  0  0  0  0  0  0  0  0  0  0
  -11.3555   14.6611  -37.7906 N   0  0  0  0  0  0  0  0  0  0  0  0
   -9.0914   15.0633  -37.9666 O   0  0  0  0  0  0  0  0  0  0  0  0
  -14.4989   16.0512  -40.0888 O   0  0  0  0  0  0  0  0  0  0  0  0
   -9.8675   13.1487  -36.9697 O   0  0  0  0  0  0  0  0  0  0  0  0
  -13.9486   16.7103  -37.4931 H   0  0  0  0  0  0  0  0  0  0  0  0
  -13.3186   15.5465  -36.2880 H   0  0  0  0  0  0  0  0  0  0  0  0
  -12.4593   17.3328  -39.5509 H   0  0  0  0  0  0  0  0  0  0  0  0
  -11.3039   16.0613  -40.0073 H   0  0  0  0  0  0  0  0  0  0  0  0
  -12.6092   13.1782  -37.0318 H   0  0  0  0  0  0  0  0  0  0  0  0
  -12.2276   13.0069  -38.7730 H   0  0  0  0  0  0  0  0  0  0  0  0
  -14.6127   14.2439  -38.1759 H   0  0  0  0  0  0  0  0  0  0  0  0
  -11.2610   16.7707  -37.4098 H   0  0  0  0  0  0  0  0  0  0  0  0
  -13.1033   14.5914  -40.4458 H   0  0  0  0  0  0  0  0  0  0  0  0
   -9.0342   15.3580  -35.6835 H   0  0  0  0  0  0  0  0  0  0  0  0
  -10.4962   14.7184  -34.8991 H   0  0  0  0  0  0  0  0  0  0  0  0
   -8.9134   14.6158  -34.0979 H   0  0  0  0  0  0  0  0  0  0  0  0
   -9.5407   11.0845  -35.3167 H   0  0  0  0  0  0  0  0  0  0  0  0
  -10.8083   12.1493  -34.7352 H   0  0  0  0  0  0  0  0  0  0  0  0
   -9.2671   12.0573  -33.8544 H   0  0  0  0  0  0  0  0  0  0  0  0
   -7.4972   12.0117  -36.4547 H   0  0  0  0  0  0  0  0  0  0  0  0
   -7.2769   13.7654  -36.6366 H   0  0  0  0  0  0  0  0  0  0  0  0
   -7.1142   12.9864  -35.0463 H   0  0  0  0  0  0  0  0  0  0  0  0
  -14.2511   16.5306  -40.8962 H   0  0  0  0  0  0  0  0  0  0  0  0
  1 12  1  0  0  0  0
  1 13  2  0  0  0  0
  1 15  1  0  0  0  0
  2  5  1  0  0  0  0
  2  6  1  0  0  0  0
  3  6  1  1  0  0  0
  3  7  1  0  0  0  0
  4  5  1  1  0  0  0
  4 12  1  0  0  0  0
  5  7  1  0  0  0  0
  6 12  1  0  0  0  0
  7 14  1  0  0  0  0
  8 11  1  0  0  0  0
  9 11  1  0  0  0  0
 10 11  1  0  0  0  0
 11 15  1  0  0  0  0
  2 16  1  0  0  0  0
  2 17  1  0  0  0  0
  3 18  1  0  0  0  0
  3 19  1  0  0  0  0
  4 20  1  0  0  0  0
  4 21  1  0  0  0  0
  5 22  1  0  0  0  0
  6 23  1  0  0  0  0
  7 24  1  0  0  0  0
  8 25  1  0  0  0  0
  8 26  1  0  0  0  0
  8 27  1  0  0  0  0
  9 28  1  0  0  0  0
  9 29  1  0  0  0  0
  9 30  1  0  0  0  0
 10 31  1  0  0  0  0
 10 32  1  0  0  0  0
 10 33  1  0  0  0  0
 14 34  1  0  0  0  0
M  END
> <id>
EN300-159836

> <smiles>
CC(C)(C)OC(=O)N1C[C@H]2C[C@@H]1CC2O

> <MDLNUMBER>
MFCD27959406

> <IUPAC Name>
tert-butyl (1R,4R)-5-hydroxy-2-azabicyclo[2.2.1]heptane-2-carboxylate

> <CAS>
406695-09-8

> <URL>
https://www.enaminestore.com/catalog/EN300-159836

> <ROCS_ShapeQuery>
_x1247relevant_x1083L0AP1_x1305L0BP1_

> <ROCS_TanimotoCombo>
1.027 

> <ROCS_ShapeTanimoto>
0.520 

> <ROCS_ColorTanimoto>
0.508 

> <ROCS_RefTversky>
0.448 

> <ROCS_RefColorTversky>
0.695 

> <ROCS_RefTverskyCombo>
1.143 

> <ROCS_FitTversky>
1.447 

> <ROCS_FitColorTversky>
0.653 

> <ROCS_FitTverskyCombo>
2.099 

> <ROCS_ColorScore>
-6.745

> <ROCS_Overlap>
1104.871

> <ROCS_Rank>
311                 

$$$$
untitled-dbase-32190_0
  -OEChem-06232314403D

 28 30  0     1  0  0  0  0  0999 V2000
  -14.1858   14.1232  -37.7645 C   0  0  0  0  0  0  0  0  0  0  0  0
  -10.6654   16.0895  -38.5167 C   0  0  0  0  0  0  0  0  0  0  0  0
  -14.2902   15.5947  -37.2993 C   0  0  0  0  0  0  0  0  0  0  0  0
  -10.9680   15.0876  -39.6594 C   0  0  0  0  0  0  0  0  0  0  0  0
  -11.8354   14.4215  -37.1638 C   0  0  0  0  0  0  0  0  0  0  0  0
  -12.7529   13.8786  -38.2822 C   0  0  2  0  0  0  0  0  0  0  0  0
  -11.7594   15.9400  -37.4343 C   0  0  2  0  0  0  0  0  0  0  0  0
  -13.1718   16.4137  -37.9932 C   0  0  1  0  0  0  0  0  0  0  0  0
  -12.4722   14.7164  -39.6016 C   0  0  1  0  0  0  0  0  0  0  0  0
  -13.2049   16.0817  -39.5116 C   0  0  0  0  0  0  0  0  0  0  0  0
  -14.5182   16.1344  -40.1479 N   0  0  0  0  0  0  0  0  0  0  0  0
  -14.4063   13.4634  -36.9163 H   0  0  0  0  0  0  0  0  0  0  0  0
  -14.9235   13.8778  -38.5341 H   0  0  0  0  0  0  0  0  0  0  0  0
   -9.6716   15.8834  -38.1023 H   0  0  0  0  0  0  0  0  0  0  0  0
  -10.6431   17.1184  -38.8946 H   0  0  0  0  0  0  0  0  0  0  0  0
  -15.2846   15.9923  -37.5311 H   0  0  0  0  0  0  0  0  0  0  0  0
  -14.1787   15.6614  -36.2101 H   0  0  0  0  0  0  0  0  0  0  0  0
  -10.7106   15.5402  -40.6240 H   0  0  0  0  0  0  0  0  0  0  0  0
  -10.3520   14.1863  -39.5572 H   0  0  0  0  0  0  0  0  0  0  0  0
  -12.2382   14.2120  -36.1655 H   0  0  0  0  0  0  0  0  0  0  0  0
  -10.8452   13.9506  -37.1936 H   0  0  0  0  0  0  0  0  0  0  0  0
  -12.5715   12.8122  -38.4506 H   0  0  0  0  0  0  0  0  0  0  0  0
  -11.4939   16.4890  -36.5254 H   0  0  0  0  0  0  0  0  0  0  0  0
  -13.3110   17.4870  -37.8245 H   0  0  0  0  0  0  0  0  0  0  0  0
  -12.7657   14.1497  -40.4917 H   0  0  0  0  0  0  0  0  0  0  0  0
  -12.6285   16.8488  -40.0444 H   0  0  0  0  0  0  0  0  0  0  0  0
  -14.8866   17.0478  -40.0252 H   0  0  0  0  0  0  0  0  0  0  0  0
  -14.4040   15.9290  -41.1123 H   0  0  0  0  0  0  0  0  0  0  0  0
  1  3  1  0  0  0  0
  1  6  1  0  0  0  0
  2  4  1  0  0  0  0
  2  7  1  0  0  0  0
  3  8  1  0  0  0  0
  4  9  1  0  0  0  0
  5  6  1  0  0  0  0
  5  7  1  0  0  0  0
  6  9  1  0  0  0  0
  7  8  1  0  0  0  0
  8 10  1  0  0  0  0
  9 10  1  0  0  0  0
 10 11  1  0  0  0  0
  1 12  1  0  0  0  0
  1 13  1  0  0  0  0
  2 14  1  0  0  0  0
  2 15  1  0  0  0  0
  3 16  1  0  0  0  0
  3 17  1  0  0  0  0
  4 18  1  0  0  0  0
  4 19  1  0  0  0  0
  5 20  1  0  0  0  0
  5 21  1  0  0  0  0
  6 22  1  0  0  0  0
  7 23  1  0  0  0  0
  8 24  1  0  0  0  0
  9 25  1  0  0  0  0
 10 26  1  0  0  0  0
 11 27  1  0  0  0  0
 11 28  1  0  0  0  0
M  END
> <id>
EN300-26872449

> <smiles>
Cl.NC1C2CCC3CC2CCC13

> <MDLNUMBER>
MFCD32692585

> <IUPAC Name>
tricyclo[4.4.0.0,3,8]decan-2-amine hydrochloride

> <CAS>
2445794-73-8

> <Purity>
95

> <URL>
https://www.enaminestore.com/catalog/EN300-26872449

> <Saltdate>
Cl

> <ROCS_ShapeQuery>
_x1247relevant_x1083L0AP1_x1305L0BP1_

> <ROCS_TanimotoCombo>
1.027 

> <ROCS_ShapeTanimoto>
0.436 

> <ROCS_ColorTanimoto>
0.591 

> <ROCS_RefTversky>
0.377 

> <ROCS_RefColorTversky>
0.882 

> <ROCS_RefTverskyCombo>
1.259 

> <ROCS_FitTversky>
1.561 

> <ROCS_FitColorTversky>
0.642 

> <ROCS_FitTverskyCombo>
2.203 

> <ROCS_ColorScore>
-8.706

> <ROCS_Overlap>
925.829

> <ROCS_Rank>
312                 

$$$$
untitled-dbase-38394_0
  -OEChem-06232314403D

 28 30  0     1  0  0  0  0  0999 V2000
  -14.1858   14.1232  -37.7645 C   0  0  0  0  0  0  0  0  0  0  0  0
  -10.6654   16.0895  -38.5167 C   0  0  0  0  0  0  0  0  0  0  0  0
  -14.2902   15.5947  -37.2993 C   0  0  0  0  0  0  0  0  0  0  0  0
  -10.9680   15.0876  -39.6594 C   0  0  0  0  0  0  0  0  0  0  0  0
  -11.8354   14.4215  -37.1638 C   0  0  0  0  0  0  0  0  0  0  0  0
  -12.7529   13.8786  -38.2822 C   0  0  2  0  0  0  0  0  0  0  0  0
  -11.7594   15.9400  -37.4343 C   0  0  2  0  0  0  0  0  0  0  0  0
  -13.1718   16.4137  -37.9932 C   0  0  1  0  0  0  0  0  0  0  0  0
  -12.4722   14.7164  -39.6016 C   0  0  1  0  0  0  0  0  0  0  0  0
  -13.2049   16.0817  -39.5116 C   0  0  0  0  0  0  0  0  0  0  0  0
  -14.5182   16.1344  -40.1479 N   0  0  0  0  0  0  0  0  0  0  0  0
  -14.4063   13.4634  -36.9163 H   0  0  0  0  0  0  0  0  0  0  0  0
  -14.9235   13.8778  -38.5341 H   0  0  0  0  0  0  0  0  0  0  0  0
   -9.6716   15.8834  -38.1023 H   0  0  0  0  0  0  0  0  0  0  0  0
  -10.6431   17.1184  -38.8946 H   0  0  0  0  0  0  0  0  0  0  0  0
  -15.2846   15.9923  -37.5311 H   0  0  0  0  0  0  0  0  0  0  0  0
  -14.1787   15.6614  -36.2101 H   0  0  0  0  0  0  0  0  0  0  0  0
  -10.7106   15.5402  -40.6240 H   0  0  0  0  0  0  0  0  0  0  0  0
  -10.3520   14.1863  -39.5572 H   0  0  0  0  0  0  0  0  0  0  0  0
  -12.2382   14.2120  -36.1655 H   0  0  0  0  0  0  0  0  0  0  0  0
  -10.8452   13.9506  -37.1936 H   0  0  0  0  0  0  0  0  0  0  0  0
  -12.5715   12.8122  -38.4506 H   0  0  0  0  0  0  0  0  0  0  0  0
  -11.4939   16.4890  -36.5254 H   0  0  0  0  0  0  0  0  0  0  0  0
  -13.3110   17.4870  -37.8245 H   0  0  0  0  0  0  0  0  0  0  0  0
  -12.7657   14.1497  -40.4917 H   0  0  0  0  0  0  0  0  0  0  0  0
  -12.6285   16.8488  -40.0444 H   0  0  0  0  0  0  0  0  0  0  0  0
  -14.8866   17.0478  -40.0252 H   0  0  0  0  0  0  0  0  0  0  0  0
  -14.4040   15.9290  -41.1123 H   0  0  0  0  0  0  0  0  0  0  0  0
  1  3  1  0  0  0  0
  1  6  1  0  0  0  0
  2  4  1  0  0  0  0
  2  7  1  0  0  0  0
  3  8  1  0  0  0  0
  4  9  1  0  0  0  0
  5  6  1  0  0  0  0
  5  7  1  0  0  0  0
  6  9  1  0  0  0  0
  7  8  1  0  0  0  0
  8 10  1  0  0  0  0
  9 10  1  0  0  0  0
 10 11  1  0  0  0  0
  1 12  1  0  0  0  0
  1 13  1  0  0  0  0
  2 14  1  0  0  0  0
  2 15  1  0  0  0  0
  3 16  1  0  0  0  0
  3 17  1  0  0  0  0
  4 18  1  0  0  0  0
  4 19  1  0  0  0  0
  5 20  1  0  0  0  0
  5 21  1  0  0  0  0
  6 22  1  0  0  0  0
  7 23  1  0  0  0  0
  8 24  1  0  0  0  0
  9 25  1  0  0  0  0
 10 26  1  0  0  0  0
 11 27  1  0  0  0  0
 11 28  1  0  0  0  0
M  END
> <id>
EN300-26872450

> <smiles>
NC1C2CCC3CC2CCC13

> <MDLNUMBER>
MFCD32692053

> <IUPAC Name>
tricyclo[4.4.0.0,3,8]decan-2-amine

> <CAS>
2445793-43-9

> <URL>
https://www.enaminestore.com/catalog/EN300-26872450

> <ROCS_ShapeQuery>
_x1247relevant_x1083L0AP1_x1305L0BP1_

> <ROCS_TanimotoCombo>
1.027 

> <ROCS_ShapeTanimoto>
0.436 

> <ROCS_ColorTanimoto>
0.591 

> <ROCS_RefTversky>
0.377 

> <ROCS_RefColorTversky>
0.882 

> <ROCS_RefTverskyCombo>
1.259 

> <ROCS_FitTversky>
1.561 

> <ROCS_FitColorTversky>
0.642 

> <ROCS_FitTverskyCombo>
2.203 

> <ROCS_ColorScore>
-8.706

> <ROCS_Overlap>
925.829

> <ROCS_Rank>
313                 

$$$$
untitled-dbase-19879_0
  -OEChem-06232314403D

 30 33  0     1  0  0  0  0  0999 V2000
   -8.7667   15.0133  -36.4703 C   0  0  0  0  0  0  0  0  0  0  0  0
   -9.0748   13.6766  -36.7105 C   0  0  0  0  0  0  0  0  0  0  0  0
   -9.7227   16.0026  -36.6988 C   0  0  0  0  0  0  0  0  0  0  0  0
  -10.3399   13.3249  -37.1795 C   0  0  0  0  0  0  0  0  0  0  0  0
  -10.9978   15.6655  -37.1757 C   0  0  0  0  0  0  0  0  0  0  0  0
  -11.3126   14.3090  -37.4099 C   0  0  0  0  0  0  0  0  0  0  0  0
  -12.0198   16.7668  -37.3743 C   0  0  0  0  0  0  0  0  0  0  0  0
  -12.6282   13.8078  -39.4982 C   0  0  0  0  0  0  0  0  0  0  0  0
  -12.3421   15.1621  -40.1697 C   0  0  0  0  0  0  0  0  0  0  0  0
  -12.6699   13.9070  -37.9617 C   0  0  2  0  0  0  0  0  0  0  0  0
  -13.3244   16.3277  -38.0719 C   0  0  1  0  0  0  0  0  0  0  0  0
  -13.2033   16.3060  -39.6139 C   0  0  2  0  0  0  0  0  0  0  0  0
  -13.6721   14.9537  -37.5820 C   0  0  0  0  0  0  0  0  0  0  0  0
  -15.0673   14.5829  -37.4116 N   0  0  0  0  0  0  0  0  0  0  0  0
  -14.4427   14.8021  -36.3583 N   0  0  0  0  0  0  0  0  0  0  0  0
  -14.5137   16.2184  -40.1819 O   0  0  0  0  0  0  0  0  0  0  0  0
   -7.7815   15.2856  -36.1030 H   0  0  0  0  0  0  0  0  0  0  0  0
   -8.3284   12.9075  -36.5344 H   0  0  0  0  0  0  0  0  0  0  0  0
   -9.4697   17.0412  -36.5003 H   0  0  0  0  0  0  0  0  0  0  0  0
  -10.5633   12.2780  -37.3689 H   0  0  0  0  0  0  0  0  0  0  0  0
  -12.2794   17.1367  -36.3730 H   0  0  0  0  0  0  0  0  0  0  0  0
  -11.5677   17.6028  -37.9215 H   0  0  0  0  0  0  0  0  0  0  0  0
  -13.5988   13.4404  -39.8563 H   0  0  0  0  0  0  0  0  0  0  0  0
  -11.8755   13.0784  -39.8210 H   0  0  0  0  0  0  0  0  0  0  0  0
  -11.2824   15.4114  -40.0410 H   0  0  0  0  0  0  0  0  0  0  0  0
  -12.5102   15.0565  -41.2484 H   0  0  0  0  0  0  0  0  0  0  0  0
  -12.9577   12.9354  -37.5397 H   0  0  0  0  0  0  0  0  0  0  0  0
  -14.1156   17.0399  -37.8016 H   0  0  0  0  0  0  0  0  0  0  0  0
  -12.7820   17.2677  -39.9641 H   0  0  0  0  0  0  0  0  0  0  0  0
  -14.3985   16.2976  -41.1397 H   0  0  0  0  0  0  0  0  0  0  0  0
  1  2  2  0  0  0  0
  1  3  1  0  0  0  0
  2  4  1  0  0  0  0
  3  5  2  0  0  0  0
  4  6  2  0  0  0  0
  5  6  1  0  0  0  0
  5  7  1  0  0  0  0
  6 10  1  0  0  0  0
  7 11  1  0  0  0  0
  8  9  1  0  0  0  0
  8 10  1  0  0  0  0
  9 12  1  0  0  0  0
 10 13  1  0  0  0  0
 11 12  1  0  0  0  0
 11 13  1  0  0  0  0
 12 16  1  0  0  0  0
 13 14  1  0  0  0  0
 13 15  1  0  0  0  0
 14 15  2  0  0  0  0
  1 17  1  0  0  0  0
  2 18  1  0  0  0  0
  3 19  1  0  0  0  0
  4 20  1  0  0  0  0
  7 21  1  0  0  0  0
  7 22  1  0  0  0  0
  8 23  1  0  0  0  0
  8 24  1  0  0  0  0
  9 25  1  0  0  0  0
  9 26  1  0  0  0  0
 10 27  1  0  0  0  0
 11 28  1  0  0  0  0
 12 29  1  0  0  0  0
 16 30  1  0  0  0  0
M  END
> <id>
EN300-1693476

> <smiles>
OC1CCC2C=3C=CC=CC3CC1C42N=N4

> <IUPAC Name>
spiro[diazirine-2,13'-tricyclo[7.3.1.0,2,7]tridecane]-2',4',6'-trien-10'-ol

> <CAS>
2193064-63-8

> <URL>
https://www.enaminestore.com/catalog/EN300-1693476

> <ROCS_ShapeQuery>
_x1247relevant_x1083L0AP1_x1305L0BP1_

> <ROCS_TanimotoCombo>
1.027 

> <ROCS_ShapeTanimoto>
0.530 

> <ROCS_ColorTanimoto>
0.497 

> <ROCS_RefTversky>
0.462 

> <ROCS_RefColorTversky>
0.525 

> <ROCS_RefTverskyCombo>
0.988 

> <ROCS_FitTversky>
1.380 

> <ROCS_FitColorTversky>
0.902 

> <ROCS_FitTverskyCombo>
2.282 

> <ROCS_ColorScore>
-4.963

> <ROCS_Overlap>
1142.172

> <ROCS_Rank>
314                 

$$$$
untitled-dbase-49548_0
  -OEChem-06232314403D

 21 22  0     1  0  0  0  0  0999 V2000
  -12.3597   14.0543  -37.7702 C   0  0  0  0  0  0  0  0  0  0  0  0
  -13.7936   15.9673  -37.6375 C   0  0  0  0  0  0  0  0  0  0  0  0
  -11.5665   15.5045  -39.4957 C   0  0  0  0  0  0  0  0  0  0  0  0
  -12.3893   15.4861  -37.2288 C   0  0  2  0  0  0  0  0  0  0  0  0
  -12.6984   14.4945  -39.2010 C   0  0  2  0  0  0  0  0  0  0  0  0
  -14.0435   15.2184  -38.9618 C   0  0  2  0  0  0  0  0  0  0  0  0
  -11.3431   16.1485  -38.1290 C   0  0  0  0  0  0  0  0  0  0  0  0
  -14.4592   16.0925  -40.0453 N   0  0  0  0  0  0  0  0  0  0  0  0
  -10.0968   15.8675  -37.6824 F   0  0  0  0  0  0  0  0  0  0  0  0
  -11.4691   17.4871  -38.1649 F   0  0  0  0  0  0  0  0  0  0  0  0
  -11.3777   13.5769  -37.6875 H   0  0  0  0  0  0  0  0  0  0  0  0
  -13.1215   13.4075  -37.3223 H   0  0  0  0  0  0  0  0  0  0  0  0
  -14.5410   15.6658  -36.8942 H   0  0  0  0  0  0  0  0  0  0  0  0
  -13.8427   17.0574  -37.7350 H   0  0  0  0  0  0  0  0  0  0  0  0
  -10.6645   14.9713  -39.8161 H   0  0  0  0  0  0  0  0  0  0  0  0
  -11.8328   16.2325  -40.2664 H   0  0  0  0  0  0  0  0  0  0  0  0
  -12.1760   15.5837  -36.1627 H   0  0  0  0  0  0  0  0  0  0  0  0
  -12.7609   13.6862  -39.9334 H   0  0  0  0  0  0  0  0  0  0  0  0
  -14.8308   14.4702  -38.8019 H   0  0  0  0  0  0  0  0  0  0  0  0
  -14.5895   15.5436  -40.8647 H   0  0  0  0  0  0  0  0  0  0  0  0
  -15.3120   16.5350  -39.7870 H   0  0  0  0  0  0  0  0  0  0  0  0
  1  4  1  0  0  0  0
  1  5  1  0  0  0  0
  2  4  1  1  0  0  0
  2  6  1  0  0  0  0
  3  5  1  1  0  0  0
  3  7  1  0  0  0  0
  4  7  1  0  0  0  0
  5  6  1  0  0  0  0
  6  8  1  1  0  0  0
  7  9  1  0  0  0  0
  7 10  1  0  0  0  0
  1 11  1  0  0  0  0
  1 12  1  0  0  0  0
  2 13  1  0  0  0  0
  2 14  1  0  0  0  0
  3 15  1  0  0  0  0
  3 16  1  0  0  0  0
  4 17  1  0  0  0  0
  5 18  1  0  0  0  0
  6 19  1  0  0  0  0
  8 20  1  0  0  0  0
  8 21  1  0  0  0  0
M  END
> <id>
EN300-39856265

> <smiles>
Cl.N[C@@H]1C[C@H]2C[C@@H]1CC2(F)F |&1:2,4,6,r|

> <IUPAC Name>
rac-(1R,2R,4R)-5,5-difluorobicyclo[2.2.1]heptan-2-amine hydrochloride

> <Purity>
95

> <URL>
https://www.enaminestore.com/catalog/EN300-39856265

> <Saltdate>
Cl

> <ROCS_ShapeQuery>
_x1247relevant_x1083L0AP1_x1305L0BP1_

> <ROCS_TanimotoCombo>
1.027 

> <ROCS_ShapeTanimoto>
0.411 

> <ROCS_ColorTanimoto>
0.615 

> <ROCS_RefTversky>
0.357 

> <ROCS_RefColorTversky>
0.713 

> <ROCS_RefTverskyCombo>
1.071 

> <ROCS_FitTversky>
1.581 

> <ROCS_FitColorTversky>
0.818 

> <ROCS_FitTverskyCombo>
2.399 

> <ROCS_ColorScore>
-6.845

> <ROCS_Overlap>
877.526

> <ROCS_Rank>
315                 

$$$$
untitled-dbase-50329_0
  -OEChem-06232314403D

 21 22  0     1  0  0  0  0  0999 V2000
  -12.3597   14.0543  -37.7702 C   0  0  0  0  0  0  0  0  0  0  0  0
  -13.7936   15.9673  -37.6375 C   0  0  0  0  0  0  0  0  0  0  0  0
  -11.5665   15.5045  -39.4957 C   0  0  0  0  0  0  0  0  0  0  0  0
  -12.3893   15.4861  -37.2288 C   0  0  2  0  0  0  0  0  0  0  0  0
  -12.6984   14.4945  -39.2010 C   0  0  2  0  0  0  0  0  0  0  0  0
  -14.0435   15.2184  -38.9618 C   0  0  2  0  0  0  0  0  0  0  0  0
  -11.3431   16.1485  -38.1290 C   0  0  0  0  0  0  0  0  0  0  0  0
  -14.4592   16.0925  -40.0453 N   0  0  0  0  0  0  0  0  0  0  0  0
  -10.0968   15.8675  -37.6824 F   0  0  0  0  0  0  0  0  0  0  0  0
  -11.4691   17.4871  -38.1649 F   0  0  0  0  0  0  0  0  0  0  0  0
  -11.3777   13.5769  -37.6875 H   0  0  0  0  0  0  0  0  0  0  0  0
  -13.1215   13.4075  -37.3223 H   0  0  0  0  0  0  0  0  0  0  0  0
  -14.5410   15.6658  -36.8942 H   0  0  0  0  0  0  0  0  0  0  0  0
  -13.8427   17.0574  -37.7350 H   0  0  0  0  0  0  0  0  0  0  0  0
  -10.6645   14.9713  -39.8161 H   0  0  0  0  0  0  0  0  0  0  0  0
  -11.8328   16.2325  -40.2664 H   0  0  0  0  0  0  0  0  0  0  0  0
  -12.1760   15.5837  -36.1627 H   0  0  0  0  0  0  0  0  0  0  0  0
  -12.7609   13.6862  -39.9334 H   0  0  0  0  0  0  0  0  0  0  0  0
  -14.8308   14.4702  -38.8019 H   0  0  0  0  0  0  0  0  0  0  0  0
  -14.5895   15.5436  -40.8647 H   0  0  0  0  0  0  0  0  0  0  0  0
  -15.3120   16.5350  -39.7870 H   0  0  0  0  0  0  0  0  0  0  0  0
  1  4  1  0  0  0  0
  1  5  1  0  0  0  0
  2  4  1  1  0  0  0
  2  6  1  0  0  0  0
  3  5  1  1  0  0  0
  3  7  1  0  0  0  0
  4  7  1  0  0  0  0
  5  6  1  0  0  0  0
  6  8  1  1  0  0  0
  7  9  1  0  0  0  0
  7 10  1  0  0  0  0
  1 11  1  0  0  0  0
  1 12  1  0  0  0  0
  2 13  1  0  0  0  0
  2 14  1  0  0  0  0
  3 15  1  0  0  0  0
  3 16  1  0  0  0  0
  4 17  1  0  0  0  0
  5 18  1  0  0  0  0
  6 19  1  0  0  0  0
  8 20  1  0  0  0  0
  8 21  1  0  0  0  0
M  END
> <id>
EN300-7111812

> <smiles>
N[C@@H]1C[C@H]2C[C@@H]1CC2(F)F |&1:1,3,5,r|

> <IUPAC Name>
rac-(1R,2R,4R)-5,5-difluorobicyclo[2.2.1]heptan-2-amine

> <URL>
https://www.enaminestore.com/catalog/EN300-7111812

> <ROCS_ShapeQuery>
_x1247relevant_x1083L0AP1_x1305L0BP1_

> <ROCS_TanimotoCombo>
1.027 

> <ROCS_ShapeTanimoto>
0.411 

> <ROCS_ColorTanimoto>
0.615 

> <ROCS_RefTversky>
0.357 

> <ROCS_RefColorTversky>
0.713 

> <ROCS_RefTverskyCombo>
1.071 

> <ROCS_FitTversky>
1.581 

> <ROCS_FitColorTversky>
0.818 

> <ROCS_FitTverskyCombo>
2.399 

> <ROCS_ColorScore>
-6.845

> <ROCS_Overlap>
877.526

> <ROCS_Rank>
316                 

$$$$
untitled-dbase-52647_28
  -OEChem-06232314403D

 34 35  0     1  0  0  0  0  0999 V2000
  -10.3853   14.1976  -37.4100 C   0  0  0  0  0  0  0  0  0  0  0  0
  -13.3840   15.5660  -37.1306 C   0  0  0  0  0  0  0  0  0  0  0  0
  -12.1552   16.4476  -39.2674 C   0  0  0  0  0  0  0  0  0  0  0  0
  -13.2404   14.1110  -39.3029 C   0  0  0  0  0  0  0  0  0  0  0  0
  -12.0808   16.1231  -37.7731 C   0  0  2  0  0  0  0  0  0  0  0  0
  -12.9627   14.2263  -37.8019 C   0  0  1  0  0  0  0  0  0  0  0  0
  -13.1260   15.4881  -39.9833 C   0  0  0  0  0  0  0  0  0  0  0  0
   -7.9830   13.8734  -35.9022 C   0  0  0  0  0  0  0  0  0  0  0  0
   -7.6509   16.3387  -36.2503 C   0  0  0  0  0  0  0  0  0  0  0  0
   -9.6530   15.5138  -34.9777 C   0  0  0  0  0  0  0  0  0  0  0  0
   -8.6785   15.2169  -36.1166 C   0  0  0  0  0  0  0  0  0  0  0  0
  -11.6152   14.7508  -37.6145 N   0  0  0  0  0  0  0  0  0  0  0  0
  -10.1800   12.9924  -37.2982 O   0  0  0  0  0  0  0  0  0  0  0  0
  -14.4304   16.0765  -40.0081 O   0  0  0  0  0  0  0  0  0  0  0  0
   -9.4150   15.1581  -37.3431 O   0  0  0  0  0  0  0  0  0  0  0  0
  -13.3720   15.5435  -36.0328 H   0  0  0  0  0  0  0  0  0  0  0  0
  -14.3297   16.0104  -37.4495 H   0  0  0  0  0  0  0  0  0  0  0  0
  -12.4758   17.4872  -39.4023 H   0  0  0  0  0  0  0  0  0  0  0  0
  -11.1537   16.3531  -39.7047 H   0  0  0  0  0  0  0  0  0  0  0  0
  -12.5154   13.4191  -39.7489 H   0  0  0  0  0  0  0  0  0  0  0  0
  -14.2380   13.6853  -39.4588 H   0  0  0  0  0  0  0  0  0  0  0  0
  -11.5367   16.8525  -37.1671 H   0  0  0  0  0  0  0  0  0  0  0  0
  -13.1813   13.3273  -37.2191 H   0  0  0  0  0  0  0  0  0  0  0  0
  -12.8330   15.3660  -41.0318 H   0  0  0  0  0  0  0  0  0  0  0  0
   -8.7172   13.0655  -35.8058 H   0  0  0  0  0  0  0  0  0  0  0  0
   -7.3074   13.6323  -36.7295 H   0  0  0  0  0  0  0  0  0  0  0  0
   -7.4035   13.8771  -34.9720 H   0  0  0  0  0  0  0  0  0  0  0  0
   -8.1455   17.3046  -36.4043 H   0  0  0  0  0  0  0  0  0  0  0  0
   -7.0090   16.1779  -37.1240 H   0  0  0  0  0  0  0  0  0  0  0  0
   -7.0153   16.4124  -35.3620 H   0  0  0  0  0  0  0  0  0  0  0  0
  -10.1520   16.4775  -35.1312 H   0  0  0  0  0  0  0  0  0  0  0  0
  -10.4200   14.7375  -34.8905 H   0  0  0  0  0  0  0  0  0  0  0  0
   -9.1232   15.5889  -34.0212 H   0  0  0  0  0  0  0  0  0  0  0  0
  -14.3413   16.9109  -40.4908 H   0  0  0  0  0  0  0  0  0  0  0  0
  1 12  1  0  0  0  0
  1 13  2  0  0  0  0
  1 15  1  0  0  0  0
  2  5  1  1  0  0  0
  2  6  1  1  0  0  0
  3  5  1  0  0  0  0
  3  7  1  0  0  0  0
  4  6  1  0  0  0  0
  4  7  1  0  0  0  0
  5 12  1  0  0  0  0
  6 12  1  0  0  0  0
  7 14  1  1  0  0  0
  8 11  1  0  0  0  0
  9 11  1  0  0  0  0
 10 11  1  0  0  0  0
 11 15  1  0  0  0  0
  2 16  1  0  0  0  0
  2 17  1  0  0  0  0
  3 18  1  0  0  0  0
  3 19  1  0  0  0  0
  4 20  1  0  0  0  0
  4 21  1  0  0  0  0
  5 22  1  0  0  0  0
  6 23  1  0  0  0  0
  7 24  1  0  0  0  0
  8 25  1  0  0  0  0
  8 26  1  0  0  0  0
  8 27  1  0  0  0  0
  9 28  1  0  0  0  0
  9 29  1  0  0  0  0
  9 30  1  0  0  0  0
 10 31  1  0  0  0  0
 10 32  1  0  0  0  0
 10 33  1  0  0  0  0
 14 34  1  0  0  0  0
M  END
> <id>
EN300-45377144

> <smiles>
CC(C)(C)OC(=O)N1[C@H]2C[C@@H]1C[C@H](O)C2

> <IUPAC Name>
tert-butyl (1R,3r,5S)-3-hydroxy-6-azabicyclo[3.1.1]heptane-6-carboxylate

> <URL>
https://www.enaminestore.com/catalog/EN300-45377144

> <ROCS_ShapeQuery>
_x1247relevant_x1083L0AP1_x1305L0BP1_

> <ROCS_TanimotoCombo>
1.027 

> <ROCS_ShapeTanimoto>
0.517 

> <ROCS_ColorTanimoto>
0.509 

> <ROCS_RefTversky>
0.446 

> <ROCS_RefColorTversky>
0.690 

> <ROCS_RefTverskyCombo>
1.136 

> <ROCS_FitTversky>
1.451 

> <ROCS_FitColorTversky>
0.660 

> <ROCS_FitTverskyCombo>
2.111 

> <ROCS_ColorScore>
-6.689

> <ROCS_Overlap>
1099.709

> <ROCS_Rank>
317                 

$$$$
untitled-dbase-53215_17
  -OEChem-06232314403D

 39 41  0     1  0  0  0  0  0999 V2000
   -9.6350   14.8899  -35.7832 C   0  0  0  0  0  0  0  0  0  0  0  0
   -8.9440   14.7262  -37.0004 C   0  0  0  0  0  0  0  0  0  0  0  0
  -11.0312   14.9351  -35.7470 C   0  0  0  0  0  0  0  0  0  0  0  0
   -9.6329   14.6037  -38.2100 C   0  0  0  0  0  0  0  0  0  0  0  0
  -11.7037   14.8045  -36.9439 C   0  0  0  0  0  0  0  0  0  0  0  0
  -11.0107   14.6403  -38.1645 C   0  0  0  0  0  0  0  0  0  0  0  0
  -14.2447   13.3243  -38.9597 C   0  0  0  0  0  0  0  0  0  0  0  0
  -13.6212   16.2821  -37.6017 C   0  0  0  0  0  0  0  0  0  0  0  0
  -12.3950   15.9892  -39.7642 C   0  0  0  0  0  0  0  0  0  0  0  0
  -13.1811   14.8423  -37.2492 C   0  0  1  0  0  0  0  0  0  0  0  0
  -12.0321   14.5685  -39.2741 C   0  0  2  0  0  0  0  0  0  0  0  0
  -16.1465   14.8425  -39.9288 C   0  0  0  0  0  0  0  0  0  0  0  0
  -15.2535   14.4099  -42.2363 C   0  0  0  0  0  0  0  0  0  0  0  0
  -16.5241   12.6107  -41.0293 C   0  0  0  0  0  0  0  0  0  0  0  0
  -15.5673   13.7921  -40.8754 C   0  0  0  0  0  0  0  0  0  0  0  0
  -12.7964   16.8985  -38.6662 N   0  0  0  0  0  0  0  0  0  0  0  0
  -13.2044   14.1165  -38.5188 N   0  0  0  0  0  0  0  0  0  0  0  0
  -15.0025   12.7039  -38.2176 O   0  0  0  0  0  0  0  0  0  0  0  0
  -14.3355   13.3125  -40.3250 O   0  0  0  0  0  0  0  0  0  0  0  0
   -9.0708   14.9872  -34.8592 H   0  0  0  0  0  0  0  0  0  0  0  0
   -7.8572   14.6999  -36.9967 H   0  0  0  0  0  0  0  0  0  0  0  0
  -11.5606   15.0705  -34.8111 H   0  0  0  0  0  0  0  0  0  0  0  0
   -9.0993   14.4873  -39.1461 H   0  0  0  0  0  0  0  0  0  0  0  0
  -14.6700   16.2749  -37.9232 H   0  0  0  0  0  0  0  0  0  0  0  0
  -13.5586   16.9196  -36.7126 H   0  0  0  0  0  0  0  0  0  0  0  0
  -11.5367   16.4370  -40.2776 H   0  0  0  0  0  0  0  0  0  0  0  0
  -13.2139   15.9261  -40.4914 H   0  0  0  0  0  0  0  0  0  0  0  0
  -13.8097   14.3603  -36.4960 H   0  0  0  0  0  0  0  0  0  0  0  0
  -11.7677   13.8773  -40.0780 H   0  0  0  0  0  0  0  0  0  0  0  0
  -16.3731   14.4030  -38.9508 H   0  0  0  0  0  0  0  0  0  0  0  0
  -15.4550   15.6787  -39.7824 H   0  0  0  0  0  0  0  0  0  0  0  0
  -17.0920   15.2390  -40.3160 H   0  0  0  0  0  0  0  0  0  0  0  0
  -14.8377   13.6598  -42.9187 H   0  0  0  0  0  0  0  0  0  0  0  0
  -14.4955   15.1959  -42.1427 H   0  0  0  0  0  0  0  0  0  0  0  0
  -16.1463   14.8427  -42.6991 H   0  0  0  0  0  0  0  0  0  0  0  0
  -16.1089   11.8572  -41.7083 H   0  0  0  0  0  0  0  0  0  0  0  0
  -16.7317   12.1318  -40.0670 H   0  0  0  0  0  0  0  0  0  0  0  0
  -17.4743   12.9337  -41.4698 H   0  0  0  0  0  0  0  0  0  0  0  0
  -13.2582   17.7258  -39.0402 H   0  0  0  0  0  0  0  0  0  0  0  0
  1  2  2  0  0  0  0
  1  3  1  0  0  0  0
  2  4  1  0  0  0  0
  3  5  2  0  0  0  0
  4  6  2  0  0  0  0
  5  6  1  0  0  0  0
  5 10  1  0  0  0  0
  6 11  1  0  0  0  0
  7 17  1  0  0  0  0
  7 18  2  0  0  0  0
  7 19  1  0  0  0  0
  8 10  1  0  0  0  0
  8 16  1  0  0  0  0
  9 11  1  0  0  0  0
  9 16  1  0  0  0  0
 10 17  1  0  0  0  0
 11 17  1  0  0  0  0
 12 15  1  0  0  0  0
 13 15  1  0  0  0  0
 14 15  1  0  0  0  0
 15 19  1  0  0  0  0
  1 20  1  0  0  0  0
  2 21  1  0  0  0  0
  3 22  1  0  0  0  0
  4 23  1  0  0  0  0
  8 24  1  0  0  0  0
  8 25  1  0  0  0  0
  9 26  1  0  0  0  0
  9 27  1  0  0  0  0
 10 28  1  0  0  0  0
 11 29  1  0  0  0  0
 12 30  1  0  0  0  0
 12 31  1  0  0  0  0
 12 32  1  0  0  0  0
 13 33  1  0  0  0  0
 13 34  1  0  0  0  0
 13 35  1  0  0  0  0
 14 36  1  0  0  0  0
 14 37  1  0  0  0  0
 14 38  1  0  0  0  0
 16 39  1  0  0  0  0
M  END
> <id>
EN300-37453221

> <smiles>
Cl.CC(C)(C)OC(=O)N1C2CNCC1C=3C=CC=CC23

> <IUPAC Name>
tert-butyl 10,12-diazatricyclo[6.3.1.0,2,7]dodeca-2,4,6-triene-12-carboxylate hydrochloride

> <CAS>
2803863-16-1

> <Purity>
95

> <URL>
https://www.enaminestore.com/catalog/EN300-37453221

> <Saltdate>
Cl

> <ROCS_ShapeQuery>
_x1247relevant_x1083L0AP1_x1305L0BP1_

> <ROCS_TanimotoCombo>
1.027 

> <ROCS_ShapeTanimoto>
0.528 

> <ROCS_ColorTanimoto>
0.499 

> <ROCS_RefTversky>
0.479 

> <ROCS_RefColorTversky>
0.704 

> <ROCS_RefTverskyCombo>
1.183 

> <ROCS_FitTversky>
1.240 

> <ROCS_FitColorTversky>
0.631 

> <ROCS_FitTverskyCombo>
1.871 

> <ROCS_ColorScore>
-6.849

> <ROCS_Overlap>
1186.688

> <ROCS_Rank>
318                 

$$$$
untitled-dbase-30498_0
  -OEChem-06232314403D

 23 25  0     1  0  0  0  0  0999 V2000
  -12.1757   16.0144  -39.5077 C   0  0  0  0  0  0  0  0  0  0  0  0
  -12.3210   14.6912  -39.6722 C   0  0  0  0  0  0  0  0  0  0  0  0
  -10.2901   15.9293  -37.3016 C   0  0  0  0  0  0  0  0  0  0  0  0
   -9.6212   14.6485  -37.7258 C   0  0  0  0  0  0  0  0  0  0  0  0
  -10.6228   13.5699  -37.3306 C   0  0  0  0  0  0  0  0  0  0  0  0
  -13.8639   15.3564  -38.0942 C   0  0  0  0  0  0  0  0  0  0  0  0
  -12.6996   16.3562  -38.1295 C   0  0  1  0  0  0  0  0  0  0  0  0
  -12.9635   14.1521  -38.4181 C   0  0  2  0  0  0  0  0  0  0  0  0
  -11.7682   15.7576  -37.0470 C   0  0  1  0  0  0  0  0  0  0  0  0
  -11.9939   14.2258  -37.2109 C   0  0  2  0  0  0  0  0  0  0  0  0
   -9.7103   17.0062  -37.2319 O   0  0  0  0  0  0  0  0  0  0  0  0
  -11.7106   16.6987  -40.1991 H   0  0  0  0  0  0  0  0  0  0  0  0
  -11.9986   14.1120  -40.5224 H   0  0  0  0  0  0  0  0  0  0  0  0
   -9.4609   14.6685  -38.8070 H   0  0  0  0  0  0  0  0  0  0  0  0
   -8.6671   14.5186  -37.2088 H   0  0  0  0  0  0  0  0  0  0  0  0
  -10.6148   12.7261  -38.0277 H   0  0  0  0  0  0  0  0  0  0  0  0
  -10.3349   13.1726  -36.3487 H   0  0  0  0  0  0  0  0  0  0  0  0
  -14.3482   15.2898  -37.1131 H   0  0  0  0  0  0  0  0  0  0  0  0
  -14.6309   15.5468  -38.8562 H   0  0  0  0  0  0  0  0  0  0  0  0
  -12.9792   17.4015  -37.9939 H   0  0  0  0  0  0  0  0  0  0  0  0
  -13.4942   13.2072  -38.5424 H   0  0  0  0  0  0  0  0  0  0  0  0
  -12.0231   16.0812  -36.0329 H   0  0  0  0  0  0  0  0  0  0  0  0
  -12.5138   13.8283  -36.3288 H   0  0  0  0  0  0  0  0  0  0  0  0
  1  2  2  0  0  0  0
  1  7  1  1  0  0  0
  2  8  1  1  0  0  0
  3  4  1  0  0  0  0
  3  9  1  1  0  0  0
  3 11  2  0  0  0  0
  4  5  1  0  0  0  0
  5 10  1  1  0  0  0
  6  7  1  0  0  0  0
  6  8  1  0  0  0  0
  7  9  1  0  0  0  0
  8 10  1  0  0  0  0
  9 10  1  0  0  0  0
  1 12  1  0  0  0  0
  2 13  1  0  0  0  0
  4 14  1  0  0  0  0
  4 15  1  0  0  0  0
  5 16  1  0  0  0  0
  5 17  1  0  0  0  0
  6 18  1  0  0  0  0
  6 19  1  0  0  0  0
  7 20  1  0  0  0  0
  8 21  1  0  0  0  0
  9 22  1  0  0  0  0
 10 23  1  0  0  0  0
M  END
> <id>
EN300-26621891

> <smiles>
O=C1CC[C@@H]2[C@H]3C[C@H](C=C3)[C@@H]21 |&1:4,5,7,10,r|

> <MDLNUMBER>
MFCD32662648

> <IUPAC Name>
rac-(1R,2S,6R,7S)-tricyclo[5.2.1.0,2,6]dec-8-en-3-one

> <CAS>
22981-84-6

> <Purity>
95

> <URL>
https://www.enaminestore.com/catalog/EN300-26621891

> <MP>
94-95

> <ROCS_ShapeQuery>
_x1247relevant_x1083L0AP1_x1305L0BP1_

> <ROCS_TanimotoCombo>
1.027 

> <ROCS_ShapeTanimoto>
0.468 

> <ROCS_ColorTanimoto>
0.558 

> <ROCS_RefTversky>
0.398 

> <ROCS_RefColorTversky>
0.677 

> <ROCS_RefTverskyCombo>
1.075 

> <ROCS_FitTversky>
1.604 

> <ROCS_FitColorTversky>
0.762 

> <ROCS_FitTverskyCombo>
2.366 

> <ROCS_ColorScore>
-6.500

> <ROCS_Overlap>
978.460

> <ROCS_Rank>
319                 

$$$$
untitled-dbase-39007_1
  -OEChem-06232314403D

 21 23  0     1  0  0  0  0  0999 V2000
   -9.6973   14.0335  -36.0774 C   0  0  0  0  0  0  0  0  0  0  0  0
   -9.0348   14.8839  -36.9574 C   0  0  0  0  0  0  0  0  0  0  0  0
  -11.0757   13.8628  -36.1813 C   0  0  0  0  0  0  0  0  0  0  0  0
   -9.7505   15.5677  -37.9419 C   0  0  0  0  0  0  0  0  0  0  0  0
  -11.7977   14.5350  -37.1771 C   0  0  0  0  0  0  0  0  0  0  0  0
  -11.1399   15.4128  -38.0707 C   0  0  0  0  0  0  0  0  0  0  0  0
  -13.3020   14.3873  -37.2518 C   0  0  0  0  0  0  0  0  0  0  0  0
  -13.8451   14.4866  -38.6828 C   0  0  0  0  0  0  0  0  0  0  0  0
  -11.9177   16.1476  -39.1329 C   0  0  1  0  0  0  0  0  0  0  0  0
  -13.3058   15.6529  -39.4504 C   0  0  2  0  0  0  0  0  0  0  0  0
  -13.1016   16.8608  -38.7155 O   0  0  0  0  0  0  0  0  0  0  0  0
   -9.1406   13.5018  -35.3116 H   0  0  0  0  0  0  0  0  0  0  0  0
   -7.9590   15.0126  -36.8814 H   0  0  0  0  0  0  0  0  0  0  0  0
  -11.5853   13.2055  -35.4810 H   0  0  0  0  0  0  0  0  0  0  0  0
   -9.2152   16.2281  -38.6218 H   0  0  0  0  0  0  0  0  0  0  0  0
  -13.5687   13.4119  -36.8178 H   0  0  0  0  0  0  0  0  0  0  0  0
  -13.7899   15.1588  -36.6384 H   0  0  0  0  0  0  0  0  0  0  0  0
  -13.6120   13.5503  -39.2255 H   0  0  0  0  0  0  0  0  0  0  0  0
  -14.9524   14.5393  -38.6544 H   0  0  0  0  0  0  0  0  0  0  0  0
  -11.3550   16.5817  -39.9525 H   0  0  0  0  0  0  0  0  0  0  0  0
  -13.6691   15.7238  -40.4775 H   0  0  0  0  0  0  0  0  0  0  0  0
  1  2  2  0  0  0  0
  1  3  1  0  0  0  0
  2  4  1  0  0  0  0
  3  5  2  0  0  0  0
  4  6  2  0  0  0  0
  5  6  1  0  0  0  0
  5  7  1  0  0  0  0
  6  9  1  0  0  0  0
  7  8  1  0  0  0  0
  8 10  1  6  0  0  0
  9 10  1  0  0  0  0
  9 11  1  6  0  0  0
 10 11  1  0  0  0  0
  1 12  1  0  0  0  0
  2 13  1  0  0  0  0
  3 14  1  0  0  0  0
  4 15  1  0  0  0  0
  7 16  1  0  0  0  0
  7 17  1  0  0  0  0
  8 18  1  0  0  0  0
  8 19  1  0  0  0  0
  9 20  1  0  0  0  0
 10 21  1  0  0  0  0
M  END
> <id>
EN300-1703754

> <smiles>
C1CC=2C=CC=CC2[C@@H]3O[C@H]13 |&1:8,10,r|

> <MDLNUMBER>
MFCD31665676

> <IUPAC Name>
rac-(1aR,7bS)-1aH,2H,3H,7bH-naphtho[1,2-b]oxirene

> <CAS>
1807938-02-8

> <Purity>
95

> <URL>
https://www.enaminestore.com/catalog/EN300-1703754

> <ROCS_ShapeQuery>
_x1247relevant_x1083L0AP1_x1305L0BP1_

> <ROCS_TanimotoCombo>
1.027 

> <ROCS_ShapeTanimoto>
0.486 

> <ROCS_ColorTanimoto>
0.541 

> <ROCS_RefTversky>
0.407 

> <ROCS_RefColorTversky>
0.574 

> <ROCS_RefTverskyCombo>
0.981 

> <ROCS_FitTversky>
1.668 

> <ROCS_FitColorTversky>
0.903 

> <ROCS_FitTverskyCombo>
2.571 

> <ROCS_ColorScore>
-5.441

> <ROCS_Overlap>
999.461

> <ROCS_Rank>
320                 

$$$$
untitled-dbase-26066_0
  -OEChem-06232314403D

 21 22  0     0  0  0  0  0  0999 V2000
  -13.8597   15.8231  -37.5716 C   0  0  0  0  0  0  0  0  0  0  0  0
  -12.0464   16.4012  -39.2149 C   0  0  0  0  0  0  0  0  0  0  0  0
  -12.8753   14.9261  -36.8060 C   0  0  0  0  0  0  0  0  0  0  0  0
  -11.0669   15.5027  -38.4447 C   0  0  0  0  0  0  0  0  0  0  0  0
  -12.9635   14.1986  -39.0782 C   0  0  0  0  0  0  0  0  0  0  0  0
  -13.3960   15.6671  -39.0397 C   0  0  0  0  0  0  0  0  0  0  0  0
  -11.9812   14.3887  -37.9269 C   0  0  0  0  0  0  0  0  0  0  0  0
  -14.3954   16.0677  -40.0022 N   0  0  0  0  0  0  0  0  0  0  0  0
  -11.3160   13.2849  -37.5819 F   0  0  0  0  0  0  0  0  0  0  0  0
  -14.8826   15.4543  -37.4274 H   0  0  0  0  0  0  0  0  0  0  0  0
  -13.8233   16.8619  -37.2266 H   0  0  0  0  0  0  0  0  0  0  0  0
  -12.0671   17.4218  -38.8179 H   0  0  0  0  0  0  0  0  0  0  0  0
  -11.7464   16.4543  -40.2685 H   0  0  0  0  0  0  0  0  0  0  0  0
  -12.3117   15.4805  -36.0489 H   0  0  0  0  0  0  0  0  0  0  0  0
  -13.4017   14.1109  -36.2972 H   0  0  0  0  0  0  0  0  0  0  0  0
  -10.2956   15.1011  -39.1113 H   0  0  0  0  0  0  0  0  0  0  0  0
  -10.5600   16.0392  -37.6362 H   0  0  0  0  0  0  0  0  0  0  0  0
  -13.7641   13.4871  -38.8477 H   0  0  0  0  0  0  0  0  0  0  0  0
  -12.4774   13.8963  -40.0123 H   0  0  0  0  0  0  0  0  0  0  0  0
  -15.2105   15.5055  -39.8803 H   0  0  0  0  0  0  0  0  0  0  0  0
  -14.6219   17.0284  -39.8567 H   0  0  0  0  0  0  0  0  0  0  0  0
  1  3  1  0  0  0  0
  1  6  1  0  0  0  0
  2  4  1  0  0  0  0
  2  6  1  0  0  0  0
  3  7  1  0  0  0  0
  4  7  1  0  0  0  0
  5  6  1  0  0  0  0
  5  7  1  0  0  0  0
  6  8  1  0  0  0  0
  7  9  1  0  0  0  0
  1 10  1  0  0  0  0
  1 11  1  0  0  0  0
  2 12  1  0  0  0  0
  2 13  1  0  0  0  0
  3 14  1  0  0  0  0
  3 15  1  0  0  0  0
  4 16  1  0  0  0  0
  4 17  1  0  0  0  0
  5 18  1  0  0  0  0
  5 19  1  0  0  0  0
  8 20  1  0  0  0  0
  8 21  1  0  0  0  0
M  END
> <id>
EN300-6738366

> <smiles>
Cl.NC1(CCC2(F)CC1)C2

> <MDLNUMBER>
MFCD28502790

> <IUPAC Name>
4-fluorobicyclo[2.2.1]heptan-1-amine hydrochloride

> <CAS>
1638765-29-3

> <Purity>
95

> <URL>
https://www.enaminestore.com/catalog/EN300-6738366

> <Saltdate>
Cl

> <ROCS_ShapeQuery>
_x1247relevant_x1083L0AP1_x1305L0BP1_

> <ROCS_TanimotoCombo>
1.026 

> <ROCS_ShapeTanimoto>
0.414 

> <ROCS_ColorTanimoto>
0.612 

> <ROCS_RefTversky>
0.354 

> <ROCS_RefColorTversky>
0.711 

> <ROCS_RefTverskyCombo>
1.065 

> <ROCS_FitTversky>
1.708 

> <ROCS_FitColorTversky>
0.815 

> <ROCS_FitTverskyCombo>
2.522 

> <ROCS_ColorScore>
-6.825

> <ROCS_Overlap>
867.633

> <ROCS_Rank>
321                 

$$$$
untitled-dbase-38197_0
  -OEChem-06232314403D

 21 22  0     0  0  0  0  0  0999 V2000
  -13.8597   15.8231  -37.5716 C   0  0  0  0  0  0  0  0  0  0  0  0
  -12.0464   16.4012  -39.2149 C   0  0  0  0  0  0  0  0  0  0  0  0
  -12.8753   14.9261  -36.8060 C   0  0  0  0  0  0  0  0  0  0  0  0
  -11.0669   15.5027  -38.4447 C   0  0  0  0  0  0  0  0  0  0  0  0
  -12.9635   14.1986  -39.0782 C   0  0  0  0  0  0  0  0  0  0  0  0
  -13.3960   15.6671  -39.0397 C   0  0  0  0  0  0  0  0  0  0  0  0
  -11.9812   14.3887  -37.9269 C   0  0  0  0  0  0  0  0  0  0  0  0
  -14.3954   16.0677  -40.0022 N   0  0  0  0  0  0  0  0  0  0  0  0
  -11.3160   13.2849  -37.5819 F   0  0  0  0  0  0  0  0  0  0  0  0
  -14.8826   15.4543  -37.4274 H   0  0  0  0  0  0  0  0  0  0  0  0
  -13.8233   16.8619  -37.2266 H   0  0  0  0  0  0  0  0  0  0  0  0
  -12.0671   17.4218  -38.8179 H   0  0  0  0  0  0  0  0  0  0  0  0
  -11.7464   16.4543  -40.2685 H   0  0  0  0  0  0  0  0  0  0  0  0
  -12.3117   15.4805  -36.0489 H   0  0  0  0  0  0  0  0  0  0  0  0
  -13.4017   14.1109  -36.2972 H   0  0  0  0  0  0  0  0  0  0  0  0
  -10.2956   15.1011  -39.1113 H   0  0  0  0  0  0  0  0  0  0  0  0
  -10.5600   16.0392  -37.6362 H   0  0  0  0  0  0  0  0  0  0  0  0
  -13.7641   13.4871  -38.8477 H   0  0  0  0  0  0  0  0  0  0  0  0
  -12.4774   13.8963  -40.0123 H   0  0  0  0  0  0  0  0  0  0  0  0
  -15.2105   15.5055  -39.8803 H   0  0  0  0  0  0  0  0  0  0  0  0
  -14.6219   17.0284  -39.8567 H   0  0  0  0  0  0  0  0  0  0  0  0
  1  3  1  0  0  0  0
  1  6  1  0  0  0  0
  2  4  1  0  0  0  0
  2  6  1  0  0  0  0
  3  7  1  0  0  0  0
  4  7  1  0  0  0  0
  5  6  1  0  0  0  0
  5  7  1  0  0  0  0
  6  8  1  0  0  0  0
  7  9  1  0  0  0  0
  1 10  1  0  0  0  0
  1 11  1  0  0  0  0
  2 12  1  0  0  0  0
  2 13  1  0  0  0  0
  3 14  1  0  0  0  0
  3 15  1  0  0  0  0
  4 16  1  0  0  0  0
  4 17  1  0  0  0  0
  5 18  1  0  0  0  0
  5 19  1  0  0  0  0
  8 20  1  0  0  0  0
  8 21  1  0  0  0  0
M  END
> <id>
EN300-6738367

> <smiles>
NC1(CCC2(F)CC1)C2

> <MDLNUMBER>
MFCD19204738

> <IUPAC Name>
4-fluorobicyclo[2.2.1]heptan-1-amine

> <CAS>
84553-48-0

> <URL>
https://www.enaminestore.com/catalog/EN300-6738367

> <ROCS_ShapeQuery>
_x1247relevant_x1083L0AP1_x1305L0BP1_

> <ROCS_TanimotoCombo>
1.026 

> <ROCS_ShapeTanimoto>
0.414 

> <ROCS_ColorTanimoto>
0.612 

> <ROCS_RefTversky>
0.354 

> <ROCS_RefColorTversky>
0.711 

> <ROCS_RefTverskyCombo>
1.065 

> <ROCS_FitTversky>
1.708 

> <ROCS_FitColorTversky>
0.815 

> <ROCS_FitTverskyCombo>
2.522 

> <ROCS_ColorScore>
-6.825

> <ROCS_Overlap>
867.633

> <ROCS_Rank>
322                 

$$$$
untitled-dbase-23337_0
  -OEChem-06232314403D

 25 27  0     1  0  0  0  0  0999 V2000
  -10.3684   13.6833  -37.5205 C   0  0  0  0  0  0  0  0  0  0  0  0
  -10.1826   15.8663  -36.9929 C   0  0  0  0  0  0  0  0  0  0  0  0
  -14.0426   14.5538  -38.3023 C   0  0  0  0  0  0  0  0  0  0  0  0
  -13.9149   16.0457  -37.9457 C   0  0  0  0  0  0  0  0  0  0  0  0
  -12.0551   14.7434  -39.7896 C   0  0  0  0  0  0  0  0  0  0  0  0
  -11.9260   16.2292  -39.4320 C   0  0  0  0  0  0  0  0  0  0  0  0
  -11.7858   14.1381  -37.3447 C   0  0  1  0  0  0  0  0  0  0  0  0
  -11.6602   15.6145  -36.9892 C   0  0  2  0  0  0  0  0  0  0  0  0
  -12.6525   13.9586  -38.6052 C   0  0  0  0  0  0  0  0  0  0  0  0
  -12.4361   16.4804  -37.9994 C   0  0  0  0  0  0  0  0  0  0  0  0
  -10.0189   12.5545  -37.8305 O   0  0  0  0  0  0  0  0  0  0  0  0
   -9.6455   16.9407  -36.7697 O   0  0  0  0  0  0  0  0  0  0  0  0
   -9.5152   14.7173  -37.2861 O   0  0  0  0  0  0  0  0  0  0  0  0
  -14.5142   14.0134  -37.4727 H   0  0  0  0  0  0  0  0  0  0  0  0
  -14.7038   14.4353  -39.1691 H   0  0  0  0  0  0  0  0  0  0  0  0
  -14.5127   16.6456  -38.6423 H   0  0  0  0  0  0  0  0  0  0  0  0
  -14.3270   16.2244  -36.9452 H   0  0  0  0  0  0  0  0  0  0  0  0
  -12.6950   14.6320  -40.6736 H   0  0  0  0  0  0  0  0  0  0  0  0
  -11.0754   14.3401  -40.0702 H   0  0  0  0  0  0  0  0  0  0  0  0
  -10.8829   16.5492  -39.5361 H   0  0  0  0  0  0  0  0  0  0  0  0
  -12.5021   16.8308  -40.1459 H   0  0  0  0  0  0  0  0  0  0  0  0
  -12.2122   13.5871  -36.4975 H   0  0  0  0  0  0  0  0  0  0  0  0
  -12.0268   15.7836  -35.9693 H   0  0  0  0  0  0  0  0  0  0  0  0
  -12.7388   12.8986  -38.8683 H   0  0  0  0  0  0  0  0  0  0  0  0
  -12.3402   17.5435  -37.7526 H   0  0  0  0  0  0  0  0  0  0  0  0
  1  7  1  0  0  0  0
  1 11  2  0  0  0  0
  1 13  1  0  0  0  0
  2  8  1  0  0  0  0
  2 12  2  0  0  0  0
  2 13  1  0  0  0  0
  3  4  1  0  0  0  0
  3  9  1  0  0  0  0
  4 10  1  0  0  0  0
  5  6  1  0  0  0  0
  5  9  1  0  0  0  0
  6 10  1  0  0  0  0
  7  8  1  0  0  0  0
  7  9  1  0  0  0  0
  8 10  1  0  0  0  0
  3 14  1  0  0  0  0
  3 15  1  0  0  0  0
  4 16  1  0  0  0  0
  4 17  1  0  0  0  0
  5 18  1  0  0  0  0
  5 19  1  0  0  0  0
  6 20  1  0  0  0  0
  6 21  1  0  0  0  0
  7 22  1  0  0  0  0
  8 23  1  0  0  0  0
  9 24  1  0  0  0  0
 10 25  1  0  0  0  0
M  END
> <id>
EN300-2009992

> <smiles>
O=C1OC(=O)C2C1C3CCC2CC3

> <MDLNUMBER>
MFCD00180708

> <IUPAC Name>
4-oxatricyclo[5.2.2.0,2,6]undecane-3,5-dione

> <CAS>
26843-47-0

> <Purity>
95

> <URL>
https://www.enaminestore.com/catalog/EN300-2009992

> <MP>
187-188

> <ROCS_ShapeQuery>
_x1247relevant_x1083L0AP1_x1305L0BP1_

> <ROCS_TanimotoCombo>
1.026 

> <ROCS_ShapeTanimoto>
0.492 

> <ROCS_ColorTanimoto>
0.534 

> <ROCS_RefTversky>
0.423 

> <ROCS_RefColorTversky>
0.678 

> <ROCS_RefTverskyCombo>
1.101 

> <ROCS_FitTversky>
1.494 

> <ROCS_FitColorTversky>
0.717 

> <ROCS_FitTverskyCombo>
2.210 

> <ROCS_ColorScore>
-6.529

> <ROCS_Overlap>
1042.460

> <ROCS_Rank>
323                 

$$$$
untitled-dbase-32135_30
  -OEChem-06232314403D

 38 39  0     1  0  0  0  0  0999 V2000
  -10.1596   14.7189  -37.5063 C   0  0  0  0  0  0  0  0  0  0  0  0
  -13.5636   15.7162  -36.9879 C   0  0  0  0  0  0  0  0  0  0  0  0
  -13.7325   14.2634  -37.4812 C   0  0  0  0  0  0  0  0  0  0  0  0
  -12.3096   16.7939  -38.9477 C   0  0  0  0  0  0  0  0  0  0  0  0
  -12.2074   16.1665  -37.5419 C   0  0  2  0  0  0  0  0  0  0  0  0
  -12.4667   13.9752  -38.2938 C   0  0  1  0  0  0  0  0  0  0  0  0
  -12.9544   15.8612  -40.0078 C   0  0  1  0  0  0  0  0  0  0  0  0
  -12.6091   14.3698  -39.7763 C   0  0  1  0  0  0  0  0  0  0  0  0
  -10.1919   12.7055  -35.4780 C   0  0  0  0  0  0  0  0  0  0  0  0
   -8.8431   11.3255  -37.0859 C   0  0  0  0  0  0  0  0  0  0  0  0
   -7.9172   13.4914  -36.2145 C   0  0  0  0  0  0  0  0  0  0  0  0
   -9.1833   12.7412  -36.6252 C   0  0  0  0  0  0  0  0  0  0  0  0
  -11.5138   14.9036  -37.7045 N   0  0  0  0  0  0  0  0  0  0  0  0
  -14.4072   16.0487  -40.0265 N   0  0  0  0  0  0  0  0  0  0  0  0
   -9.3836   15.6094  -37.1674 O   0  0  0  0  0  0  0  0  0  0  0  0
   -9.7785   13.4243  -37.7341 O   0  0  0  0  0  0  0  0  0  0  0  0
  -11.4061   14.1272  -40.3822 F   0  0  0  0  0  0  0  0  0  0  0  0
  -14.3910   16.3668  -37.2828 H   0  0  0  0  0  0  0  0  0  0  0  0
  -13.5341   15.7137  -35.8912 H   0  0  0  0  0  0  0  0  0  0  0  0
  -13.7764   13.5971  -36.6108 H   0  0  0  0  0  0  0  0  0  0  0  0
  -14.6552   14.1121  -38.0483 H   0  0  0  0  0  0  0  0  0  0  0  0
  -12.8537   17.7454  -38.8928 H   0  0  0  0  0  0  0  0  0  0  0  0
  -11.2958   17.0491  -39.2861 H   0  0  0  0  0  0  0  0  0  0  0  0
  -11.6845   16.8431  -36.8575 H   0  0  0  0  0  0  0  0  0  0  0  0
  -12.1185   12.9435  -38.2006 H   0  0  0  0  0  0  0  0  0  0  0  0
  -12.5985   16.1554  -40.9738 H   0  0  0  0  0  0  0  0  0  0  0  0
  -13.3358   13.7183  -40.2727 H   0  0  0  0  0  0  0  0  0  0  0  0
  -10.4387   13.7199  -35.1445 H   0  0  0  0  0  0  0  0  0  0  0  0
  -11.1183   12.2007  -35.7708 H   0  0  0  0  0  0  0  0  0  0  0  0
   -9.7754   12.1866  -34.6071 H   0  0  0  0  0  0  0  0  0  0  0  0
   -8.1197   11.3463  -37.9090 H   0  0  0  0  0  0  0  0  0  0  0  0
   -9.7337   10.8156  -37.4705 H   0  0  0  0  0  0  0  0  0  0  0  0
   -8.4245   10.7253  -36.2715 H   0  0  0  0  0  0  0  0  0  0  0  0
   -7.1935   13.5172  -37.0372 H   0  0  0  0  0  0  0  0  0  0  0  0
   -8.1376   14.5214  -35.9158 H   0  0  0  0  0  0  0  0  0  0  0  0
   -7.4183   12.9860  -35.3796 H   0  0  0  0  0  0  0  0  0  0  0  0
  -14.8331   15.1702  -39.8529 H   0  0  0  0  0  0  0  0  0  0  0  0
  -14.6419   16.7009  -39.3174 H   0  0  0  0  0  0  0  0  0  0  0  0
  1 13  1  0  0  0  0
  1 15  2  0  0  0  0
  1 16  1  0  0  0  0
  2  3  1  0  0  0  0
  2  5  1  6  0  0  0
  3  6  1  6  0  0  0
  4  5  1  0  0  0  0
  4  7  1  0  0  0  0
  5 13  1  0  0  0  0
  6  8  1  0  0  0  0
  6 13  1  0  0  0  0
  7  8  1  0  0  0  0
  7 14  1  6  0  0  0
  8 17  1  1  0  0  0
  9 12  1  0  0  0  0
 10 12  1  0  0  0  0
 11 12  1  0  0  0  0
 12 16  1  0  0  0  0
  2 18  1  0  0  0  0
  2 19  1  0  0  0  0
  3 20  1  0  0  0  0
  3 21  1  0  0  0  0
  4 22  1  0  0  0  0
  4 23  1  0  0  0  0
  5 24  1  0  0  0  0
  6 25  1  0  0  0  0
  7 26  1  0  0  0  0
  8 27  1  0  0  0  0
  9 28  1  0  0  0  0
  9 29  1  0  0  0  0
  9 30  1  0  0  0  0
 10 31  1  0  0  0  0
 10 32  1  0  0  0  0
 10 33  1  0  0  0  0
 11 34  1  0  0  0  0
 11 35  1  0  0  0  0
 11 36  1  0  0  0  0
 14 37  1  0  0  0  0
 14 38  1  0  0  0  0
M  END
> <id>
EN300-26976670

> <smiles>
CC(C)(C)OC(=O)N1[C@@H]2CC[C@H]1[C@H](F)[C@@H](N)C2 |&1:8,11,12,14,r|

> <IUPAC Name>
rac-tert-butyl (1R,2S,3R,5S)-3-amino-2-fluoro-8-azabicyclo[3.2.1]octane-8-carboxylate

> <CAS>
2375918-49-1

> <Purity>
95

> <URL>
https://www.enaminestore.com/catalog/EN300-26976670

> <ROCS_ShapeQuery>
_x1247relevant_x1083L0AP1_x1305L0BP1_

> <ROCS_TanimotoCombo>
1.026 

> <ROCS_ShapeTanimoto>
0.521 

> <ROCS_ColorTanimoto>
0.505 

> <ROCS_RefTversky>
0.460 

> <ROCS_RefColorTversky>
0.676 

> <ROCS_RefTverskyCombo>
1.135 

> <ROCS_FitTversky>
1.343 

> <ROCS_FitColorTversky>
0.667 

> <ROCS_FitTverskyCombo>
2.010 

> <ROCS_ColorScore>
-6.535

> <ROCS_Overlap>
1136.229

> <ROCS_Rank>
324                 

$$$$
untitled-dbase-15352_5
  -OEChem-06232314403D

 31 33  0     1  0  0  0  0  0999 V2000
  -11.2895   15.0846  -35.8823 C   0  0  0  0  0  0  0  0  0  0  0  0
   -9.3225   13.4154  -37.4573 C   0  0  0  0  0  0  0  0  0  0  0  0
   -8.7094   14.7734  -37.7381 C   0  0  0  0  0  0  0  0  0  0  0  0
  -13.3838   14.9248  -39.7324 C   0  0  0  0  0  0  0  0  0  0  0  0
  -11.9292   15.3888  -39.7404 C   0  0  0  0  0  0  0  0  0  0  0  0
  -10.8393   13.3504  -37.6469 C   0  0  0  0  0  0  0  0  0  0  0  0
  -13.1993   14.1845  -37.3385 C   0  0  0  0  0  0  0  0  0  0  0  0
   -8.9286   15.7969  -36.6282 C   0  0  0  0  0  0  0  0  0  0  0  0
  -13.8016   15.2140  -38.2925 C   0  0  1  0  0  0  0  0  0  0  0  0
  -11.7085   15.7848  -38.2810 C   0  0  2  0  0  0  0  0  0  0  0  0
  -11.6885   14.5905  -37.2876 C   0  0  1  0  0  0  0  0  0  0  0  0
  -10.0103   15.5524  -35.6840 N   0  0  0  0  0  0  0  0  0  0  0  0
  -12.0755   15.0429  -34.9309 O   0  0  0  0  0  0  0  0  0  0  0  0
  -13.0076   16.3743  -37.9847 O   0  0  0  0  0  0  0  0  0  0  0  0
   -8.8681   12.6940  -38.1455 H   0  0  0  0  0  0  0  0  0  0  0  0
   -9.0489   13.0831  -36.4526 H   0  0  0  0  0  0  0  0  0  0  0  0
   -7.6239   14.6392  -37.8680 H   0  0  0  0  0  0  0  0  0  0  0  0
   -9.0760   15.1710  -38.6979 H   0  0  0  0  0  0  0  0  0  0  0  0
  -13.9663   15.5298  -40.4369 H   0  0  0  0  0  0  0  0  0  0  0  0
  -13.5017   13.8716  -40.0062 H   0  0  0  0  0  0  0  0  0  0  0  0
  -11.2352   14.6474  -40.1379 H   0  0  0  0  0  0  0  0  0  0  0  0
  -11.8490   16.2777  -40.3788 H   0  0  0  0  0  0  0  0  0  0  0  0
  -11.0505   13.0629  -38.6911 H   0  0  0  0  0  0  0  0  0  0  0  0
  -11.1604   12.4905  -37.0445 H   0  0  0  0  0  0  0  0  0  0  0  0
  -13.6674   14.3001  -36.3566 H   0  0  0  0  0  0  0  0  0  0  0  0
  -13.3754   13.1661  -37.6874 H   0  0  0  0  0  0  0  0  0  0  0  0
   -7.9862   15.9735  -36.0557 H   0  0  0  0  0  0  0  0  0  0  0  0
   -9.1574   16.7854  -37.0930 H   0  0  0  0  0  0  0  0  0  0  0  0
  -14.8708   15.3863  -38.1559 H   0  0  0  0  0  0  0  0  0  0  0  0
  -10.9030   16.5151  -38.1562 H   0  0  0  0  0  0  0  0  0  0  0  0
   -9.7782   15.7656  -34.7037 H   0  0  0  0  0  0  0  0  0  0  0  0
  1 11  1  0  0  0  0
  1 12  1  0  0  0  0
  1 13  2  0  0  0  0
  2  3  1  0  0  0  0
  2  6  1  0  0  0  0
  3  8  1  0  0  0  0
  4  5  1  0  0  0  0
  4  9  1  0  0  0  0
  5 10  1  0  0  0  0
  6 11  1  0  0  0  0
  7  9  1  0  0  0  0
  7 11  1  0  0  0  0
  8 12  1  0  0  0  0
  9 14  1  0  0  0  0
 10 11  1  0  0  0  0
 10 14  1  0  0  0  0
  2 15  1  0  0  0  0
  2 16  1  0  0  0  0
  3 17  1  0  0  0  0
  3 18  1  0  0  0  0
  4 19  1  0  0  0  0
  4 20  1  0  0  0  0
  5 21  1  0  0  0  0
  5 22  1  0  0  0  0
  6 23  1  0  0  0  0
  6 24  1  0  0  0  0
  7 25  1  0  0  0  0
  7 26  1  0  0  0  0
  8 27  1  0  0  0  0
  8 28  1  0  0  0  0
  9 29  1  0  0  0  0
 10 30  1  0  0  0  0
 12 31  1  0  0  0  0
M  END
> <id>
EN300-1153651

> <smiles>
O=C1NCCCCC21CC3CCC2O3

> <IUPAC Name>
7'-oxaspiro[azepane-3,2'-bicyclo[2.2.1]heptane]-2-one

> <CAS>
2138037-29-1

> <URL>
https://www.enaminestore.com/catalog/EN300-1153651

> <ROCS_ShapeQuery>
_x1247relevant_x1083L0AP1_x1305L0BP1_

> <ROCS_TanimotoCombo>
1.026 

> <ROCS_ShapeTanimoto>
0.514 

> <ROCS_ColorTanimoto>
0.512 

> <ROCS_RefTversky>
0.440 

> <ROCS_RefColorTversky>
0.698 

> <ROCS_RefTverskyCombo>
1.137 

> <ROCS_FitTversky>
1.489 

> <ROCS_FitColorTversky>
0.658 

> <ROCS_FitTverskyCombo>
2.147 

> <ROCS_ColorScore>
-6.765

> <ROCS_Overlap>
1084.256

> <ROCS_Rank>
325                 

$$$$
untitled-dbase-50727_0
  -OEChem-06232314403D

 28 29  0     1  0  0  0  0  0999 V2000
  -13.5133   16.4955  -37.8481 C   0  0  0  0  0  0  0  0  0  0  0  0
  -13.7793   14.1877  -38.7364 C   0  0  0  0  0  0  0  0  0  0  0  0
  -12.3842   16.0335  -36.9198 C   0  0  0  0  0  0  0  0  0  0  0  0
  -12.6676   13.6854  -37.8078 C   0  0  0  0  0  0  0  0  0  0  0  0
  -12.0655   15.6798  -39.7492 C   0  0  1  0  0  0  0  0  0  0  0  0
  -13.4904   15.6518  -39.1379 C   0  0  0  0  0  0  0  0  0  0  0  0
  -11.6655   14.8197  -37.5348 C   0  0  0  0  0  0  0  0  0  0  0  0
  -11.6032   17.0442  -40.2559 C   0  0  0  0  0  0  0  0  0  0  0  0
  -10.5291   14.3439  -36.6356 C   0  0  0  0  0  0  0  0  0  0  0  0
  -14.5040   16.1275  -40.0736 N   0  0  0  0  0  0  0  0  0  0  0  0
  -11.0886   15.2284  -38.7889 O   0  0  0  0  0  0  0  0  0  0  0  0
  -14.4769   16.3906  -37.3322 H   0  0  0  0  0  0  0  0  0  0  0  0
  -13.4014   17.5652  -38.0636 H   0  0  0  0  0  0  0  0  0  0  0  0
  -13.8346   13.5415  -39.6221 H   0  0  0  0  0  0  0  0  0  0  0  0
  -14.7501   14.1029  -38.2310 H   0  0  0  0  0  0  0  0  0  0  0  0
  -11.6767   16.8622  -36.7902 H   0  0  0  0  0  0  0  0  0  0  0  0
  -12.7886   15.7936  -35.9294 H   0  0  0  0  0  0  0  0  0  0  0  0
  -13.1011   13.3089  -36.8738 H   0  0  0  0  0  0  0  0  0  0  0  0
  -12.1597   12.8430  -38.2942 H   0  0  0  0  0  0  0  0  0  0  0  0
  -12.0157   14.9796  -40.5934 H   0  0  0  0  0  0  0  0  0  0  0  0
  -11.6380   17.7704  -39.4454 H   0  0  0  0  0  0  0  0  0  0  0  0
  -12.2540   17.3786  -41.0622 H   0  0  0  0  0  0  0  0  0  0  0  0
  -10.5822   16.9735  -40.6277 H   0  0  0  0  0  0  0  0  0  0  0  0
  -10.0331   13.4853  -37.0871 H   0  0  0  0  0  0  0  0  0  0  0  0
  -10.9227   14.0547  -35.6617 H   0  0  0  0  0  0  0  0  0  0  0  0
   -9.8020   15.1441  -36.5015 H   0  0  0  0  0  0  0  0  0  0  0  0
  -15.3926   16.0474  -39.6380 H   0  0  0  0  0  0  0  0  0  0  0  0
  -14.3055   17.0756  -40.2919 H   0  0  0  0  0  0  0  0  0  0  0  0
  1  3  1  0  0  0  0
  1  6  1  0  0  0  0
  2  4  1  0  0  0  0
  2  6  1  0  0  0  0
  3  7  1  0  0  0  0
  4  7  1  0  0  0  0
  5  6  1  0  0  0  0
  5  8  1  0  0  0  0
  5 11  1  0  0  0  0
  6 10  1  0  0  0  0
  7  9  1  0  0  0  0
  7 11  1  0  0  0  0
  1 12  1  0  0  0  0
  1 13  1  0  0  0  0
  2 14  1  0  0  0  0
  2 15  1  0  0  0  0
  3 16  1  0  0  0  0
  3 17  1  0  0  0  0
  4 18  1  0  0  0  0
  4 19  1  0  0  0  0
  5 20  1  0  0  0  0
  8 21  1  0  0  0  0
  8 22  1  0  0  0  0
  8 23  1  0  0  0  0
  9 24  1  0  0  0  0
  9 25  1  0  0  0  0
  9 26  1  0  0  0  0
 10 27  1  0  0  0  0
 10 28  1  0  0  0  0
M  END
> <id>
EN300-39854418

> <smiles>
CC1OC2(C)CCC1(N)CC2

> <IUPAC Name>
1,3-dimethyl-2-oxabicyclo[2.2.2]octan-4-amine

> <URL>
https://www.enaminestore.com/catalog/EN300-39854418

> <ROCS_ShapeQuery>
_x1247relevant_x1083L0AP1_x1305L0BP1_

> <ROCS_TanimotoCombo>
1.025 

> <ROCS_ShapeTanimoto>
0.482 

> <ROCS_ColorTanimoto>
0.543 

> <ROCS_RefTversky>
0.403 

> <ROCS_RefColorTversky>
0.683 

> <ROCS_RefTverskyCombo>
1.086 

> <ROCS_FitTversky>
1.693 

> <ROCS_FitColorTversky>
0.726 

> <ROCS_FitTverskyCombo>
2.418 

> <ROCS_ColorScore>
-6.581

> <ROCS_Overlap>
989.853

> <ROCS_Rank>
326                 

$$$$
untitled-dbase-48520_0
  -OEChem-06232314403D

 28 29  0     1  0  0  0  0  0999 V2000
  -13.5133   16.4955  -37.8481 C   0  0  0  0  0  0  0  0  0  0  0  0
  -13.7793   14.1877  -38.7364 C   0  0  0  0  0  0  0  0  0  0  0  0
  -12.3842   16.0335  -36.9198 C   0  0  0  0  0  0  0  0  0  0  0  0
  -12.6676   13.6854  -37.8078 C   0  0  0  0  0  0  0  0  0  0  0  0
  -12.0655   15.6798  -39.7492 C   0  0  1  0  0  0  0  0  0  0  0  0
  -13.4904   15.6518  -39.1379 C   0  0  0  0  0  0  0  0  0  0  0  0
  -11.6655   14.8197  -37.5348 C   0  0  0  0  0  0  0  0  0  0  0  0
  -11.6032   17.0442  -40.2559 C   0  0  0  0  0  0  0  0  0  0  0  0
  -10.5291   14.3439  -36.6356 C   0  0  0  0  0  0  0  0  0  0  0  0
  -14.5040   16.1275  -40.0736 N   0  0  0  0  0  0  0  0  0  0  0  0
  -11.0886   15.2284  -38.7889 O   0  0  0  0  0  0  0  0  0  0  0  0
  -14.4769   16.3906  -37.3322 H   0  0  0  0  0  0  0  0  0  0  0  0
  -13.4014   17.5652  -38.0636 H   0  0  0  0  0  0  0  0  0  0  0  0
  -13.8346   13.5415  -39.6221 H   0  0  0  0  0  0  0  0  0  0  0  0
  -14.7501   14.1029  -38.2310 H   0  0  0  0  0  0  0  0  0  0  0  0
  -11.6767   16.8622  -36.7902 H   0  0  0  0  0  0  0  0  0  0  0  0
  -12.7886   15.7936  -35.9294 H   0  0  0  0  0  0  0  0  0  0  0  0
  -13.1011   13.3089  -36.8738 H   0  0  0  0  0  0  0  0  0  0  0  0
  -12.1597   12.8430  -38.2942 H   0  0  0  0  0  0  0  0  0  0  0  0
  -12.0157   14.9796  -40.5934 H   0  0  0  0  0  0  0  0  0  0  0  0
  -11.6380   17.7704  -39.4454 H   0  0  0  0  0  0  0  0  0  0  0  0
  -12.2540   17.3786  -41.0622 H   0  0  0  0  0  0  0  0  0  0  0  0
  -10.5822   16.9735  -40.6277 H   0  0  0  0  0  0  0  0  0  0  0  0
  -10.0331   13.4853  -37.0871 H   0  0  0  0  0  0  0  0  0  0  0  0
  -10.9227   14.0547  -35.6617 H   0  0  0  0  0  0  0  0  0  0  0  0
   -9.8020   15.1441  -36.5015 H   0  0  0  0  0  0  0  0  0  0  0  0
  -15.3926   16.0474  -39.6380 H   0  0  0  0  0  0  0  0  0  0  0  0
  -14.3055   17.0756  -40.2919 H   0  0  0  0  0  0  0  0  0  0  0  0
  1  3  1  0  0  0  0
  1  6  1  0  0  0  0
  2  4  1  0  0  0  0
  2  6  1  0  0  0  0
  3  7  1  0  0  0  0
  4  7  1  0  0  0  0
  5  6  1  0  0  0  0
  5  8  1  0  0  0  0
  5 11  1  0  0  0  0
  6 10  1  0  0  0  0
  7  9  1  0  0  0  0
  7 11  1  0  0  0  0
  1 12  1  0  0  0  0
  1 13  1  0  0  0  0
  2 14  1  0  0  0  0
  2 15  1  0  0  0  0
  3 16  1  0  0  0  0
  3 17  1  0  0  0  0
  4 18  1  0  0  0  0
  4 19  1  0  0  0  0
  5 20  1  0  0  0  0
  8 21  1  0  0  0  0
  8 22  1  0  0  0  0
  8 23  1  0  0  0  0
  9 24  1  0  0  0  0
  9 25  1  0  0  0  0
  9 26  1  0  0  0  0
 10 27  1  0  0  0  0
 10 28  1  0  0  0  0
M  END
> <id>
EN300-39854417

> <smiles>
Cl.CC1OC2(C)CCC1(N)CC2

> <IUPAC Name>
1,3-dimethyl-2-oxabicyclo[2.2.2]octan-4-amine hydrochloride

> <CAS>
2866335-24-0

> <Purity>
95

> <URL>
https://www.enaminestore.com/catalog/EN300-39854417

> <ROCS_ShapeQuery>
_x1247relevant_x1083L0AP1_x1305L0BP1_

> <ROCS_TanimotoCombo>
1.025 

> <ROCS_ShapeTanimoto>
0.482 

> <ROCS_ColorTanimoto>
0.543 

> <ROCS_RefTversky>
0.403 

> <ROCS_RefColorTversky>
0.683 

> <ROCS_RefTverskyCombo>
1.086 

> <ROCS_FitTversky>
1.693 

> <ROCS_FitColorTversky>
0.726 

> <ROCS_FitTverskyCombo>
2.418 

> <ROCS_ColorScore>
-6.581

> <ROCS_Overlap>
989.853

> <ROCS_Rank>
327                 

$$$$
untitled-dbase-27682_0
  -OEChem-06232314403D

 26 28  0     1  0  0  0  0  0999 V2000
  -13.8494   15.9525  -37.8632 C   0  0  0  0  0  0  0  0  0  0  0  0
  -13.9834   14.6457  -38.1544 C   0  0  0  0  0  0  0  0  0  0  0  0
  -12.0455   16.2337  -39.4915 C   0  0  0  0  0  0  0  0  0  0  0  0
  -12.1994   14.7317  -39.8260 C   0  0  0  0  0  0  0  0  0  0  0  0
  -10.0517   15.8959  -37.0921 C   0  0  0  0  0  0  0  0  0  0  0  0
  -10.2835   13.6369  -37.5952 C   0  0  0  0  0  0  0  0  0  0  0  0
  -12.4341   16.4902  -38.0161 C   0  0  2  0  0  0  0  0  0  0  0  0
  -12.6936   13.9594  -38.5799 C   0  0  1  0  0  0  0  0  0  0  0  0
  -11.5554   15.6448  -37.0603 C   0  0  1  0  0  0  0  0  0  0  0  0
  -11.7100   14.1372  -37.3961 C   0  0  2  0  0  0  0  0  0  0  0  0
   -9.4856   14.5761  -36.8032 N   0  0  0  0  0  0  0  0  0  0  0  0
  -14.6736   16.5777  -37.5449 H   0  0  0  0  0  0  0  0  0  0  0  0
  -14.9257   14.1168  -38.0932 H   0  0  0  0  0  0  0  0  0  0  0  0
  -11.0288   16.5807  -39.7056 H   0  0  0  0  0  0  0  0  0  0  0  0
  -12.7000   16.8164  -40.1550 H   0  0  0  0  0  0  0  0  0  0  0  0
  -12.9253   14.6206  -40.6439 H   0  0  0  0  0  0  0  0  0  0  0  0
  -11.2610   14.3172  -40.2103 H   0  0  0  0  0  0  0  0  0  0  0  0
   -9.6991   16.2917  -38.0407 H   0  0  0  0  0  0  0  0  0  0  0  0
   -9.7652   16.5876  -36.3001 H   0  0  0  0  0  0  0  0  0  0  0  0
  -10.1710   12.6356  -37.1797 H   0  0  0  0  0  0  0  0  0  0  0  0
   -9.9735   13.6160  -38.6365 H   0  0  0  0  0  0  0  0  0  0  0  0
  -12.3878   17.5513  -37.7752 H   0  0  0  0  0  0  0  0  0  0  0  0
  -12.8636   12.9086  -38.8095 H   0  0  0  0  0  0  0  0  0  0  0  0
  -11.9107   15.8142  -36.0187 H   0  0  0  0  0  0  0  0  0  0  0  0
  -12.1360   13.6185  -36.5078 H   0  0  0  0  0  0  0  0  0  0  0  0
   -8.5167   14.5419  -37.0987 H   0  0  0  0  0  0  0  0  0  0  0  0
  1  2  2  0  0  0  0
  1  7  1  0  0  0  0
  2  8  1  0  0  0  0
  3  4  1  0  0  0  0
  3  7  1  6  0  0  0
  4  8  1  6  0  0  0
  5  9  1  6  0  0  0
  5 11  1  0  0  0  0
  6 10  1  6  0  0  0
  6 11  1  0  0  0  0
  7  9  1  0  0  0  0
  8 10  1  0  0  0  0
  9 10  1  0  0  0  0
  1 12  1  0  0  0  0
  2 13  1  0  0  0  0
  3 14  1  0  0  0  0
  3 15  1  0  0  0  0
  4 16  1  0  0  0  0
  4 17  1  0  0  0  0
  5 18  1  0  0  0  0
  5 19  1  0  0  0  0
  6 20  1  0  0  0  0
  6 21  1  0  0  0  0
  7 22  1  0  0  0  0
  8 23  1  0  0  0  0
  9 24  1  0  0  0  0
 10 25  1  0  0  0  0
 11 26  1  0  0  0  0
M  END
> <id>
EN300-7462469

> <smiles>
Cl.C1NC[C@@H]2[C@H]1[C@@H]3CC[C@H]2C=C3

> <MDLNUMBER>
MFCD32203335

> <IUPAC Name>
(1R,2R,6S,7S)-4-azatricyclo[5.2.2.0,2,6]undec-8-ene hydrochloride

> <CAS>
312728-68-0

> <Purity>
95

> <URL>
https://www.enaminestore.com/catalog/EN300-7462469

> <Saltdate>
Cl

> <ROCS_ShapeQuery>
_x1247relevant_x1083L0AP1_x1305L0BP1_

> <ROCS_TanimotoCombo>
1.025 

> <ROCS_ShapeTanimoto>
0.481 

> <ROCS_ColorTanimoto>
0.545 

> <ROCS_RefTversky>
0.404 

> <ROCS_RefColorTversky>
0.686 

> <ROCS_RefTverskyCombo>
1.090 

> <ROCS_FitTversky>
1.658 

> <ROCS_FitColorTversky>
0.725 

> <ROCS_FitTverskyCombo>
2.384 

> <ROCS_ColorScore>
-6.612

> <ROCS_Overlap>
992.082

> <ROCS_Rank>
328                 

$$$$
untitled-dbase-31749_0
  -OEChem-06232314403D

 26 28  0     1  0  0  0  0  0999 V2000
  -13.8494   15.9525  -37.8632 C   0  0  0  0  0  0  0  0  0  0  0  0
  -13.9834   14.6457  -38.1544 C   0  0  0  0  0  0  0  0  0  0  0  0
  -12.0455   16.2337  -39.4915 C   0  0  0  0  0  0  0  0  0  0  0  0
  -12.1994   14.7317  -39.8260 C   0  0  0  0  0  0  0  0  0  0  0  0
  -10.0517   15.8959  -37.0921 C   0  0  0  0  0  0  0  0  0  0  0  0
  -10.2835   13.6369  -37.5952 C   0  0  0  0  0  0  0  0  0  0  0  0
  -12.4341   16.4902  -38.0161 C   0  0  2  0  0  0  0  0  0  0  0  0
  -12.6936   13.9594  -38.5799 C   0  0  1  0  0  0  0  0  0  0  0  0
  -11.5554   15.6448  -37.0603 C   0  0  1  0  0  0  0  0  0  0  0  0
  -11.7100   14.1372  -37.3961 C   0  0  2  0  0  0  0  0  0  0  0  0
   -9.4856   14.5761  -36.8032 N   0  0  0  0  0  0  0  0  0  0  0  0
  -14.6736   16.5777  -37.5449 H   0  0  0  0  0  0  0  0  0  0  0  0
  -14.9257   14.1168  -38.0932 H   0  0  0  0  0  0  0  0  0  0  0  0
  -11.0288   16.5807  -39.7056 H   0  0  0  0  0  0  0  0  0  0  0  0
  -12.7000   16.8164  -40.1550 H   0  0  0  0  0  0  0  0  0  0  0  0
  -12.9253   14.6206  -40.6439 H   0  0  0  0  0  0  0  0  0  0  0  0
  -11.2610   14.3172  -40.2103 H   0  0  0  0  0  0  0  0  0  0  0  0
   -9.6991   16.2917  -38.0407 H   0  0  0  0  0  0  0  0  0  0  0  0
   -9.7652   16.5876  -36.3001 H   0  0  0  0  0  0  0  0  0  0  0  0
  -10.1710   12.6356  -37.1797 H   0  0  0  0  0  0  0  0  0  0  0  0
   -9.9735   13.6160  -38.6365 H   0  0  0  0  0  0  0  0  0  0  0  0
  -12.3878   17.5513  -37.7752 H   0  0  0  0  0  0  0  0  0  0  0  0
  -12.8636   12.9086  -38.8095 H   0  0  0  0  0  0  0  0  0  0  0  0
  -11.9107   15.8142  -36.0187 H   0  0  0  0  0  0  0  0  0  0  0  0
  -12.1360   13.6185  -36.5078 H   0  0  0  0  0  0  0  0  0  0  0  0
   -8.5167   14.5419  -37.0987 H   0  0  0  0  0  0  0  0  0  0  0  0
  1  2  2  0  0  0  0
  1  7  1  0  0  0  0
  2  8  1  0  0  0  0
  3  4  1  0  0  0  0
  3  7  1  6  0  0  0
  4  8  1  6  0  0  0
  5  9  1  6  0  0  0
  5 11  1  0  0  0  0
  6 10  1  6  0  0  0
  6 11  1  0  0  0  0
  7  9  1  0  0  0  0
  8 10  1  0  0  0  0
  9 10  1  0  0  0  0
  1 12  1  0  0  0  0
  2 13  1  0  0  0  0
  3 14  1  0  0  0  0
  3 15  1  0  0  0  0
  4 16  1  0  0  0  0
  4 17  1  0  0  0  0
  5 18  1  0  0  0  0
  5 19  1  0  0  0  0
  6 20  1  0  0  0  0
  6 21  1  0  0  0  0
  7 22  1  0  0  0  0
  8 23  1  0  0  0  0
  9 24  1  0  0  0  0
 10 25  1  0  0  0  0
 11 26  1  0  0  0  0
M  END
> <id>
EN300-7462470

> <smiles>
C1NC[C@@H]2[C@H]1[C@@H]3CC[C@H]2C=C3

> <MDLNUMBER>
MFCD32203045

> <IUPAC Name>
(1R,2R,6S,7S)-4-azatricyclo[5.2.2.0,2,6]undec-8-ene

> <CAS>
791575-52-5

> <URL>
https://www.enaminestore.com/catalog/EN300-7462470

> <ROCS_ShapeQuery>
_x1247relevant_x1083L0AP1_x1305L0BP1_

> <ROCS_TanimotoCombo>
1.025 

> <ROCS_ShapeTanimoto>
0.481 

> <ROCS_ColorTanimoto>
0.545 

> <ROCS_RefTversky>
0.404 

> <ROCS_RefColorTversky>
0.686 

> <ROCS_RefTverskyCombo>
1.090 

> <ROCS_FitTversky>
1.658 

> <ROCS_FitColorTversky>
0.725 

> <ROCS_FitTverskyCombo>
2.384 

> <ROCS_ColorScore>
-6.612

> <ROCS_Overlap>
992.082

> <ROCS_Rank>
329                 

$$$$
untitled-dbase-26953_0
  -OEChem-06232314403D

 17 18  0     1  0  0  0  0  0999 V2000
  -13.5724   14.7440  -37.2818 C   0  0  0  0  0  0  0  0  0  0  0  0
  -13.7648   16.0022  -37.7046 C   0  0  0  0  0  0  0  0  0  0  0  0
  -11.2556   14.7124  -38.0825 C   0  0  0  0  0  0  0  0  0  0  0  0
  -11.4794   16.1760  -38.5741 C   0  0  0  0  0  0  0  0  0  0  0  0
  -12.6518   14.0740  -38.2798 C   0  0  2  0  0  0  0  0  0  0  0  0
  -12.9721   16.1691  -38.9836 C   0  0  1  0  0  0  0  0  0  0  0  0
  -13.0736   14.7640  -39.5772 C   0  0  0  0  0  0  0  0  0  0  0  0
  -14.8261   14.2768  -40.2305 Br  0  0  0  0  0  0  0  0  0  0  0  0
  -13.9542   14.3068  -36.3732 H   0  0  0  0  0  0  0  0  0  0  0  0
  -14.3310   16.7691  -37.2010 H   0  0  0  0  0  0  0  0  0  0  0  0
  -10.5038   14.2177  -38.7078 H   0  0  0  0  0  0  0  0  0  0  0  0
  -10.9162   14.6814  -37.0415 H   0  0  0  0  0  0  0  0  0  0  0  0
  -11.2564   16.9064  -37.7888 H   0  0  0  0  0  0  0  0  0  0  0  0
  -10.8353   16.3842  -39.4359 H   0  0  0  0  0  0  0  0  0  0  0  0
  -12.6878   12.9839  -38.2750 H   0  0  0  0  0  0  0  0  0  0  0  0
  -13.3002   16.9910  -39.6212 H   0  0  0  0  0  0  0  0  0  0  0  0
  -12.3800   14.5907  -40.4083 H   0  0  0  0  0  0  0  0  0  0  0  0
  1  2  2  0  0  0  0
  1  5  1  0  0  0  0
  2  6  1  0  0  0  0
  3  4  1  0  0  0  0
  3  5  1  0  0  0  0
  4  6  1  0  0  0  0
  5  7  1  0  0  0  0
  6  7  1  0  0  0  0
  7  8  1  0  0  0  0
  1  9  1  0  0  0  0
  2 10  1  0  0  0  0
  3 11  1  0  0  0  0
  3 12  1  0  0  0  0
  4 13  1  0  0  0  0
  4 14  1  0  0  0  0
  5 15  1  0  0  0  0
  6 16  1  0  0  0  0
  7 17  1  0  0  0  0
M  END
> <id>
EN300-6759302

> <smiles>
BrC1C2CCC1C=C2

> <MDLNUMBER>
MFCD20542801

> <IUPAC Name>
7-bromobicyclo[2.2.1]hept-2-ene

> <CAS>
60154-55-4

> <Purity>
95

> <URL>
https://www.enaminestore.com/catalog/EN300-6759302

> <ROCS_ShapeQuery>
_x1247relevant_x1083L0AP1_x1305L0BP1_

> <ROCS_TanimotoCombo>
1.025 

> <ROCS_ShapeTanimoto>
0.378 

> <ROCS_ColorTanimoto>
0.647 

> <ROCS_RefTversky>
0.325 

> <ROCS_RefColorTversky>
0.701 

> <ROCS_RefTverskyCombo>
1.026 

> <ROCS_FitTversky>
1.756 

> <ROCS_FitColorTversky>
0.894 

> <ROCS_FitTverskyCombo>
2.650 

> <ROCS_ColorScore>
-6.700

> <ROCS_Overlap>
796.176

> <ROCS_Rank>
330                 

$$$$
untitled-dbase-47104_0
  -OEChem-06232314403D

 25 27  0     0  0  0  0  0  0999 V2000
  -10.9480   13.6414  -36.3325 C   0  0  0  0  0  0  0  0  0  0  0  0
   -9.5929   13.7440  -36.0226 C   0  0  0  0  0  0  0  0  0  0  0  0
   -9.4251   15.6115  -37.5205 C   0  0  0  0  0  0  0  0  0  0  0  0
  -11.5871   14.5161  -37.2422 C   0  0  0  0  0  0  0  0  0  0  0  0
  -10.7921   15.5141  -37.8590 C   0  0  0  0  0  0  0  0  0  0  0  0
   -8.8299   14.7361  -36.6153 C   0  0  0  0  0  0  0  0  0  0  0  0
  -13.9707   15.6800  -37.6974 C   0  0  0  0  0  0  0  0  0  0  0  0
  -13.5594   14.0186  -38.9612 C   0  0  0  0  0  0  0  0  0  0  0  0
  -12.3755   16.1986  -39.7319 C   0  0  0  0  0  0  0  0  0  0  0  0
  -13.1484   14.3700  -37.5076 C   0  0  0  0  0  0  0  0  0  0  0  0
  -13.6515   15.5461  -39.2076 C   0  0  0  0  0  0  0  0  0  0  0  0
  -11.2904   16.4214  -38.7867 N   0  0  0  0  0  0  0  0  0  0  0  0
   -6.9938   14.8987  -36.2029 Br  0  0  0  0  0  0  0  0  0  0  0  0
  -11.5332   12.8625  -35.8465 H   0  0  0  0  0  0  0  0  0  0  0  0
   -9.1563   13.0457  -35.3138 H   0  0  0  0  0  0  0  0  0  0  0  0
   -8.8191   16.3864  -37.9895 H   0  0  0  0  0  0  0  0  0  0  0  0
  -15.0359   15.5674  -37.4597 H   0  0  0  0  0  0  0  0  0  0  0  0
  -13.6015   16.5762  -37.1913 H   0  0  0  0  0  0  0  0  0  0  0  0
  -12.8264   13.4695  -39.5589 H   0  0  0  0  0  0  0  0  0  0  0  0
  -14.5228   13.4987  -39.0329 H   0  0  0  0  0  0  0  0  0  0  0  0
  -11.9912   15.6230  -40.5827 H   0  0  0  0  0  0  0  0  0  0  0  0
  -12.6413   17.1826  -40.1373 H   0  0  0  0  0  0  0  0  0  0  0  0
  -13.6155   13.7019  -36.7710 H   0  0  0  0  0  0  0  0  0  0  0  0
  -14.4947   15.8098  -39.8588 H   0  0  0  0  0  0  0  0  0  0  0  0
  -10.6670   17.1872  -39.0256 H   0  0  0  0  0  0  0  0  0  0  0  0
  1  2  1  0  0  0  0
  1  4  2  0  0  0  0
  2  6  2  0  0  0  0
  3  5  2  0  0  0  0
  3  6  1  0  0  0  0
  4  5  1  0  0  0  0
  4 10  1  0  0  0  0
  5 12  1  0  0  0  0
  6 13  1  0  0  0  0
  7 10  1  1  0  0  0
  7 11  1  1  0  0  0
  8 10  1  0  0  0  0
  8 11  1  0  0  0  0
  9 11  1  0  0  0  0
  9 12  1  0  0  0  0
  1 14  1  0  0  0  0
  2 15  1  0  0  0  0
  3 16  1  0  0  0  0
  7 17  1  0  0  0  0
  7 18  1  0  0  0  0
  8 19  1  0  0  0  0
  8 20  1  0  0  0  0
  9 21  1  0  0  0  0
  9 22  1  0  0  0  0
 10 23  1  0  0  0  0
 11 24  1  0  0  0  0
 12 25  1  0  0  0  0
M  END
> <id>
EN300-37468200

> <smiles>
Cl.BrC=1C=CC=2[C@H]3C[C@H](C3)CNC2C1

> <IUPAC Name>
(1s,10s)-5-bromo-8-azatricyclo[8.1.1.0,2,7]dodeca-2,4,6-triene hydrochloride

> <URL>
https://www.enaminestore.com/catalog/EN300-37468200

> <ROCS_ShapeQuery>
_x1247relevant_x1083L0AP1_x1305L0BP1_

> <ROCS_TanimotoCombo>
1.025 

> <ROCS_ShapeTanimoto>
0.498 

> <ROCS_ColorTanimoto>
0.527 

> <ROCS_RefTversky>
0.423 

> <ROCS_RefColorTversky>
0.655 

> <ROCS_RefTverskyCombo>
1.078 

> <ROCS_FitTversky>
1.554 

> <ROCS_FitColorTversky>
0.729 

> <ROCS_FitTverskyCombo>
2.283 

> <ROCS_ColorScore>
-6.291

> <ROCS_Overlap>
1041.296

> <ROCS_Rank>
331                 

$$$$
untitled-dbase-42211_0
  -OEChem-06232314403D

 25 27  0     0  0  0  0  0  0999 V2000
  -10.9480   13.6414  -36.3325 C   0  0  0  0  0  0  0  0  0  0  0  0
   -9.5929   13.7440  -36.0226 C   0  0  0  0  0  0  0  0  0  0  0  0
   -9.4251   15.6115  -37.5205 C   0  0  0  0  0  0  0  0  0  0  0  0
  -11.5871   14.5161  -37.2422 C   0  0  0  0  0  0  0  0  0  0  0  0
  -10.7921   15.5141  -37.8590 C   0  0  0  0  0  0  0  0  0  0  0  0
   -8.8299   14.7361  -36.6153 C   0  0  0  0  0  0  0  0  0  0  0  0
  -13.9707   15.6800  -37.6974 C   0  0  0  0  0  0  0  0  0  0  0  0
  -13.5594   14.0186  -38.9612 C   0  0  0  0  0  0  0  0  0  0  0  0
  -12.3755   16.1986  -39.7319 C   0  0  0  0  0  0  0  0  0  0  0  0
  -13.1484   14.3700  -37.5076 C   0  0  0  0  0  0  0  0  0  0  0  0
  -13.6515   15.5461  -39.2076 C   0  0  0  0  0  0  0  0  0  0  0  0
  -11.2904   16.4214  -38.7867 N   0  0  0  0  0  0  0  0  0  0  0  0
   -6.9938   14.8987  -36.2029 Br  0  0  0  0  0  0  0  0  0  0  0  0
  -11.5332   12.8625  -35.8465 H   0  0  0  0  0  0  0  0  0  0  0  0
   -9.1563   13.0457  -35.3138 H   0  0  0  0  0  0  0  0  0  0  0  0
   -8.8191   16.3864  -37.9895 H   0  0  0  0  0  0  0  0  0  0  0  0
  -15.0359   15.5674  -37.4597 H   0  0  0  0  0  0  0  0  0  0  0  0
  -13.6015   16.5762  -37.1913 H   0  0  0  0  0  0  0  0  0  0  0  0
  -12.8264   13.4695  -39.5589 H   0  0  0  0  0  0  0  0  0  0  0  0
  -14.5228   13.4987  -39.0329 H   0  0  0  0  0  0  0  0  0  0  0  0
  -11.9912   15.6230  -40.5827 H   0  0  0  0  0  0  0  0  0  0  0  0
  -12.6413   17.1826  -40.1373 H   0  0  0  0  0  0  0  0  0  0  0  0
  -13.6155   13.7019  -36.7710 H   0  0  0  0  0  0  0  0  0  0  0  0
  -14.4947   15.8098  -39.8588 H   0  0  0  0  0  0  0  0  0  0  0  0
  -10.6670   17.1872  -39.0256 H   0  0  0  0  0  0  0  0  0  0  0  0
  1  2  1  0  0  0  0
  1  4  2  0  0  0  0
  2  6  2  0  0  0  0
  3  5  2  0  0  0  0
  3  6  1  0  0  0  0
  4  5  1  0  0  0  0
  4 10  1  0  0  0  0
  5 12  1  0  0  0  0
  6 13  1  0  0  0  0
  7 10  1  1  0  0  0
  7 11  1  1  0  0  0
  8 10  1  0  0  0  0
  8 11  1  0  0  0  0
  9 11  1  0  0  0  0
  9 12  1  0  0  0  0
  1 14  1  0  0  0  0
  2 15  1  0  0  0  0
  3 16  1  0  0  0  0
  7 17  1  0  0  0  0
  7 18  1  0  0  0  0
  8 19  1  0  0  0  0
  8 20  1  0  0  0  0
  9 21  1  0  0  0  0
  9 22  1  0  0  0  0
 10 23  1  0  0  0  0
 11 24  1  0  0  0  0
 12 25  1  0  0  0  0
M  END
> <id>
EN300-39870194

> <smiles>
BrC=1C=CC=2[C@H]3C[C@H](C3)CNC2C1

> <IUPAC Name>
(1s,10s)-5-bromo-8-azatricyclo[8.1.1.0,2,7]dodeca-2,4,6-triene

> <URL>
https://www.enaminestore.com/catalog/EN300-39870194

> <ROCS_ShapeQuery>
_x1247relevant_x1083L0AP1_x1305L0BP1_

> <ROCS_TanimotoCombo>
1.025 

> <ROCS_ShapeTanimoto>
0.498 

> <ROCS_ColorTanimoto>
0.527 

> <ROCS_RefTversky>
0.423 

> <ROCS_RefColorTversky>
0.655 

> <ROCS_RefTverskyCombo>
1.078 

> <ROCS_FitTversky>
1.554 

> <ROCS_FitColorTversky>
0.729 

> <ROCS_FitTverskyCombo>
2.283 

> <ROCS_ColorScore>
-6.291

> <ROCS_Overlap>
1041.296

> <ROCS_Rank>
332                 

$$$$
untitled-dbase-16814_0
  -OEChem-06232314403D

 31 32  0     1  0  0  0  0  0999 V2000
  -15.2353   13.7125  -40.5474 C   0  0  0  0  0  0  0  0  0  0  0  0
  -14.6046   14.5742  -39.9991 C   0  0  0  0  0  0  0  0  0  0  0  0
  -12.2182   13.9777  -37.4988 C   0  0  0  0  0  0  0  0  0  0  0  0
  -11.9252   13.9866  -39.0081 C   0  0  0  0  0  0  0  0  0  0  0  0
  -14.0625   15.6195  -37.7946 C   0  0  0  0  0  0  0  0  0  0  0  0
  -12.6318   15.4393  -37.2184 C   0  0  2  0  0  0  0  0  0  0  0  0
  -13.8305   15.6309  -39.3267 C   0  0  1  0  0  0  0  0  0  0  0  0
  -12.2704   15.4516  -39.4222 C   0  0  1  0  0  0  0  0  0  0  0  0
  -11.7391   16.2591  -38.1837 C   0  0  0  0  0  0  0  0  0  0  0  0
  -11.6600   15.8299  -40.7630 C   0  0  0  0  0  0  0  0  0  0  0  0
  -10.2240   16.1260  -37.9084 C   0  0  0  0  0  0  0  0  0  0  0  0
  -12.0232   17.7744  -38.1611 C   0  0  0  0  0  0  0  0  0  0  0  0
  -14.2578   16.8822  -39.8553 O   0  0  0  0  0  0  0  0  0  0  0  0
  -15.7951   12.9481  -41.0337 H   0  0  0  0  0  0  0  0  0  0  0  0
  -13.0069   13.2629  -37.2417 H   0  0  0  0  0  0  0  0  0  0  0  0
  -11.3248   13.6971  -36.9308 H   0  0  0  0  0  0  0  0  0  0  0  0
  -10.8740   13.7435  -39.2000 H   0  0  0  0  0  0  0  0  0  0  0  0
  -12.5095   13.2285  -39.5385 H   0  0  0  0  0  0  0  0  0  0  0  0
  -14.7205   14.8074  -37.4627 H   0  0  0  0  0  0  0  0  0  0  0  0
  -14.5057   16.5577  -37.4423 H   0  0  0  0  0  0  0  0  0  0  0  0
  -12.5595   15.7108  -36.1625 H   0  0  0  0  0  0  0  0  0  0  0  0
  -11.9222   16.8576  -41.0182 H   0  0  0  0  0  0  0  0  0  0  0  0
  -12.0327   15.1673  -41.5454 H   0  0  0  0  0  0  0  0  0  0  0  0
  -10.5733   15.7449  -40.7181 H   0  0  0  0  0  0  0  0  0  0  0  0
   -9.6827   16.7289  -38.6265 H   0  0  0  0  0  0  0  0  0  0  0  0
   -9.9395   15.0861  -38.0080 H   0  0  0  0  0  0  0  0  0  0  0  0
  -10.0184   16.4722  -36.9034 H   0  0  0  0  0  0  0  0  0  0  0  0
  -11.3597   18.2700  -38.8604 H   0  0  0  0  0  0  0  0  0  0  0  0
  -11.8514   18.1524  -37.1599 H   0  0  0  0  0  0  0  0  0  0  0  0
  -13.0545   17.9460  -38.4475 H   0  0  0  0  0  0  0  0  0  0  0  0
  -15.2059   16.9550  -39.6637 H   0  0  0  0  0  0  0  0  0  0  0  0
  1  2  3  0  0  0  0
  2  7  1  0  0  0  0
  3  4  1  0  0  0  0
  3  6  1  6  0  0  0
  4  8  1  0  0  0  0
  5  6  1  0  0  0  0
  5  7  1  0  0  0  0
  6  9  1  0  0  0  0
  7  8  1  0  0  0  0
  7 13  1  0  0  0  0
  8  9  1  0  0  0  0
  8 10  1  1  0  0  0
  9 11  1  0  0  0  0
  9 12  1  0  0  0  0
  1 14  1  0  0  0  0
  3 15  1  0  0  0  0
  3 16  1  0  0  0  0
  4 17  1  0  0  0  0
  4 18  1  0  0  0  0
  5 19  1  0  0  0  0
  5 20  1  0  0  0  0
  6 21  1  0  0  0  0
 10 22  1  0  0  0  0
 10 23  1  0  0  0  0
 10 24  1  0  0  0  0
 11 25  1  0  0  0  0
 11 26  1  0  0  0  0
 11 27  1  0  0  0  0
 12 28  1  0  0  0  0
 12 29  1  0  0  0  0
 12 30  1  0  0  0  0
 13 31  1  0  0  0  0
M  END
> <id>
EN300-1273432

> <smiles>
CC1(C)[C@@H]2CC[C@@]1(C)C(O)(C2)C#C

> <IUPAC Name>
(1R,4R)-2-ethynyl-1,7,7-trimethylbicyclo[2.2.1]heptan-2-ol

> <CAS>
1075216-42-0

> <URL>
https://www.enaminestore.com/catalog/EN300-1273432

> <ROCS_ShapeQuery>
_x1247relevant_x1083L0AP1_x1305L0BP1_

> <ROCS_TanimotoCombo>
1.025 

> <ROCS_ShapeTanimoto>
0.474 

> <ROCS_ColorTanimoto>
0.551 

> <ROCS_RefTversky>
0.409 

> <ROCS_RefColorTversky>
0.731 

> <ROCS_RefTverskyCombo>
1.139 

> <ROCS_FitTversky>
1.504 

> <ROCS_FitColorTversky>
0.691 

> <ROCS_FitTverskyCombo>
2.196 

> <ROCS_ColorScore>
-7.085

> <ROCS_Overlap>
1006.419

> <ROCS_Rank>
333                 

$$$$
untitled-dbase-8155_0
  -OEChem-06232314403D

 19 20  0     1  0  0  0  0  0999 V2000
  -11.2836   14.4319  -38.2987 C   0  0  0  0  0  0  0  0  0  0  0  0
  -13.0872   15.0435  -36.7031 C   0  0  0  0  0  0  0  0  0  0  0  0
  -14.1130   14.4626  -37.6932 C   0  0  0  0  0  0  0  0  0  0  0  0
  -12.1303   16.5774  -38.4438 C   0  0  0  0  0  0  0  0  0  0  0  0
  -11.8097   15.5244  -37.4004 C   0  0  2  0  0  0  0  0  0  0  0  0
  -12.7763   15.6958  -39.4928 C   0  0  2  0  0  0  0  0  0  0  0  0
  -14.1759   15.2645  -39.0070 C   0  0  1  0  0  0  0  0  0  0  0  0
  -10.5102   13.5426  -37.9843 O   0  0  0  0  0  0  0  0  0  0  0  0
  -11.8765   14.5681  -39.5338 O   0  0  0  0  0  0  0  0  0  0  0  0
  -15.1813   14.1120  -40.5330 I   0  0  0  0  0  0  0  0  0  0  0  0
  -13.5427   15.8857  -36.1678 H   0  0  0  0  0  0  0  0  0  0  0  0
  -12.8453   14.2800  -35.9543 H   0  0  0  0  0  0  0  0  0  0  0  0
  -13.8377   13.4189  -37.8959 H   0  0  0  0  0  0  0  0  0  0  0  0
  -15.1024   14.4232  -37.2211 H   0  0  0  0  0  0  0  0  0  0  0  0
  -12.7756   17.3832  -38.0815 H   0  0  0  0  0  0  0  0  0  0  0  0
  -11.2040   17.0182  -38.8330 H   0  0  0  0  0  0  0  0  0  0  0  0
  -11.0470   15.8723  -36.6995 H   0  0  0  0  0  0  0  0  0  0  0  0
  -12.7989   16.1844  -40.4723 H   0  0  0  0  0  0  0  0  0  0  0  0
  -14.7765   16.1675  -38.8375 H   0  0  0  0  0  0  0  0  0  0  0  0
  1  5  1  0  0  0  0
  1  8  2  0  0  0  0
  1  9  1  0  0  0  0
  2  3  1  0  0  0  0
  2  5  1  0  0  0  0
  3  7  1  0  0  0  0
  4  5  1  0  0  0  0
  4  6  1  0  0  0  0
  6  7  1  0  0  0  0
  6  9  1  0  0  0  0
  7 10  1  0  0  0  0
  2 11  1  0  0  0  0
  2 12  1  0  0  0  0
  3 13  1  0  0  0  0
  3 14  1  0  0  0  0
  4 15  1  0  0  0  0
  4 16  1  0  0  0  0
  5 17  1  0  0  0  0
  6 18  1  0  0  0  0
  7 19  1  0  0  0  0
M  END
> <id>
EN300-262332

> <smiles>
IC1CCC2CC1OC2=O

> <MDLNUMBER>
MFCD00604194

> <IUPAC Name>
4-iodo-6-oxabicyclo[3.2.1]octan-7-one

> <CAS>
76140-13-1

> <Purity>
95

> <URL>
https://www.enaminestore.com/catalog/EN300-262332

> <MP>
133-136

> <ROCS_ShapeQuery>
_x1247relevant_x1083L0AP1_x1305L0BP1_

> <ROCS_TanimotoCombo>
1.025 

> <ROCS_ShapeTanimoto>
0.417 

> <ROCS_ColorTanimoto>
0.608 

> <ROCS_RefTversky>
0.358 

> <ROCS_RefColorTversky>
0.693 

> <ROCS_RefTverskyCombo>
1.052 

> <ROCS_FitTversky>
1.643 

> <ROCS_FitColorTversky>
0.832 

> <ROCS_FitTverskyCombo>
2.475 

> <ROCS_ColorScore>
-6.639

> <ROCS_Overlap>
879.570

> <ROCS_Rank>
334                 

$$$$
untitled-dbase-48620_1
  -OEChem-06232314403D

 30 32  0     1  0  0  0  0  0999 V2000
   -8.9526   14.4703  -37.6869 C   0  0  0  0  0  0  0  0  0  0  0  0
  -12.1765   14.3893  -39.6545 C   0  0  0  0  0  0  0  0  0  0  0  0
  -13.5496   14.0966  -37.6275 C   0  0  0  0  0  0  0  0  0  0  0  0
  -11.1076   15.0581  -35.9382 C   0  0  0  0  0  0  0  0  0  0  0  0
  -12.8356   15.7596  -39.8665 C   0  0  0  0  0  0  0  0  0  0  0  0
  -14.1619   15.4845  -37.8735 C   0  0  0  0  0  0  0  0  0  0  0  0
  -10.2779   13.8243  -35.6545 C   0  0  0  0  0  0  0  0  0  0  0  0
  -12.0159   16.5724  -37.7529 C   0  0  0  0  0  0  0  0  0  0  0  0
  -12.1018   14.0877  -38.1424 C   0  0  0  0  0  0  0  0  0  0  0  0
  -11.2979   15.2277  -37.4500 C   0  0  2  0  0  0  0  0  0  0  0  0
   -9.1130   13.7643  -36.5094 N   0  0  0  0  0  0  0  0  0  0  0  0
  -13.2274   16.3832  -38.5859 N   0  0  0  0  0  0  0  0  0  0  0  0
   -7.9301   14.3936  -38.3664 O   0  0  0  0  0  0  0  0  0  0  0  0
   -9.9775   15.2980  -38.0624 O   0  0  0  0  0  0  0  0  0  0  0  0
  -12.7625   13.6131  -40.1617 H   0  0  0  0  0  0  0  0  0  0  0  0
  -11.1778   14.3756  -40.1053 H   0  0  0  0  0  0  0  0  0  0  0  0
  -13.5923   13.8432  -36.5632 H   0  0  0  0  0  0  0  0  0  0  0  0
  -14.1370   13.3350  -38.1550 H   0  0  0  0  0  0  0  0  0  0  0  0
  -12.0604   15.0086  -35.4017 H   0  0  0  0  0  0  0  0  0  0  0  0
  -10.5669   15.9283  -35.5414 H   0  0  0  0  0  0  0  0  0  0  0  0
  -12.1523   16.4245  -40.4094 H   0  0  0  0  0  0  0  0  0  0  0  0
  -13.7171   15.6554  -40.5115 H   0  0  0  0  0  0  0  0  0  0  0  0
  -15.0902   15.3857  -38.4500 H   0  0  0  0  0  0  0  0  0  0  0  0
  -14.4565   15.9386  -36.9190 H   0  0  0  0  0  0  0  0  0  0  0  0
   -9.9311   13.8189  -34.6163 H   0  0  0  0  0  0  0  0  0  0  0  0
  -10.8511   12.9061  -35.8158 H   0  0  0  0  0  0  0  0  0  0  0  0
  -12.3185   17.0758  -36.8256 H   0  0  0  0  0  0  0  0  0  0  0  0
  -11.3390   17.2732  -38.2587 H   0  0  0  0  0  0  0  0  0  0  0  0
  -11.6365   13.1072  -38.0012 H   0  0  0  0  0  0  0  0  0  0  0  0
   -8.3644   13.1349  -36.2369 H   0  0  0  0  0  0  0  0  0  0  0  0
  1 11  1  0  0  0  0
  1 13  2  0  0  0  0
  1 14  1  0  0  0  0
  2  5  1  0  0  0  0
  2  9  1  0  0  0  0
  3  6  1  0  0  0  0
  3  9  1  0  0  0  0
  4  7  1  0  0  0  0
  4 10  1  0  0  0  0
  5 12  1  0  0  0  0
  6 12  1  0  0  0  0
  7 11  1  0  0  0  0
  8 10  1  0  0  0  0
  8 12  1  0  0  0  0
  9 10  1  0  0  0  0
 10 14  1  0  0  0  0
  2 15  1  0  0  0  0
  2 16  1  0  0  0  0
  3 17  1  0  0  0  0
  3 18  1  0  0  0  0
  4 19  1  0  0  0  0
  4 20  1  0  0  0  0
  5 21  1  0  0  0  0
  5 22  1  0  0  0  0
  6 23  1  0  0  0  0
  6 24  1  0  0  0  0
  7 25  1  0  0  0  0
  7 26  1  0  0  0  0
  8 27  1  0  0  0  0
  8 28  1  0  0  0  0
  9 29  1  0  0  0  0
 11 30  1  0  0  0  0
M  END
> <id>
EN300-802947

> <smiles>
O=C1NCCC2(CN3CCC2CC3)O1

> <MDLNUMBER>
MFCD24600221

> <IUPAC Name>
4-azaspiro[bicyclo[2.2.2]octane-2,2'-[1,5]oxazinane]-6'-one

> <CAS>
313643-38-8

> <URL>
https://www.enaminestore.com/catalog/EN300-802947

> <ROCS_ShapeQuery>
_x1247relevant_x1083L0AP1_x1305L0BP1_

> <ROCS_TanimotoCombo>
1.024 

> <ROCS_ShapeTanimoto>
0.501 

> <ROCS_ColorTanimoto>
0.523 

> <ROCS_RefTversky>
0.433 

> <ROCS_RefColorTversky>
0.700 

> <ROCS_RefTverskyCombo>
1.133 

> <ROCS_FitTversky>
1.455 

> <ROCS_FitColorTversky>
0.674 

> <ROCS_FitTverskyCombo>
2.130 

> <ROCS_ColorScore>
-6.775

> <ROCS_Overlap>
1068.585

> <ROCS_Rank>
335                 

$$$$
untitled-dbase-12481_0
  -OEChem-06232314403D

 29 31  0     1  0  0  0  0  0999 V2000
  -13.7048   14.4746  -39.1984 C   0  0  0  0  0  0  0  0  0  0  0  0
  -13.8202   14.4905  -37.6674 C   0  0  0  0  0  0  0  0  0  0  0  0
   -9.4280   13.7057  -36.8700 C   0  0  0  0  0  0  0  0  0  0  0  0
  -12.8689   16.5444  -38.3779 C   0  0  0  0  0  0  0  0  0  0  0  0
  -11.2456   14.9249  -39.0467 C   0  0  0  0  0  0  0  0  0  0  0  0
   -9.1637   15.1777  -36.6175 C   0  0  0  0  0  0  0  0  0  0  0  0
  -12.6053   15.5147  -39.4730 C   0  0  1  0  0  0  0  0  0  0  0  0
  -12.7472   15.5109  -37.2506 C   0  0  2  0  0  0  0  0  0  0  0  0
  -10.9438   13.6174  -36.8410 C   0  0  2  0  0  0  0  0  0  0  0  0
  -11.3265   14.9488  -37.4943 C   0  0  1  0  0  0  0  0  0  0  0  0
  -11.4208   13.5307  -35.4585 N   0  0  0  0  0  0  0  0  0  0  0  0
  -10.3408   15.8950  -37.0210 O   0  0  0  0  0  0  0  0  0  0  0  0
  -13.4494   13.4817  -39.5818 H   0  0  0  0  0  0  0  0  0  0  0  0
  -14.6550   14.7810  -39.6504 H   0  0  0  0  0  0  0  0  0  0  0  0
  -14.8165   14.8406  -37.3733 H   0  0  0  0  0  0  0  0  0  0  0  0
  -13.6793   13.4954  -37.2388 H   0  0  0  0  0  0  0  0  0  0  0  0
   -9.0626   13.4338  -37.8681 H   0  0  0  0  0  0  0  0  0  0  0  0
   -8.9143   13.0558  -36.1543 H   0  0  0  0  0  0  0  0  0  0  0  0
  -12.1119   17.3341  -38.3354 H   0  0  0  0  0  0  0  0  0  0  0  0
  -13.8640   16.9975  -38.4412 H   0  0  0  0  0  0  0  0  0  0  0  0
  -11.1142   13.9173  -39.4548 H   0  0  0  0  0  0  0  0  0  0  0  0
  -10.4286   15.5562  -39.4150 H   0  0  0  0  0  0  0  0  0  0  0  0
   -8.9977   15.3794  -35.5543 H   0  0  0  0  0  0  0  0  0  0  0  0
   -8.3006   15.5461  -37.1794 H   0  0  0  0  0  0  0  0  0  0  0  0
  -12.6131   15.8980  -40.4951 H   0  0  0  0  0  0  0  0  0  0  0  0
  -12.8935   15.9370  -36.2549 H   0  0  0  0  0  0  0  0  0  0  0  0
  -11.3172   12.7459  -37.4047 H   0  0  0  0  0  0  0  0  0  0  0  0
  -12.4116   13.5280  -35.4767 H   0  0  0  0  0  0  0  0  0  0  0  0
  -11.0712   12.6900  -35.0674 H   0  0  0  0  0  0  0  0  0  0  0  0
  1  2  1  0  0  0  0
  1  7  1  0  0  0  0
  2  8  1  0  0  0  0
  3  6  1  0  0  0  0
  3  9  1  0  0  0  0
  4  7  1  0  0  0  0
  4  8  1  0  0  0  0
  5  7  1  0  0  0  0
  5 10  1  0  0  0  0
  6 12  1  0  0  0  0
  8 10  1  0  0  0  0
  9 10  1  0  0  0  0
  9 11  1  0  0  0  0
 10 12  1  0  0  0  0
  1 13  1  0  0  0  0
  1 14  1  0  0  0  0
  2 15  1  0  0  0  0
  2 16  1  0  0  0  0
  3 17  1  0  0  0  0
  3 18  1  0  0  0  0
  4 19  1  0  0  0  0
  4 20  1  0  0  0  0
  5 21  1  0  0  0  0
  5 22  1  0  0  0  0
  6 23  1  0  0  0  0
  6 24  1  0  0  0  0
  7 25  1  0  0  0  0
  8 26  1  0  0  0  0
  9 27  1  0  0  0  0
 11 28  1  0  0  0  0
 11 29  1  0  0  0  0
M  END
> <id>
EN300-744223

> <smiles>
NC1CCOC21CC3CCC2C3

> <IUPAC Name>
spiro[bicyclo[2.2.1]heptane-2,2'-oxolane]-3'-amine

> <CAS>
2137630-59-0

> <URL>
https://www.enaminestore.com/catalog/EN300-744223

> <ROCS_ShapeQuery>
_x1247relevant_x1083L0AP1_x1305L0BP1_

> <ROCS_TanimotoCombo>
1.024 

> <ROCS_ShapeTanimoto>
0.500 

> <ROCS_ColorTanimoto>
0.525 

> <ROCS_RefTversky>
0.420 

> <ROCS_RefColorTversky>
0.709 

> <ROCS_RefTverskyCombo>
1.129 

> <ROCS_FitTversky>
1.605 

> <ROCS_FitColorTversky>
0.669 

> <ROCS_FitTverskyCombo>
2.274 

> <ROCS_ColorScore>
-6.872

> <ROCS_Overlap>
1034.383

> <ROCS_Rank>
336                 

$$$$
untitled-dbase-44564_0
  -OEChem-06232314403D

 26 28  0     1  0  0  0  0  0999 V2000
  -12.0327   16.0866  -39.4901 C   0  0  0  0  0  0  0  0  0  0  0  0
  -12.1800   14.7769  -39.7482 C   0  0  0  0  0  0  0  0  0  0  0  0
  -13.8797   16.0838  -37.8782 C   0  0  0  0  0  0  0  0  0  0  0  0
  -14.0500   14.5704  -38.1766 C   0  0  0  0  0  0  0  0  0  0  0  0
  -10.0502   15.8975  -37.1200 C   0  0  0  0  0  0  0  0  0  0  0  0
  -10.3045   13.6352  -37.5656 C   0  0  0  0  0  0  0  0  0  0  0  0
  -12.3992   16.4964  -38.0766 C   0  0  1  0  0  0  0  0  0  0  0  0
  -12.6850   13.9560  -38.5772 C   0  0  2  0  0  0  0  0  0  0  0  0
  -11.5588   15.6643  -37.0750 C   0  0  1  0  0  0  0  0  0  0  0  0
  -11.7289   14.1516  -37.3730 C   0  0  2  0  0  0  0  0  0  0  0  0
   -9.4715   14.5825  -36.8122 N   0  0  0  0  0  0  0  0  0  0  0  0
  -11.6806   16.7999  -40.2250 H   0  0  0  0  0  0  0  0  0  0  0  0
  -11.9583   14.3337  -40.7110 H   0  0  0  0  0  0  0  0  0  0  0  0
  -14.5324   16.6647  -38.5429 H   0  0  0  0  0  0  0  0  0  0  0  0
  -14.2041   16.2989  -36.8525 H   0  0  0  0  0  0  0  0  0  0  0  0
  -14.4564   14.0610  -37.2941 H   0  0  0  0  0  0  0  0  0  0  0  0
  -14.7826   14.4357  -38.9828 H   0  0  0  0  0  0  0  0  0  0  0  0
   -9.6993   16.2775  -38.0803 H   0  0  0  0  0  0  0  0  0  0  0  0
   -9.7506   16.6075  -36.3444 H   0  0  0  0  0  0  0  0  0  0  0  0
  -10.1969   12.6403  -37.1253 H   0  0  0  0  0  0  0  0  0  0  0  0
  -10.0029   13.5770  -38.6122 H   0  0  0  0  0  0  0  0  0  0  0  0
  -12.2618   17.5667  -37.9274 H   0  0  0  0  0  0  0  0  0  0  0  0
  -12.7859   12.9054  -38.8458 H   0  0  0  0  0  0  0  0  0  0  0  0
  -11.9153   15.8794  -36.0491 H   0  0  0  0  0  0  0  0  0  0  0  0
  -12.1662   13.6494  -36.4884 H   0  0  0  0  0  0  0  0  0  0  0  0
   -8.5184   14.5418  -37.1502 H   0  0  0  0  0  0  0  0  0  0  0  0
  1  2  2  0  0  0  0
  1  7  1  0  0  0  0
  2  8  1  0  0  0  0
  3  4  1  0  0  0  0
  3  7  1  0  0  0  0
  4  8  1  0  0  0  0
  5  9  1  0  0  0  0
  5 11  1  0  0  0  0
  6 10  1  0  0  0  0
  6 11  1  0  0  0  0
  7  9  1  0  0  0  0
  8 10  1  0  0  0  0
  9 10  1  0  0  0  0
  1 12  1  0  0  0  0
  2 13  1  0  0  0  0
  3 14  1  0  0  0  0
  3 15  1  0  0  0  0
  4 16  1  0  0  0  0
  4 17  1  0  0  0  0
  5 18  1  0  0  0  0
  5 19  1  0  0  0  0
  6 20  1  0  0  0  0
  6 21  1  0  0  0  0
  7 22  1  0  0  0  0
  8 23  1  0  0  0  0
  9 24  1  0  0  0  0
 10 25  1  0  0  0  0
 11 26  1  0  0  0  0
M  END
> <id>
EN300-233838

> <smiles>
Cl.C1NCC2C1C3CCC2C=C3

> <MDLNUMBER>
MFCD29034402

> <IUPAC Name>
4-azatricyclo[5.2.2.0,2,6]undec-8-ene hydrochloride

> <CAS>
15997-96-3

> <URL>
https://www.enaminestore.com/catalog/EN300-233838

> <Saltdate>
Cl

> <ROCS_ShapeQuery>
_x1247relevant_x1083L0AP1_x1305L0BP1_

> <ROCS_TanimotoCombo>
1.024 

> <ROCS_ShapeTanimoto>
0.479 

> <ROCS_ColorTanimoto>
0.545 

> <ROCS_RefTversky>
0.403 

> <ROCS_RefColorTversky>
0.686 

> <ROCS_RefTverskyCombo>
1.089 

> <ROCS_FitTversky>
1.655 

> <ROCS_FitColorTversky>
0.725 

> <ROCS_FitTverskyCombo>
2.380 

> <ROCS_ColorScore>
-6.615

> <ROCS_Overlap>
990.121

> <ROCS_Rank>
337                 

$$$$
untitled-dbase-34087_0
  -OEChem-06232314403D

 25 27  0     0  0  0  0  0  0999 V2000
  -10.9675   13.6681  -36.2944 C   0  0  0  0  0  0  0  0  0  0  0  0
   -9.6099   13.7574  -35.9917 C   0  0  0  0  0  0  0  0  0  0  0  0
   -9.4184   15.5821  -37.5387 C   0  0  0  0  0  0  0  0  0  0  0  0
  -11.5963   14.5289  -37.2246 C   0  0  0  0  0  0  0  0  0  0  0  0
  -10.7880   15.4977  -37.8698 C   0  0  0  0  0  0  0  0  0  0  0  0
   -8.8336   14.7215  -36.6127 C   0  0  0  0  0  0  0  0  0  0  0  0
  -13.9631   15.7178  -37.7021 C   0  0  0  0  0  0  0  0  0  0  0  0
  -13.5827   14.0178  -38.9234 C   0  0  0  0  0  0  0  0  0  0  0  0
  -12.3675   16.1582  -39.7546 C   0  0  0  0  0  0  0  0  0  0  0  0
  -13.1608   14.4004  -37.4808 C   0  0  0  0  0  0  0  0  0  0  0  0
  -13.6517   15.5396  -39.2093 C   0  0  0  0  0  0  0  0  0  0  0  0
  -11.2755   16.3884  -38.8192 N   0  0  0  0  0  0  0  0  0  0  0  0
   -6.9936   14.8660  -36.2105 Br  0  0  0  0  0  0  0  0  0  0  0  0
  -11.5631   12.9115  -35.7863 H   0  0  0  0  0  0  0  0  0  0  0  0
   -9.1818   13.0711  -35.2662 H   0  0  0  0  0  0  0  0  0  0  0  0
   -8.8020   16.3348  -38.0298 H   0  0  0  0  0  0  0  0  0  0  0  0
  -15.0291   15.6281  -37.4578 H   0  0  0  0  0  0  0  0  0  0  0  0
  -13.5781   16.6209  -37.2207 H   0  0  0  0  0  0  0  0  0  0  0  0
  -12.8605   13.4418  -39.5090 H   0  0  0  0  0  0  0  0  0  0  0  0
  -14.5543   13.5114  -38.9782 H   0  0  0  0  0  0  0  0  0  0  0  0
  -11.9955   15.5547  -40.5915 H   0  0  0  0  0  0  0  0  0  0  0  0
  -12.6194   17.1354  -40.1845 H   0  0  0  0  0  0  0  0  0  0  0  0
  -13.6355   13.7591  -36.7256 H   0  0  0  0  0  0  0  0  0  0  0  0
  -14.4931   15.7996  -39.8643 H   0  0  0  0  0  0  0  0  0  0  0  0
  -10.6404   17.1370  -39.0810 H   0  0  0  0  0  0  0  0  0  0  0  0
  1  2  1  0  0  0  0
  1  4  2  0  0  0  0
  2  6  2  0  0  0  0
  3  5  2  0  0  0  0
  3  6  1  0  0  0  0
  4  5  1  0  0  0  0
  4 10  1  0  0  0  0
  5 12  1  0  0  0  0
  6 13  1  0  0  0  0
  7 10  1  0  0  0  0
  7 11  1  0  0  0  0
  8 10  1  0  0  0  0
  8 11  1  0  0  0  0
  9 11  1  0  0  0  0
  9 12  1  0  0  0  0
  1 14  1  0  0  0  0
  2 15  1  0  0  0  0
  3 16  1  0  0  0  0
  7 17  1  0  0  0  0
  7 18  1  0  0  0  0
  8 19  1  0  0  0  0
  8 20  1  0  0  0  0
  9 21  1  0  0  0  0
  9 22  1  0  0  0  0
 10 23  1  0  0  0  0
 11 24  1  0  0  0  0
 12 25  1  0  0  0  0
M  END
> <id>
EN300-7437767

> <smiles>
Cl.BrC=1C=CC=2C3CC(C3)CNC2C1

> <MDLNUMBER>
MFCD32069036

> <IUPAC Name>
5-bromo-8-azatricyclo[8.1.1.0,2,7]dodeca-2,4,6-triene hydrochloride

> <CAS>
2375274-43-2

> <Purity>
95

> <URL>
https://www.enaminestore.com/catalog/EN300-7437767

> <Saltdate>
Cl

> <ROCS_ShapeQuery>
_x1247relevant_x1083L0AP1_x1305L0BP1_

> <ROCS_TanimotoCombo>
1.024 

> <ROCS_ShapeTanimoto>
0.497 

> <ROCS_ColorTanimoto>
0.527 

> <ROCS_RefTversky>
0.422 

> <ROCS_RefColorTversky>
0.655 

> <ROCS_RefTverskyCombo>
1.077 

> <ROCS_FitTversky>
1.552 

> <ROCS_FitColorTversky>
0.730 

> <ROCS_FitTverskyCombo>
2.281 

> <ROCS_ColorScore>
-6.292

> <ROCS_Overlap>
1039.727

> <ROCS_Rank>
338                 

$$$$
untitled-dbase-29860_0
  -OEChem-06232314403D

 25 27  0     0  0  0  0  0  0999 V2000
  -10.9675   13.6681  -36.2944 C   0  0  0  0  0  0  0  0  0  0  0  0
   -9.6099   13.7574  -35.9917 C   0  0  0  0  0  0  0  0  0  0  0  0
   -9.4184   15.5821  -37.5387 C   0  0  0  0  0  0  0  0  0  0  0  0
  -11.5963   14.5289  -37.2246 C   0  0  0  0  0  0  0  0  0  0  0  0
  -10.7880   15.4977  -37.8698 C   0  0  0  0  0  0  0  0  0  0  0  0
   -8.8336   14.7215  -36.6127 C   0  0  0  0  0  0  0  0  0  0  0  0
  -13.9631   15.7178  -37.7021 C   0  0  0  0  0  0  0  0  0  0  0  0
  -13.5827   14.0178  -38.9234 C   0  0  0  0  0  0  0  0  0  0  0  0
  -12.3675   16.1582  -39.7546 C   0  0  0  0  0  0  0  0  0  0  0  0
  -13.1608   14.4004  -37.4808 C   0  0  0  0  0  0  0  0  0  0  0  0
  -13.6517   15.5396  -39.2093 C   0  0  0  0  0  0  0  0  0  0  0  0
  -11.2755   16.3884  -38.8192 N   0  0  0  0  0  0  0  0  0  0  0  0
   -6.9936   14.8660  -36.2105 Br  0  0  0  0  0  0  0  0  0  0  0  0
  -11.5631   12.9115  -35.7863 H   0  0  0  0  0  0  0  0  0  0  0  0
   -9.1818   13.0711  -35.2662 H   0  0  0  0  0  0  0  0  0  0  0  0
   -8.8020   16.3348  -38.0298 H   0  0  0  0  0  0  0  0  0  0  0  0
  -15.0291   15.6281  -37.4578 H   0  0  0  0  0  0  0  0  0  0  0  0
  -13.5781   16.6209  -37.2207 H   0  0  0  0  0  0  0  0  0  0  0  0
  -12.8605   13.4418  -39.5090 H   0  0  0  0  0  0  0  0  0  0  0  0
  -14.5543   13.5114  -38.9782 H   0  0  0  0  0  0  0  0  0  0  0  0
  -11.9955   15.5547  -40.5915 H   0  0  0  0  0  0  0  0  0  0  0  0
  -12.6194   17.1354  -40.1845 H   0  0  0  0  0  0  0  0  0  0  0  0
  -13.6355   13.7591  -36.7256 H   0  0  0  0  0  0  0  0  0  0  0  0
  -14.4931   15.7996  -39.8643 H   0  0  0  0  0  0  0  0  0  0  0  0
  -10.6404   17.1370  -39.0810 H   0  0  0  0  0  0  0  0  0  0  0  0
  1  2  1  0  0  0  0
  1  4  2  0  0  0  0
  2  6  2  0  0  0  0
  3  5  2  0  0  0  0
  3  6  1  0  0  0  0
  4  5  1  0  0  0  0
  4 10  1  0  0  0  0
  5 12  1  0  0  0  0
  6 13  1  0  0  0  0
  7 10  1  0  0  0  0
  7 11  1  0  0  0  0
  8 10  1  0  0  0  0
  8 11  1  0  0  0  0
  9 11  1  0  0  0  0
  9 12  1  0  0  0  0
  1 14  1  0  0  0  0
  2 15  1  0  0  0  0
  3 16  1  0  0  0  0
  7 17  1  0  0  0  0
  7 18  1  0  0  0  0
  8 19  1  0  0  0  0
  8 20  1  0  0  0  0
  9 21  1  0  0  0  0
  9 22  1  0  0  0  0
 10 23  1  0  0  0  0
 11 24  1  0  0  0  0
 12 25  1  0  0  0  0
M  END
> <id>
EN300-7437768

> <smiles>
BrC=1C=CC=2C3CC(C3)CNC2C1

> <MDLNUMBER>
MFCD32069070

> <IUPAC Name>
5-bromo-8-azatricyclo[8.1.1.0,2,7]dodeca-2,4,6-triene

> <CAS>
2375269-21-7

> <URL>
https://www.enaminestore.com/catalog/EN300-7437768

> <ROCS_ShapeQuery>
_x1247relevant_x1083L0AP1_x1305L0BP1_

> <ROCS_TanimotoCombo>
1.024 

> <ROCS_ShapeTanimoto>
0.497 

> <ROCS_ColorTanimoto>
0.527 

> <ROCS_RefTversky>
0.422 

> <ROCS_RefColorTversky>
0.655 

> <ROCS_RefTverskyCombo>
1.077 

> <ROCS_FitTversky>
1.552 

> <ROCS_FitColorTversky>
0.730 

> <ROCS_FitTverskyCombo>
2.281 

> <ROCS_ColorScore>
-6.292

> <ROCS_Overlap>
1039.727

> <ROCS_Rank>
339                 

$$$$
untitled-dbase-8764_0
  -OEChem-06232314403D

 22 24  0     1  0  0  0  0  0999 V2000
  -10.1487   16.1855  -37.9628 C   0  0  0  0  0  0  0  0  0  0  0  0
   -9.1250   15.4324  -37.3811 C   0  0  0  0  0  0  0  0  0  0  0  0
  -10.6739   13.6282  -36.8788 C   0  0  0  0  0  0  0  0  0  0  0  0
  -11.4325   15.6591  -38.0005 C   0  0  0  0  0  0  0  0  0  0  0  0
  -11.6820   14.3830  -37.4571 C   0  0  0  0  0  0  0  0  0  0  0  0
   -9.3861   14.1636  -36.8430 C   0  0  0  0  0  0  0  0  0  0  0  0
  -13.1344   13.9971  -37.6101 C   0  0  0  0  0  0  0  0  0  0  0  0
  -12.6870   16.2546  -38.5588 C   0  0  2  0  0  0  0  0  0  0  0  0
  -13.7589   15.2066  -38.2899 C   0  0  1  0  0  0  0  0  0  0  0  0
  -13.4107   15.5911  -39.7069 C   0  0  1  0  0  0  0  0  0  0  0  0
  -14.3627   16.3610  -40.5157 N   0  0  0  0  0  0  0  0  0  0  0  0
   -8.3885   13.4592  -36.2918 F   0  0  0  0  0  0  0  0  0  0  0  0
   -9.9383   17.1661  -38.3774 H   0  0  0  0  0  0  0  0  0  0  0  0
   -8.1154   15.8324  -37.3459 H   0  0  0  0  0  0  0  0  0  0  0  0
  -10.8745   12.6461  -36.4649 H   0  0  0  0  0  0  0  0  0  0  0  0
  -13.2420   13.1025  -38.2308 H   0  0  0  0  0  0  0  0  0  0  0  0
  -13.5886   13.8348  -36.6277 H   0  0  0  0  0  0  0  0  0  0  0  0
  -12.9291   17.2838  -38.3183 H   0  0  0  0  0  0  0  0  0  0  0  0
  -14.7037   15.5161  -37.8656 H   0  0  0  0  0  0  0  0  0  0  0  0
  -12.8522   14.8671  -40.2926 H   0  0  0  0  0  0  0  0  0  0  0  0
  -13.8493   16.8432  -41.2118 H   0  0  0  0  0  0  0  0  0  0  0  0
  -15.0007   15.7220  -40.9226 H   0  0  0  0  0  0  0  0  0  0  0  0
  1  2  1  0  0  0  0
  1  4  2  0  0  0  0
  2  6  2  0  0  0  0
  3  5  2  0  0  0  0
  3  6  1  0  0  0  0
  4  5  1  0  0  0  0
  4  8  1  0  0  0  0
  5  7  1  0  0  0  0
  6 12  1  0  0  0  0
  7  9  1  0  0  0  0
  8  9  1  0  0  0  0
  8 10  1  0  0  0  0
  9 10  1  0  0  0  0
 10 11  1  0  0  0  0
  1 13  1  0  0  0  0
  2 14  1  0  0  0  0
  3 15  1  0  0  0  0
  7 16  1  0  0  0  0
  7 17  1  0  0  0  0
  8 18  1  0  0  0  0
  9 19  1  0  0  0  0
 10 20  1  0  0  0  0
 11 21  1  0  0  0  0
 11 22  1  0  0  0  0
M  END
> <id>
EN300-299511

> <smiles>
NC1C2CC=3C=C(F)C=CC3C12

> <MDLNUMBER>
MFCD30345016

> <IUPAC Name>
4-fluoro-1H,1aH,6H,6aH-cyclopropa[a]inden-1-amine

> <CAS>
1989671-28-4

> <URL>
https://www.enaminestore.com/catalog/EN300-299511

> <ROCS_ShapeQuery>
_x1247relevant_x1083L0AP1_x1305L0BP1_

> <ROCS_TanimotoCombo>
1.024 

> <ROCS_ShapeTanimoto>
0.496 

> <ROCS_ColorTanimoto>
0.527 

> <ROCS_RefTversky>
0.419 

> <ROCS_RefColorTversky>
0.597 

> <ROCS_RefTverskyCombo>
1.016 

> <ROCS_FitTversky>
1.601 

> <ROCS_FitColorTversky>
0.818 

> <ROCS_FitTverskyCombo>
2.419 

> <ROCS_ColorScore>
-5.688

> <ROCS_Overlap>
1029.787

> <ROCS_Rank>
340                 

$$$$
untitled-dbase-9241_0
  -OEChem-06232314403D

 22 24  0     1  0  0  0  0  0999 V2000
  -10.1487   16.1855  -37.9628 C   0  0  0  0  0  0  0  0  0  0  0  0
   -9.1250   15.4324  -37.3811 C   0  0  0  0  0  0  0  0  0  0  0  0
  -10.6739   13.6282  -36.8788 C   0  0  0  0  0  0  0  0  0  0  0  0
  -11.4325   15.6591  -38.0005 C   0  0  0  0  0  0  0  0  0  0  0  0
  -11.6820   14.3830  -37.4571 C   0  0  0  0  0  0  0  0  0  0  0  0
   -9.3861   14.1636  -36.8430 C   0  0  0  0  0  0  0  0  0  0  0  0
  -13.1344   13.9971  -37.6101 C   0  0  0  0  0  0  0  0  0  0  0  0
  -12.6870   16.2546  -38.5588 C   0  0  2  0  0  0  0  0  0  0  0  0
  -13.7589   15.2066  -38.2899 C   0  0  1  0  0  0  0  0  0  0  0  0
  -13.4107   15.5911  -39.7069 C   0  0  1  0  0  0  0  0  0  0  0  0
  -14.3627   16.3610  -40.5157 N   0  0  0  0  0  0  0  0  0  0  0  0
   -8.3885   13.4592  -36.2918 F   0  0  0  0  0  0  0  0  0  0  0  0
   -9.9383   17.1661  -38.3774 H   0  0  0  0  0  0  0  0  0  0  0  0
   -8.1154   15.8324  -37.3459 H   0  0  0  0  0  0  0  0  0  0  0  0
  -10.8745   12.6461  -36.4649 H   0  0  0  0  0  0  0  0  0  0  0  0
  -13.2420   13.1025  -38.2308 H   0  0  0  0  0  0  0  0  0  0  0  0
  -13.5886   13.8348  -36.6277 H   0  0  0  0  0  0  0  0  0  0  0  0
  -12.9291   17.2838  -38.3183 H   0  0  0  0  0  0  0  0  0  0  0  0
  -14.7037   15.5161  -37.8656 H   0  0  0  0  0  0  0  0  0  0  0  0
  -12.8522   14.8671  -40.2926 H   0  0  0  0  0  0  0  0  0  0  0  0
  -13.8493   16.8432  -41.2118 H   0  0  0  0  0  0  0  0  0  0  0  0
  -15.0007   15.7220  -40.9226 H   0  0  0  0  0  0  0  0  0  0  0  0
  1  2  1  0  0  0  0
  1  4  2  0  0  0  0
  2  6  2  0  0  0  0
  3  5  2  0  0  0  0
  3  6  1  0  0  0  0
  4  5  1  0  0  0  0
  4  8  1  0  0  0  0
  5  7  1  0  0  0  0
  6 12  1  0  0  0  0
  7  9  1  0  0  0  0
  8  9  1  0  0  0  0
  8 10  1  0  0  0  0
  9 10  1  0  0  0  0
 10 11  1  0  0  0  0
  1 13  1  0  0  0  0
  2 14  1  0  0  0  0
  3 15  1  0  0  0  0
  7 16  1  0  0  0  0
  7 17  1  0  0  0  0
  8 18  1  0  0  0  0
  9 19  1  0  0  0  0
 10 20  1  0  0  0  0
 11 21  1  0  0  0  0
 11 22  1  0  0  0  0
M  END
> <id>
EN300-306579

> <smiles>
Cl.NC1C2CC=3C=C(F)C=CC3C12

> <MDLNUMBER>
MFCD30342924

> <IUPAC Name>
4-fluoro-1H,1aH,6H,6aH-cyclopropa[a]inden-1-amine hydrochloride

> <CAS>
1989671-29-5

> <Purity>
95

> <URL>
https://www.enaminestore.com/catalog/EN300-306579

> <Saltdate>
Cl

> <ROCS_ShapeQuery>
_x1247relevant_x1083L0AP1_x1305L0BP1_

> <ROCS_TanimotoCombo>
1.024 

> <ROCS_ShapeTanimoto>
0.496 

> <ROCS_ColorTanimoto>
0.527 

> <ROCS_RefTversky>
0.419 

> <ROCS_RefColorTversky>
0.597 

> <ROCS_RefTverskyCombo>
1.016 

> <ROCS_FitTversky>
1.601 

> <ROCS_FitColorTversky>
0.818 

> <ROCS_FitTverskyCombo>
2.419 

> <ROCS_ColorScore>
-5.688

> <ROCS_Overlap>
1029.787

> <ROCS_Rank>
341                 

$$$$
untitled-dbase-16931_0
  -OEChem-06232314403D

 29 31  0     1  0  0  0  0  0999 V2000
   -9.6049   14.8467  -35.8388 C   0  0  0  0  0  0  0  0  0  0  0  0
   -8.9869   14.8010  -37.2383 C   0  0  0  0  0  0  0  0  0  0  0  0
  -13.1226   15.6837  -39.7818 C   0  0  0  0  0  0  0  0  0  0  0  0
  -12.9013   14.1997  -39.4930 C   0  0  0  0  0  0  0  0  0  0  0  0
  -11.1102   14.6363  -36.0262 C   0  0  0  0  0  0  0  0  0  0  0  0
  -11.5813   16.2923  -37.8959 C   0  0  0  0  0  0  0  0  0  0  0  0
  -10.0701   14.2157  -38.1506 C   0  0  2  0  0  0  0  0  0  0  0  0
  -13.0320   16.2936  -38.3857 C   0  0  2  0  0  0  0  0  0  0  0  0
  -12.7032   14.1896  -37.9763 C   0  0  1  0  0  0  0  0  0  0  0  0
  -11.3584   14.7973  -37.5415 C   0  0  1  0  0  0  0  0  0  0  0  0
  -10.0286   12.7540  -38.0698 N   0  0  0  0  0  0  0  0  0  0  0  0
  -13.6165   15.2456  -37.5807 O   0  0  0  0  0  0  0  0  0  0  0  0
   -9.1883   14.0635  -35.1962 H   0  0  0  0  0  0  0  0  0  0  0  0
   -9.3957   15.8097  -35.3606 H   0  0  0  0  0  0  0  0  0  0  0  0
   -8.7407   15.8204  -37.5610 H   0  0  0  0  0  0  0  0  0  0  0  0
   -8.0507   14.2322  -37.2532 H   0  0  0  0  0  0  0  0  0  0  0  0
  -12.3904   16.0991  -40.4803 H   0  0  0  0  0  0  0  0  0  0  0  0
  -14.1235   15.8292  -40.2034 H   0  0  0  0  0  0  0  0  0  0  0  0
  -13.8068   13.6424  -39.7601 H   0  0  0  0  0  0  0  0  0  0  0  0
  -12.0673   13.7734  -40.0554 H   0  0  0  0  0  0  0  0  0  0  0  0
  -11.3742   13.6232  -35.6973 H   0  0  0  0  0  0  0  0  0  0  0  0
  -11.6938   15.3303  -35.4117 H   0  0  0  0  0  0  0  0  0  0  0  0
  -10.8985   16.6750  -38.6614 H   0  0  0  0  0  0  0  0  0  0  0  0
  -11.4883   16.9328  -37.0116 H   0  0  0  0  0  0  0  0  0  0  0  0
   -9.9153   14.5249  -39.1896 H   0  0  0  0  0  0  0  0  0  0  0  0
  -13.5491   17.2489  -38.2727 H   0  0  0  0  0  0  0  0  0  0  0  0
  -12.9609   13.2403  -37.4997 H   0  0  0  0  0  0  0  0  0  0  0  0
  -10.7499   12.3946  -38.6469 H   0  0  0  0  0  0  0  0  0  0  0  0
   -9.1388   12.4552  -38.3882 H   0  0  0  0  0  0  0  0  0  0  0  0
  1  2  1  0  0  0  0
  1  5  1  0  0  0  0
  2  7  1  0  0  0  0
  3  4  1  0  0  0  0
  3  8  1  0  0  0  0
  4  9  1  0  0  0  0
  5 10  1  0  0  0  0
  6  8  1  0  0  0  0
  6 10  1  0  0  0  0
  7 10  1  0  0  0  0
  7 11  1  0  0  0  0
  8 12  1  0  0  0  0
  9 10  1  0  0  0  0
  9 12  1  0  0  0  0
  1 13  1  0  0  0  0
  1 14  1  0  0  0  0
  2 15  1  0  0  0  0
  2 16  1  0  0  0  0
  3 17  1  0  0  0  0
  3 18  1  0  0  0  0
  4 19  1  0  0  0  0
  4 20  1  0  0  0  0
  5 21  1  0  0  0  0
  5 22  1  0  0  0  0
  6 23  1  0  0  0  0
  6 24  1  0  0  0  0
  7 25  1  0  0  0  0
  8 26  1  0  0  0  0
  9 27  1  0  0  0  0
 11 28  1  0  0  0  0
 11 29  1  0  0  0  0
M  END
> <id>
EN300-1461651

> <smiles>
NC1CCCC21CC3CCC2O3

> <IUPAC Name>
7-oxaspiro[bicyclo[2.2.1]heptane-2,1'-cyclopentane]-5'-amine

> <CAS>
2168875-93-0

> <URL>
https://www.enaminestore.com/catalog/EN300-1461651

> <ROCS_ShapeQuery>
_x1247relevant_x1083L0AP1_x1305L0BP1_

> <ROCS_TanimotoCombo>
1.024 

> <ROCS_ShapeTanimoto>
0.499 

> <ROCS_ColorTanimoto>
0.525 

> <ROCS_RefTversky>
0.420 

> <ROCS_RefColorTversky>
0.710 

> <ROCS_RefTverskyCombo>
1.130 

> <ROCS_FitTversky>
1.605 

> <ROCS_FitColorTversky>
0.668 

> <ROCS_FitTverskyCombo>
2.273 

> <ROCS_ColorScore>
-6.890

> <ROCS_Overlap>
1032.837

> <ROCS_Rank>
342                 

$$$$
untitled-dbase-36987_0
  -OEChem-06232314403D

 25 27  0     1  0  0  0  0  0999 V2000
  -10.6609   14.9761  -37.8307 C   0  0  0  0  0  0  0  0  0  0  0  0
  -10.7429   16.0351  -38.9133 C   0  0  0  0  0  0  0  0  0  0  0  0
  -12.7547   15.5608  -36.6591 C   0  0  0  0  0  0  0  0  0  0  0  0
  -13.2202   16.7067  -38.8888 C   0  0  0  0  0  0  0  0  0  0  0  0
  -12.4491   14.4833  -39.8438 C   0  0  0  0  0  0  0  0  0  0  0  0
  -14.2465   14.5293  -38.1510 C   0  0  0  0  0  0  0  0  0  0  0  0
  -11.9760   14.4136  -37.3267 C   0  0  1  0  0  0  0  0  0  0  0  0
  -12.0894   15.9634  -39.6512 C   0  0  2  0  0  0  0  0  0  0  0  0
  -13.8181   15.9221  -37.6967 C   0  0  1  0  0  0  0  0  0  0  0  0
  -12.8850   13.9109  -38.4845 C   0  0  2  0  0  0  0  0  0  0  0  0
   -9.5832   14.6359  -37.3447 O   0  0  0  0  0  0  0  0  0  0  0  0
  -10.5790   17.0213  -38.4685 H   0  0  0  0  0  0  0  0  0  0  0  0
   -9.9317   15.8353  -39.6235 H   0  0  0  0  0  0  0  0  0  0  0  0
  -13.2392   15.1896  -35.7471 H   0  0  0  0  0  0  0  0  0  0  0  0
  -12.1362   16.4195  -36.3767 H   0  0  0  0  0  0  0  0  0  0  0  0
  -12.8620   17.6854  -38.5472 H   0  0  0  0  0  0  0  0  0  0  0  0
  -14.0331   16.9044  -39.6000 H   0  0  0  0  0  0  0  0  0  0  0  0
  -13.2528   14.3789  -40.5827 H   0  0  0  0  0  0  0  0  0  0  0  0
  -11.5894   13.9254  -40.2356 H   0  0  0  0  0  0  0  0  0  0  0  0
  -14.7327   13.9813  -37.3345 H   0  0  0  0  0  0  0  0  0  0  0  0
  -14.9359   14.5510  -39.0012 H   0  0  0  0  0  0  0  0  0  0  0  0
  -11.7740   13.6134  -36.6066 H   0  0  0  0  0  0  0  0  0  0  0  0
  -11.9619   16.4459  -40.6280 H   0  0  0  0  0  0  0  0  0  0  0  0
  -14.6455   16.4813  -37.2493 H   0  0  0  0  0  0  0  0  0  0  0  0
  -12.9413   12.8188  -38.5269 H   0  0  0  0  0  0  0  0  0  0  0  0
  1  2  1  0  0  0  0
  1  7  1  0  0  0  0
  1 11  2  0  0  0  0
  2  8  1  0  0  0  0
  3  7  1  0  0  0  0
  3  9  1  0  0  0  0
  4  8  1  0  0  0  0
  4  9  1  0  0  0  0
  5  8  1  0  0  0  0
  5 10  1  0  0  0  0
  6  9  1  0  0  0  0
  6 10  1  0  0  0  0
  7 10  1  0  0  0  0
  2 12  1  0  0  0  0
  2 13  1  0  0  0  0
  3 14  1  0  0  0  0
  3 15  1  0  0  0  0
  4 16  1  0  0  0  0
  4 17  1  0  0  0  0
  5 18  1  0  0  0  0
  5 19  1  0  0  0  0
  6 20  1  0  0  0  0
  6 21  1  0  0  0  0
  7 22  1  0  0  0  0
  8 23  1  0  0  0  0
  9 24  1  0  0  0  0
 10 25  1  0  0  0  0
M  END
> <id>
EN300-125517

> <smiles>
O=C1CC2CC3CC(C2)C1C3

> <MDLNUMBER>
MFCD28968940

> <IUPAC Name>
tricyclo[4.3.1.0,3,8]decan-4-one

> <CAS>
27567-85-7

> <Purity>
95

> <URL>
https://www.enaminestore.com/catalog/EN300-125517

> <MP>
210-212

> <ROCS_ShapeQuery>
_x1247relevant_x1083L0AP1_x1305L0BP1_

> <ROCS_TanimotoCombo>
1.024 

> <ROCS_ShapeTanimoto>
0.472 

> <ROCS_ColorTanimoto>
0.551 

> <ROCS_RefTversky>
0.399 

> <ROCS_RefColorTversky>
0.812 

> <ROCS_RefTverskyCombo>
1.211 

> <ROCS_FitTversky>
1.634 

> <ROCS_FitColorTversky>
0.632 

> <ROCS_FitTverskyCombo>
2.266 

> <ROCS_ColorScore>
-7.972

> <ROCS_Overlap>
980.977

> <ROCS_Rank>
343                 

$$$$
untitled-dbase-34838_20
  -OEChem-06232314403D

 38 39  0     1  0  0  0  0  0999 V2000
  -10.1714   14.5865  -37.5690 C   0  0  0  0  0  0  0  0  0  0  0  0
  -13.7475   14.3230  -37.4382 C   0  0  0  0  0  0  0  0  0  0  0  0
  -13.5234   15.7808  -36.9856 C   0  0  0  0  0  0  0  0  0  0  0  0
  -12.6515   14.3245  -39.7532 C   0  0  0  0  0  0  0  0  0  0  0  0
  -12.2739   16.7647  -38.9934 C   0  0  0  0  0  0  0  0  0  0  0  0
  -12.5034   13.9698  -38.2591 C   0  0  1  0  0  0  0  0  0  0  0  0
  -12.1631   16.1720  -37.5734 C   0  0  2  0  0  0  0  0  0  0  0  0
  -12.9600   15.8221  -40.0171 C   0  0  0  0  0  0  0  0  0  0  0  0
   -9.6790   13.9623  -35.0727 C   0  0  0  0  0  0  0  0  0  0  0  0
   -9.8159   11.5341  -35.7005 C   0  0  0  0  0  0  0  0  0  0  0  0
   -7.8013   12.8834  -36.3553 C   0  0  0  0  0  0  0  0  0  0  0  0
   -9.3109   12.9127  -36.1204 C   0  0  0  0  0  0  0  0  0  0  0  0
  -11.5131   14.8791  -37.7146 N   0  0  0  0  0  0  0  0  0  0  0  0
  -14.4088   16.0470  -40.0204 N   0  0  0  0  0  0  0  0  0  0  0  0
   -9.2723   15.4223  -37.6247 O   0  0  0  0  0  0  0  0  0  0  0  0
   -9.9574   13.2522  -37.3521 O   0  0  0  0  0  0  0  0  0  0  0  0
  -13.8071   13.6804  -36.5514 H   0  0  0  0  0  0  0  0  0  0  0  0
  -14.6814   14.1980  -37.9939 H   0  0  0  0  0  0  0  0  0  0  0  0
  -14.3353   16.4440  -37.2980 H   0  0  0  0  0  0  0  0  0  0  0  0
  -13.4813   15.8104  -35.8900 H   0  0  0  0  0  0  0  0  0  0  0  0
  -11.7077   14.0791  -40.2594 H   0  0  0  0  0  0  0  0  0  0  0  0
  -13.4121   13.6830  -40.2160 H   0  0  0  0  0  0  0  0  0  0  0  0
  -12.7848   17.7351  -38.9547 H   0  0  0  0  0  0  0  0  0  0  0  0
  -11.2588   16.9773  -39.3563 H   0  0  0  0  0  0  0  0  0  0  0  0
  -12.2029   12.9241  -38.1405 H   0  0  0  0  0  0  0  0  0  0  0  0
  -11.6055   16.8466  -36.9174 H   0  0  0  0  0  0  0  0  0  0  0  0
  -12.6034   16.0798  -41.0217 H   0  0  0  0  0  0  0  0  0  0  0  0
   -9.3183   14.9534  -35.3705 H   0  0  0  0  0  0  0  0  0  0  0  0
  -10.7618   14.0178  -34.9204 H   0  0  0  0  0  0  0  0  0  0  0  0
   -9.2052   13.7372  -34.1104 H   0  0  0  0  0  0  0  0  0  0  0  0
   -9.5540   10.7779  -36.4493 H   0  0  0  0  0  0  0  0  0  0  0  0
  -10.9092   11.5259  -35.6228 H   0  0  0  0  0  0  0  0  0  0  0  0
   -9.3976   11.2269  -34.7365 H   0  0  0  0  0  0  0  0  0  0  0  0
   -7.5370   12.1306  -37.1067 H   0  0  0  0  0  0  0  0  0  0  0  0
   -7.4268   13.8552  -36.6930 H   0  0  0  0  0  0  0  0  0  0  0  0
   -7.2697   12.6048  -35.4382 H   0  0  0  0  0  0  0  0  0  0  0  0
  -14.5689   17.0016  -40.2320 H   0  0  0  0  0  0  0  0  0  0  0  0
  -14.8067   15.4589  -40.7113 H   0  0  0  0  0  0  0  0  0  0  0  0
  1 13  1  0  0  0  0
  1 15  2  0  0  0  0
  1 16  1  0  0  0  0
  2  3  1  0  0  0  0
  2  6  1  1  0  0  0
  3  7  1  1  0  0  0
  4  6  1  0  0  0  0
  4  8  1  0  0  0  0
  5  7  1  0  0  0  0
  5  8  1  0  0  0  0
  6 13  1  0  0  0  0
  7 13  1  0  0  0  0
  8 14  1  1  0  0  0
  9 12  1  0  0  0  0
 10 12  1  0  0  0  0
 11 12  1  0  0  0  0
 12 16  1  0  0  0  0
  2 17  1  0  0  0  0
  2 18  1  0  0  0  0
  3 19  1  0  0  0  0
  3 20  1  0  0  0  0
  4 21  1  0  0  0  0
  4 22  1  0  0  0  0
  5 23  1  0  0  0  0
  5 24  1  0  0  0  0
  6 25  1  0  0  0  0
  7 26  1  0  0  0  0
  8 27  1  0  0  0  0
  9 28  1  0  0  0  0
  9 29  1  0  0  0  0
  9 30  1  0  0  0  0
 10 31  1  0  0  0  0
 10 32  1  0  0  0  0
 10 33  1  0  0  0  0
 11 34  1  0  0  0  0
 11 35  1  0  0  0  0
 11 36  1  0  0  0  0
 14 37  1  0  0  0  0
 14 38  1  0  0  0  0
M  END
> <id>
EN300-268846

> <smiles>
CC(C)(C)OC(=O)N1[C@H]2CC[C@@H]1C[C@H](N)C2

> <MDLNUMBER>
MFCD18428077

> <IUPAC Name>
tert-butyl (1R,3R,5S)-3-amino-8-azabicyclo[3.2.1]octane-8-carboxylate

> <CAS>
207405-68-3

> <Purity>
95

> <URL>
https://www.enaminestore.com/catalog/EN300-268846

> <ROCS_ShapeQuery>
_x1247relevant_x1083L0AP1_x1305L0BP1_

> <ROCS_TanimotoCombo>
1.023 

> <ROCS_ShapeTanimoto>
0.518 

> <ROCS_ColorTanimoto>
0.505 

> <ROCS_RefTversky>
0.451 

> <ROCS_RefColorTversky>
0.676 

> <ROCS_RefTverskyCombo>
1.127 

> <ROCS_FitTversky>
1.397 

> <ROCS_FitColorTversky>
0.667 

> <ROCS_FitTverskyCombo>
2.064 

> <ROCS_ColorScore>
-6.537

> <ROCS_Overlap>
1114.605

> <ROCS_Rank>
344                 

$$$$
untitled-dbase-35901_0
  -OEChem-06232314403D

 19 21  0     1  0  0  0  0  0999 V2000
  -13.4859   15.5276  -37.2666 C   0  0  0  0  0  0  0  0  0  0  0  0
  -13.9303   14.3888  -39.2636 C   0  0  0  0  0  0  0  0  0  0  0  0
  -13.1032   14.2249  -37.9732 C   0  0  1  0  0  0  0  0  0  0  0  0
  -11.6413   14.4170  -38.3664 C   0  0  1  0  0  0  0  0  0  0  0  0
  -11.5777   15.8860  -38.7079 C   0  0  1  0  0  0  0  0  0  0  0  0
  -12.9918   16.3854  -38.4310 C   0  0  1  0  0  0  0  0  0  0  0  0
  -10.6617   15.3105  -37.6837 C   0  0  0  0  0  0  0  0  0  0  0  0
  -13.8580   15.8542  -39.5166 N   0  0  0  0  0  0  0  0  0  0  0  0
  -10.7612   15.6252  -36.3498 F   0  0  0  0  0  0  0  0  0  0  0  0
   -9.3173   15.1870  -37.9622 F   0  0  0  0  0  0  0  0  0  0  0  0
  -14.5613   15.6223  -37.0732 H   0  0  0  0  0  0  0  0  0  0  0  0
  -12.9519   15.6964  -36.3296 H   0  0  0  0  0  0  0  0  0  0  0  0
  -13.5247   13.8190  -40.1060 H   0  0  0  0  0  0  0  0  0  0  0  0
  -14.9758   14.1046  -39.1059 H   0  0  0  0  0  0  0  0  0  0  0  0
  -13.3005   13.3088  -37.4141 H   0  0  0  0  0  0  0  0  0  0  0  0
  -11.2728   13.6936  -39.0802 H   0  0  0  0  0  0  0  0  0  0  0  0
  -11.1656   16.1935  -39.6587 H   0  0  0  0  0  0  0  0  0  0  0  0
  -13.0739   17.4648  -38.2911 H   0  0  0  0  0  0  0  0  0  0  0  0
  -13.4377   16.0367  -40.4269 H   0  0  0  0  0  0  0  0  0  0  0  0
  1  3  1  0  0  0  0
  1  6  1  0  0  0  0
  2  3  1  6  0  0  0
  2  8  1  0  0  0  0
  3  4  1  0  0  0  0
  4  5  1  0  0  0  0
  4  7  1  1  0  0  0
  5  6  1  0  0  0  0
  5  7  1  1  0  0  0
  6  8  1  6  0  0  0
  7  9  1  0  0  0  0
  7 10  1  0  0  0  0
  1 11  1  0  0  0  0
  1 12  1  0  0  0  0
  2 13  1  0  0  0  0
  2 14  1  0  0  0  0
  3 15  1  0  0  0  0
  4 16  1  0  0  0  0
  5 17  1  0  0  0  0
  6 18  1  0  0  0  0
  8 19  1  0  0  0  0
M  END
> <id>
EN300-1717549

> <smiles>
FC1(F)[C@@H]2[C@H]1[C@@H]3C[C@H]2CN3 |&1:3,4,5,7,r|

> <MDLNUMBER>
MFCD31690007

> <IUPAC Name>
rac-(1R,2S,4S,5S)-3,3-difluoro-6-azatricyclo[3.2.1.0,2,4]octane

> <CAS>
2227876-70-0

> <URL>
https://www.enaminestore.com/catalog/EN300-1717549

> <ROCS_ShapeQuery>
_x1247relevant_x1083L0AP1_x1305L0BP1_

> <ROCS_TanimotoCombo>
1.023 

> <ROCS_ShapeTanimoto>
0.467 

> <ROCS_ColorTanimoto>
0.557 

> <ROCS_RefTversky>
0.392 

> <ROCS_RefColorTversky>
1.017 

> <ROCS_RefTverskyCombo>
1.408 

> <ROCS_FitTversky>
1.695 

> <ROCS_FitColorTversky>
0.551 

> <ROCS_FitTverskyCombo>
2.247 

> <ROCS_ColorScore>
-10.309

> <ROCS_Overlap>
962.489

> <ROCS_Rank>
345                 

$$$$
untitled-dbase-19627_0
  -OEChem-06232314403D

 19 21  0     1  0  0  0  0  0999 V2000
  -13.4859   15.5276  -37.2666 C   0  0  0  0  0  0  0  0  0  0  0  0
  -13.9303   14.3888  -39.2636 C   0  0  0  0  0  0  0  0  0  0  0  0
  -13.1032   14.2249  -37.9732 C   0  0  1  0  0  0  0  0  0  0  0  0
  -11.6413   14.4170  -38.3664 C   0  0  1  0  0  0  0  0  0  0  0  0
  -11.5777   15.8860  -38.7079 C   0  0  1  0  0  0  0  0  0  0  0  0
  -12.9918   16.3854  -38.4310 C   0  0  1  0  0  0  0  0  0  0  0  0
  -10.6617   15.3105  -37.6837 C   0  0  0  0  0  0  0  0  0  0  0  0
  -13.8580   15.8542  -39.5166 N   0  0  0  0  0  0  0  0  0  0  0  0
  -10.7612   15.6252  -36.3498 F   0  0  0  0  0  0  0  0  0  0  0  0
   -9.3173   15.1870  -37.9622 F   0  0  0  0  0  0  0  0  0  0  0  0
  -14.5613   15.6223  -37.0732 H   0  0  0  0  0  0  0  0  0  0  0  0
  -12.9519   15.6964  -36.3296 H   0  0  0  0  0  0  0  0  0  0  0  0
  -13.5247   13.8190  -40.1060 H   0  0  0  0  0  0  0  0  0  0  0  0
  -14.9758   14.1046  -39.1059 H   0  0  0  0  0  0  0  0  0  0  0  0
  -13.3005   13.3088  -37.4141 H   0  0  0  0  0  0  0  0  0  0  0  0
  -11.2728   13.6936  -39.0802 H   0  0  0  0  0  0  0  0  0  0  0  0
  -11.1656   16.1935  -39.6587 H   0  0  0  0  0  0  0  0  0  0  0  0
  -13.0739   17.4648  -38.2911 H   0  0  0  0  0  0  0  0  0  0  0  0
  -13.4377   16.0367  -40.4269 H   0  0  0  0  0  0  0  0  0  0  0  0
  1  3  1  0  0  0  0
  1  6  1  0  0  0  0
  2  3  1  6  0  0  0
  2  8  1  0  0  0  0
  3  4  1  0  0  0  0
  4  5  1  0  0  0  0
  4  7  1  1  0  0  0
  5  6  1  0  0  0  0
  5  7  1  1  0  0  0
  6  8  1  6  0  0  0
  7  9  1  0  0  0  0
  7 10  1  0  0  0  0
  1 11  1  0  0  0  0
  1 12  1  0  0  0  0
  2 13  1  0  0  0  0
  2 14  1  0  0  0  0
  3 15  1  0  0  0  0
  4 16  1  0  0  0  0
  5 17  1  0  0  0  0
  6 18  1  0  0  0  0
  8 19  1  0  0  0  0
M  END
> <id>
EN300-1717548

> <smiles>
Cl.FC1(F)[C@@H]2[C@H]1[C@@H]3C[C@H]2CN3 |&1:4,5,6,8,r|

> <MDLNUMBER>
MFCD31690006

> <IUPAC Name>
rac-(1R,2S,4S,5S)-3,3-difluoro-6-azatricyclo[3.2.1.0,2,4]octane hydrochloride

> <CAS>
2227900-63-0

> <Purity>
95

> <URL>
https://www.enaminestore.com/catalog/EN300-1717548

> <Saltdate>
Cl

> <ROCS_ShapeQuery>
_x1247relevant_x1083L0AP1_x1305L0BP1_

> <ROCS_TanimotoCombo>
1.023 

> <ROCS_ShapeTanimoto>
0.467 

> <ROCS_ColorTanimoto>
0.557 

> <ROCS_RefTversky>
0.392 

> <ROCS_RefColorTversky>
1.017 

> <ROCS_RefTverskyCombo>
1.408 

> <ROCS_FitTversky>
1.695 

> <ROCS_FitColorTversky>
0.551 

> <ROCS_FitTverskyCombo>
2.247 

> <ROCS_ColorScore>
-10.309

> <ROCS_Overlap>
962.489

> <ROCS_Rank>
346                 

$$$$
untitled-dbase-48308_0
  -OEChem-06232314403D

 28 30  0     1  0  0  0  0  0999 V2000
  -13.3900   14.6447  -39.5021 C   0  0  0  0  0  0  0  0  0  0  0  0
  -13.1725   16.1645  -39.4096 C   0  0  0  0  0  0  0  0  0  0  0  0
  -13.3109   15.3068  -37.2254 C   0  0  0  0  0  0  0  0  0  0  0  0
  -10.7232   13.6019  -36.8504 C   0  0  0  0  0  0  0  0  0  0  0  0
  -10.3407   15.8842  -36.6774 C   0  0  0  0  0  0  0  0  0  0  0  0
  -12.9052   14.1391  -38.1283 C   0  0  2  0  0  0  0  0  0  0  0  0
  -12.5008   16.3327  -38.0323 C   0  0  1  0  0  0  0  0  0  0  0  0
  -11.3602   14.1984  -38.1037 C   0  0  1  0  0  0  0  0  0  0  0  0
  -11.0693   15.7195  -38.0223 C   0  0  2  0  0  0  0  0  0  0  0  0
  -10.1635   16.1936  -39.1657 C   0  0  0  0  0  0  0  0  0  0  0  0
   -9.7106   14.5791  -36.4357 N   0  0  0  0  0  0  0  0  0  0  0  0
  -14.4547   14.4251  -39.6491 H   0  0  0  0  0  0  0  0  0  0  0  0
  -12.8354   14.1993  -40.3356 H   0  0  0  0  0  0  0  0  0  0  0  0
  -12.5926   16.5601  -40.2470 H   0  0  0  0  0  0  0  0  0  0  0  0
  -14.1430   16.6772  -39.4244 H   0  0  0  0  0  0  0  0  0  0  0  0
  -14.3903   15.5047  -37.2650 H   0  0  0  0  0  0  0  0  0  0  0  0
  -13.0552   15.2221  -36.1744 H   0  0  0  0  0  0  0  0  0  0  0  0
  -11.4467   13.4102  -36.0553 H   0  0  0  0  0  0  0  0  0  0  0  0
  -10.2261   12.6572  -37.0915 H   0  0  0  0  0  0  0  0  0  0  0  0
   -9.5536   16.6385  -36.7256 H   0  0  0  0  0  0  0  0  0  0  0  0
  -11.0135   16.1506  -35.8636 H   0  0  0  0  0  0  0  0  0  0  0  0
  -13.3196   13.1698  -37.8500 H   0  0  0  0  0  0  0  0  0  0  0  0
  -12.5508   17.3524  -37.6505 H   0  0  0  0  0  0  0  0  0  0  0  0
  -10.9374   13.7185  -38.9960 H   0  0  0  0  0  0  0  0  0  0  0  0
  -10.6811   16.0760  -40.1150 H   0  0  0  0  0  0  0  0  0  0  0  0
   -9.2509   15.6022  -39.1784 H   0  0  0  0  0  0  0  0  0  0  0  0
   -9.9109   17.2416  -39.0214 H   0  0  0  0  0  0  0  0  0  0  0  0
   -9.4516   14.4571  -35.4704 H   0  0  0  0  0  0  0  0  0  0  0  0
  1  2  1  0  0  0  0
  1  6  1  1  0  0  0
  2  7  1  1  0  0  0
  3  6  1  0  0  0  0
  3  7  1  0  0  0  0
  4  8  1  0  0  0  0
  4 11  1  0  0  0  0
  5  9  1  0  0  0  0
  5 11  1  0  0  0  0
  6  8  1  0  0  0  0
  7  9  1  0  0  0  0
  8  9  1  0  0  0  0
  9 10  1  1  0  0  0
  1 12  1  0  0  0  0
  1 13  1  0  0  0  0
  2 14  1  0  0  0  0
  2 15  1  0  0  0  0
  3 16  1  0  0  0  0
  3 17  1  0  0  0  0
  4 18  1  0  0  0  0
  4 19  1  0  0  0  0
  5 20  1  0  0  0  0
  5 21  1  0  0  0  0
  6 22  1  0  0  0  0
  7 23  1  0  0  0  0
  8 24  1  0  0  0  0
 10 25  1  0  0  0  0
 10 26  1  0  0  0  0
 10 27  1  0  0  0  0
 11 28  1  0  0  0  0
M  END
> <id>
EN300-248673

> <smiles>
Cl.C[C@@]12CNCC2[C@@H]3CC[C@H]1C3 |&1:2,r|

> <IUPAC Name>
(1S,2RS,7R)-2-methyl-4-azatricyclo[5.2.1.0,2,6]decane hydrochloride

> <CAS>
1909301-16-1

> <URL>
https://www.enaminestore.com/catalog/EN300-248673

> <Saltdate>
Cl

> <ROCS_ShapeQuery>
_x1247relevant_x1083L0AP1_x1305L0BP1_

> <ROCS_TanimotoCombo>
1.023 

> <ROCS_ShapeTanimoto>
0.487 

> <ROCS_ColorTanimoto>
0.536 

> <ROCS_RefTversky>
0.407 

> <ROCS_RefColorTversky>
0.689 

> <ROCS_RefTverskyCombo>
1.097 

> <ROCS_FitTversky>
1.672 

> <ROCS_FitColorTversky>
0.707 

> <ROCS_FitTverskyCombo>
2.379 

> <ROCS_ColorScore>
-6.651

> <ROCS_Overlap>
1001.575

> <ROCS_Rank>
347                 

$$$$
untitled-dbase-39722_0
  -OEChem-06232314403D

 28 30  0     1  0  0  0  0  0999 V2000
  -13.3900   14.6447  -39.5021 C   0  0  0  0  0  0  0  0  0  0  0  0
  -13.1725   16.1645  -39.4096 C   0  0  0  0  0  0  0  0  0  0  0  0
  -13.3109   15.3068  -37.2254 C   0  0  0  0  0  0  0  0  0  0  0  0
  -10.7232   13.6019  -36.8504 C   0  0  0  0  0  0  0  0  0  0  0  0
  -10.3407   15.8842  -36.6774 C   0  0  0  0  0  0  0  0  0  0  0  0
  -12.9052   14.1391  -38.1283 C   0  0  2  0  0  0  0  0  0  0  0  0
  -12.5008   16.3327  -38.0323 C   0  0  1  0  0  0  0  0  0  0  0  0
  -11.3602   14.1984  -38.1037 C   0  0  1  0  0  0  0  0  0  0  0  0
  -11.0693   15.7195  -38.0223 C   0  0  2  0  0  0  0  0  0  0  0  0
  -10.1635   16.1936  -39.1657 C   0  0  0  0  0  0  0  0  0  0  0  0
   -9.7106   14.5791  -36.4357 N   0  0  0  0  0  0  0  0  0  0  0  0
  -14.4547   14.4251  -39.6491 H   0  0  0  0  0  0  0  0  0  0  0  0
  -12.8354   14.1993  -40.3356 H   0  0  0  0  0  0  0  0  0  0  0  0
  -12.5926   16.5601  -40.2470 H   0  0  0  0  0  0  0  0  0  0  0  0
  -14.1430   16.6772  -39.4244 H   0  0  0  0  0  0  0  0  0  0  0  0
  -14.3903   15.5047  -37.2650 H   0  0  0  0  0  0  0  0  0  0  0  0
  -13.0552   15.2221  -36.1744 H   0  0  0  0  0  0  0  0  0  0  0  0
  -11.4467   13.4102  -36.0553 H   0  0  0  0  0  0  0  0  0  0  0  0
  -10.2261   12.6572  -37.0915 H   0  0  0  0  0  0  0  0  0  0  0  0
   -9.5536   16.6385  -36.7256 H   0  0  0  0  0  0  0  0  0  0  0  0
  -11.0135   16.1506  -35.8636 H   0  0  0  0  0  0  0  0  0  0  0  0
  -13.3196   13.1698  -37.8500 H   0  0  0  0  0  0  0  0  0  0  0  0
  -12.5508   17.3524  -37.6505 H   0  0  0  0  0  0  0  0  0  0  0  0
  -10.9374   13.7185  -38.9960 H   0  0  0  0  0  0  0  0  0  0  0  0
  -10.6811   16.0760  -40.1150 H   0  0  0  0  0  0  0  0  0  0  0  0
   -9.2509   15.6022  -39.1784 H   0  0  0  0  0  0  0  0  0  0  0  0
   -9.9109   17.2416  -39.0214 H   0  0  0  0  0  0  0  0  0  0  0  0
   -9.4516   14.4571  -35.4704 H   0  0  0  0  0  0  0  0  0  0  0  0
  1  2  1  0  0  0  0
  1  6  1  1  0  0  0
  2  7  1  1  0  0  0
  3  6  1  0  0  0  0
  3  7  1  0  0  0  0
  4  8  1  0  0  0  0
  4 11  1  0  0  0  0
  5  9  1  0  0  0  0
  5 11  1  0  0  0  0
  6  8  1  0  0  0  0
  7  9  1  0  0  0  0
  8  9  1  0  0  0  0
  9 10  1  1  0  0  0
  1 12  1  0  0  0  0
  1 13  1  0  0  0  0
  2 14  1  0  0  0  0
  2 15  1  0  0  0  0
  3 16  1  0  0  0  0
  3 17  1  0  0  0  0
  4 18  1  0  0  0  0
  4 19  1  0  0  0  0
  5 20  1  0  0  0  0
  5 21  1  0  0  0  0
  6 22  1  0  0  0  0
  7 23  1  0  0  0  0
  8 24  1  0  0  0  0
 10 25  1  0  0  0  0
 10 26  1  0  0  0  0
 10 27  1  0  0  0  0
 11 28  1  0  0  0  0
M  END
> <id>
EN300-248674

> <smiles>
C[C@@]12CNCC2[C@@H]3CC[C@H]1C3 |&1:1,r|

> <IUPAC Name>
(1S,2RS,7R)-2-methyl-4-azatricyclo[5.2.1.0,2,6]decane

> <CAS>
1909301-15-0

> <URL>
https://www.enaminestore.com/catalog/EN300-248674

> <ROCS_ShapeQuery>
_x1247relevant_x1083L0AP1_x1305L0BP1_

> <ROCS_TanimotoCombo>
1.023 

> <ROCS_ShapeTanimoto>
0.487 

> <ROCS_ColorTanimoto>
0.536 

> <ROCS_RefTversky>
0.407 

> <ROCS_RefColorTversky>
0.689 

> <ROCS_RefTverskyCombo>
1.097 

> <ROCS_FitTversky>
1.672 

> <ROCS_FitColorTversky>
0.707 

> <ROCS_FitTverskyCombo>
2.379 

> <ROCS_ColorScore>
-6.651

> <ROCS_Overlap>
1001.575

> <ROCS_Rank>
348                 

$$$$
untitled-dbase-43268_0
  -OEChem-06232314403D

 28 30  0     1  0  0  0  0  0999 V2000
  -13.3900   14.6447  -39.5021 C   0  0  0  0  0  0  0  0  0  0  0  0
  -13.1726   16.1645  -39.4096 C   0  0  0  0  0  0  0  0  0  0  0  0
  -13.3108   15.3068  -37.2253 C   0  0  0  0  0  0  0  0  0  0  0  0
  -10.7232   13.6019  -36.8504 C   0  0  0  0  0  0  0  0  0  0  0  0
  -10.3408   15.8842  -36.6774 C   0  0  0  0  0  0  0  0  0  0  0  0
  -12.9051   14.1391  -38.1284 C   0  0  2  0  0  0  0  0  0  0  0  0
  -12.5008   16.3327  -38.0323 C   0  0  1  0  0  0  0  0  0  0  0  0
  -11.3602   14.1984  -38.1037 C   0  0  1  0  0  0  0  0  0  0  0  0
  -11.0692   15.7195  -38.0223 C   0  0  2  0  0  0  0  0  0  0  0  0
  -10.1634   16.1937  -39.1657 C   0  0  0  0  0  0  0  0  0  0  0  0
   -9.7106   14.5792  -36.4356 N   0  0  0  0  0  0  0  0  0  0  0  0
  -14.4548   14.4253  -39.6482 H   0  0  0  0  0  0  0  0  0  0  0  0
  -12.8355   14.1996  -40.3357 H   0  0  0  0  0  0  0  0  0  0  0  0
  -12.5925   16.5602  -40.2468 H   0  0  0  0  0  0  0  0  0  0  0  0
  -14.1429   16.6776  -39.4245 H   0  0  0  0  0  0  0  0  0  0  0  0
  -14.3902   15.5051  -37.2646 H   0  0  0  0  0  0  0  0  0  0  0  0
  -13.0549   15.2221  -36.1745 H   0  0  0  0  0  0  0  0  0  0  0  0
  -11.4464   13.4104  -36.0550 H   0  0  0  0  0  0  0  0  0  0  0  0
  -10.2256   12.6574  -37.0915 H   0  0  0  0  0  0  0  0  0  0  0  0
   -9.5537   16.6385  -36.7250 H   0  0  0  0  0  0  0  0  0  0  0  0
  -11.0136   16.1508  -35.8635 H   0  0  0  0  0  0  0  0  0  0  0  0
  -13.3197   13.1698  -37.8502 H   0  0  0  0  0  0  0  0  0  0  0  0
  -12.5504   17.3526  -37.6510 H   0  0  0  0  0  0  0  0  0  0  0  0
  -10.9375   13.7185  -38.9960 H   0  0  0  0  0  0  0  0  0  0  0  0
  -10.6810   16.0761  -40.1149 H   0  0  0  0  0  0  0  0  0  0  0  0
   -9.2508   15.6023  -39.1782 H   0  0  0  0  0  0  0  0  0  0  0  0
   -9.9109   17.2417  -39.0213 H   0  0  0  0  0  0  0  0  0  0  0  0
   -9.4515   14.4570  -35.4704 H   0  0  0  0  0  0  0  0  0  0  0  0
  1  2  1  0  0  0  0
  1  6  1  0  0  0  0
  2  7  1  0  0  0  0
  3  6  1  0  0  0  0
  3  7  1  0  0  0  0
  4  8  1  0  0  0  0
  4 11  1  0  0  0  0
  5  9  1  0  0  0  0
  5 11  1  0  0  0  0
  6  8  1  0  0  0  0
  7  9  1  0  0  0  0
  8  9  1  0  0  0  0
  9 10  1  0  0  0  0
  1 12  1  0  0  0  0
  1 13  1  0  0  0  0
  2 14  1  0  0  0  0
  2 15  1  0  0  0  0
  3 16  1  0  0  0  0
  3 17  1  0  0  0  0
  4 18  1  0  0  0  0
  4 19  1  0  0  0  0
  5 20  1  0  0  0  0
  5 21  1  0  0  0  0
  6 22  1  0  0  0  0
  7 23  1  0  0  0  0
  8 24  1  0  0  0  0
 10 25  1  0  0  0  0
 10 26  1  0  0  0  0
 10 27  1  0  0  0  0
 11 28  1  0  0  0  0
M  END
> <id>
EN300-297646

> <smiles>
CC12CNCC2C3CCC1C3

> <MDLNUMBER>
MFCD24518315

> <IUPAC Name>
2-methyl-4-azatricyclo[5.2.1.0,2,6]decane

> <CAS>
1955523-63-3

> <URL>
https://www.enaminestore.com/catalog/EN300-297646

> <ROCS_ShapeQuery>
_x1247relevant_x1083L0AP1_x1305L0BP1_

> <ROCS_TanimotoCombo>
1.023 

> <ROCS_ShapeTanimoto>
0.487 

> <ROCS_ColorTanimoto>
0.536 

> <ROCS_RefTversky>
0.407 

> <ROCS_RefColorTversky>
0.689 

> <ROCS_RefTverskyCombo>
1.097 

> <ROCS_FitTversky>
1.672 

> <ROCS_FitColorTversky>
0.707 

> <ROCS_FitTverskyCombo>
2.379 

> <ROCS_ColorScore>
-6.651

> <ROCS_Overlap>
1001.561

> <ROCS_Rank>
349                 

$$$$
untitled-dbase-41559_0
  -OEChem-06232314403D

 28 30  0     1  0  0  0  0  0999 V2000
  -13.3900   14.6447  -39.5021 C   0  0  0  0  0  0  0  0  0  0  0  0
  -13.1726   16.1645  -39.4096 C   0  0  0  0  0  0  0  0  0  0  0  0
  -13.3108   15.3068  -37.2253 C   0  0  0  0  0  0  0  0  0  0  0  0
  -10.7232   13.6019  -36.8504 C   0  0  0  0  0  0  0  0  0  0  0  0
  -10.3408   15.8842  -36.6774 C   0  0  0  0  0  0  0  0  0  0  0  0
  -12.9051   14.1391  -38.1284 C   0  0  2  0  0  0  0  0  0  0  0  0
  -12.5008   16.3327  -38.0323 C   0  0  1  0  0  0  0  0  0  0  0  0
  -11.3602   14.1984  -38.1037 C   0  0  1  0  0  0  0  0  0  0  0  0
  -11.0692   15.7195  -38.0223 C   0  0  2  0  0  0  0  0  0  0  0  0
  -10.1634   16.1937  -39.1657 C   0  0  0  0  0  0  0  0  0  0  0  0
   -9.7106   14.5792  -36.4356 N   0  0  0  0  0  0  0  0  0  0  0  0
  -14.4548   14.4253  -39.6482 H   0  0  0  0  0  0  0  0  0  0  0  0
  -12.8355   14.1996  -40.3357 H   0  0  0  0  0  0  0  0  0  0  0  0
  -12.5925   16.5602  -40.2468 H   0  0  0  0  0  0  0  0  0  0  0  0
  -14.1429   16.6776  -39.4245 H   0  0  0  0  0  0  0  0  0  0  0  0
  -14.3902   15.5051  -37.2646 H   0  0  0  0  0  0  0  0  0  0  0  0
  -13.0549   15.2221  -36.1745 H   0  0  0  0  0  0  0  0  0  0  0  0
  -11.4464   13.4104  -36.0550 H   0  0  0  0  0  0  0  0  0  0  0  0
  -10.2256   12.6574  -37.0915 H   0  0  0  0  0  0  0  0  0  0  0  0
   -9.5537   16.6385  -36.7250 H   0  0  0  0  0  0  0  0  0  0  0  0
  -11.0136   16.1508  -35.8635 H   0  0  0  0  0  0  0  0  0  0  0  0
  -13.3197   13.1698  -37.8502 H   0  0  0  0  0  0  0  0  0  0  0  0
  -12.5504   17.3526  -37.6510 H   0  0  0  0  0  0  0  0  0  0  0  0
  -10.9375   13.7185  -38.9960 H   0  0  0  0  0  0  0  0  0  0  0  0
  -10.6810   16.0761  -40.1149 H   0  0  0  0  0  0  0  0  0  0  0  0
   -9.2508   15.6023  -39.1782 H   0  0  0  0  0  0  0  0  0  0  0  0
   -9.9109   17.2417  -39.0213 H   0  0  0  0  0  0  0  0  0  0  0  0
   -9.4515   14.4570  -35.4704 H   0  0  0  0  0  0  0  0  0  0  0  0
  1  2  1  0  0  0  0
  1  6  1  0  0  0  0
  2  7  1  0  0  0  0
  3  6  1  0  0  0  0
  3  7  1  0  0  0  0
  4  8  1  0  0  0  0
  4 11  1  0  0  0  0
  5  9  1  0  0  0  0
  5 11  1  0  0  0  0
  6  8  1  0  0  0  0
  7  9  1  0  0  0  0
  8  9  1  0  0  0  0
  9 10  1  0  0  0  0
  1 12  1  0  0  0  0
  1 13  1  0  0  0  0
  2 14  1  0  0  0  0
  2 15  1  0  0  0  0
  3 16  1  0  0  0  0
  3 17  1  0  0  0  0
  4 18  1  0  0  0  0
  4 19  1  0  0  0  0
  5 20  1  0  0  0  0
  5 21  1  0  0  0  0
  6 22  1  0  0  0  0
  7 23  1  0  0  0  0
  8 24  1  0  0  0  0
 10 25  1  0  0  0  0
 10 26  1  0  0  0  0
 10 27  1  0  0  0  0
 11 28  1  0  0  0  0
M  END
> <id>
EN300-297645

> <smiles>
Cl.CC12CNCC2C3CCC1C3

> <MDLNUMBER>
MFCD30180895

> <IUPAC Name>
2-methyl-4-azatricyclo[5.2.1.0,2,6]decane hydrochloride

> <CAS>
1955523-64-4

> <URL>
https://www.enaminestore.com/catalog/EN300-297645

> <Saltdate>
Cl

> <ROCS_ShapeQuery>
_x1247relevant_x1083L0AP1_x1305L0BP1_

> <ROCS_TanimotoCombo>
1.023 

> <ROCS_ShapeTanimoto>
0.487 

> <ROCS_ColorTanimoto>
0.536 

> <ROCS_RefTversky>
0.407 

> <ROCS_RefColorTversky>
0.689 

> <ROCS_RefTverskyCombo>
1.097 

> <ROCS_FitTversky>
1.672 

> <ROCS_FitColorTversky>
0.707 

> <ROCS_FitTverskyCombo>
2.379 

> <ROCS_ColorScore>
-6.651

> <ROCS_Overlap>
1001.561

> <ROCS_Rank>
350                 

$$$$
untitled-dbase-35922_0
  -OEChem-06232314403D

 30 32  0     1  0  0  0  0  0999 V2000
   -9.7741   14.0036  -35.9249 C   0  0  0  0  0  0  0  0  0  0  0  0
  -11.0751   14.7863  -36.0311 C   0  0  0  0  0  0  0  0  0  0  0  0
  -13.5378   16.0399  -37.2536 C   0  0  0  0  0  0  0  0  0  0  0  0
  -12.2858   16.4849  -39.3307 C   0  0  0  0  0  0  0  0  0  0  0  0
   -9.0250   14.3067  -37.2120 C   0  0  0  0  0  0  0  0  0  0  0  0
  -14.0599   14.7151  -37.8308 C   0  0  0  0  0  0  0  0  0  0  0  0
  -12.9720   15.2383  -39.9137 C   0  0  0  0  0  0  0  0  0  0  0  0
  -11.8516   13.8560  -38.2978 C   0  0  0  0  0  0  0  0  0  0  0  0
  -12.1254   16.3095  -37.8077 C   0  0  0  0  0  0  0  0  0  0  0  0
  -11.2391   15.0671  -37.5307 C   0  0  1  0  0  0  0  0  0  0  0  0
   -9.8370   15.2973  -37.9160 N   0  0  0  0  0  0  0  0  0  0  0  0
  -13.1709   14.1899  -38.8884 N   0  0  0  0  0  0  0  0  0  0  0  0
   -9.2082   14.3083  -35.0386 H   0  0  0  0  0  0  0  0  0  0  0  0
   -9.9753   12.9294  -35.8452 H   0  0  0  0  0  0  0  0  0  0  0  0
  -11.9098   14.2272  -35.5955 H   0  0  0  0  0  0  0  0  0  0  0  0
  -10.9751   15.7234  -35.4675 H   0  0  0  0  0  0  0  0  0  0  0  0
  -14.2100   16.8604  -37.5337 H   0  0  0  0  0  0  0  0  0  0  0  0
  -13.5303   15.9987  -36.1589 H   0  0  0  0  0  0  0  0  0  0  0  0
  -11.3106   16.6376  -39.8069 H   0  0  0  0  0  0  0  0  0  0  0  0
  -12.8897   17.3748  -39.5456 H   0  0  0  0  0  0  0  0  0  0  0  0
   -8.0183   14.6897  -37.0168 H   0  0  0  0  0  0  0  0  0  0  0  0
   -8.9205   13.4017  -37.8205 H   0  0  0  0  0  0  0  0  0  0  0  0
  -14.1638   13.9700  -37.0321 H   0  0  0  0  0  0  0  0  0  0  0  0
  -15.0706   14.8577  -38.2325 H   0  0  0  0  0  0  0  0  0  0  0  0
  -13.9399   15.5131  -40.3520 H   0  0  0  0  0  0  0  0  0  0  0  0
  -12.3770   14.8390  -40.7445 H   0  0  0  0  0  0  0  0  0  0  0  0
  -11.1880   13.5191  -39.1059 H   0  0  0  0  0  0  0  0  0  0  0  0
  -11.9652   12.9852  -37.6397 H   0  0  0  0  0  0  0  0  0  0  0  0
  -11.7087   17.2190  -37.3599 H   0  0  0  0  0  0  0  0  0  0  0  0
   -9.5585   16.2270  -37.5991 H   0  0  0  0  0  0  0  0  0  0  0  0
  1  2  1  0  0  0  0
  1  5  1  0  0  0  0
  2 10  1  0  0  0  0
  3  6  1  0  0  0  0
  3  9  1  0  0  0  0
  4  7  1  0  0  0  0
  4  9  1  0  0  0  0
  5 11  1  0  0  0  0
  6 12  1  0  0  0  0
  7 12  1  0  0  0  0
  8 10  1  0  0  0  0
  8 12  1  0  0  0  0
  9 10  1  0  0  0  0
 10 11  1  0  0  0  0
  1 13  1  0  0  0  0
  1 14  1  0  0  0  0
  2 15  1  0  0  0  0
  2 16  1  0  0  0  0
  3 17  1  0  0  0  0
  3 18  1  0  0  0  0
  4 19  1  0  0  0  0
  4 20  1  0  0  0  0
  5 21  1  0  0  0  0
  5 22  1  0  0  0  0
  6 23  1  0  0  0  0
  6 24  1  0  0  0  0
  7 25  1  0  0  0  0
  7 26  1  0  0  0  0
  8 27  1  0  0  0  0
  8 28  1  0  0  0  0
  9 29  1  0  0  0  0
 11 30  1  0  0  0  0
M  END
> <id>
EN300-26982554

> <smiles>
Cl.Cl.C1CNC2(C1)CN3CCC2CC3

> <MDLNUMBER>
MFCD32702971

> <IUPAC Name>
4-azaspiro[bicyclo[2.2.2]octane-2,2'-pyrrolidine] dihydrochloride

> <CAS>
2460754-52-1

> <Purity>
95

> <URL>
https://www.enaminestore.com/catalog/EN300-26982554

> <Saltdate>
Cl

> <ROCS_ShapeQuery>
_x1247relevant_x1083L0AP1_x1305L0BP1_

> <ROCS_TanimotoCombo>
1.023 

> <ROCS_ShapeTanimoto>
0.500 

> <ROCS_ColorTanimoto>
0.522 

> <ROCS_RefTversky>
0.420 

> <ROCS_RefColorTversky>
0.699 

> <ROCS_RefTverskyCombo>
1.120 

> <ROCS_FitTversky>
1.617 

> <ROCS_FitColorTversky>
0.673 

> <ROCS_FitTverskyCombo>
2.291 

> <ROCS_ColorScore>
-6.774

> <ROCS_Overlap>
1033.898

> <ROCS_Rank>
351                 

$$$$
untitled-dbase-25064_0
  -OEChem-06232314403D

 30 32  0     1  0  0  0  0  0999 V2000
   -9.7741   14.0036  -35.9249 C   0  0  0  0  0  0  0  0  0  0  0  0
  -11.0751   14.7863  -36.0311 C   0  0  0  0  0  0  0  0  0  0  0  0
  -13.5378   16.0399  -37.2536 C   0  0  0  0  0  0  0  0  0  0  0  0
  -12.2858   16.4849  -39.3307 C   0  0  0  0  0  0  0  0  0  0  0  0
   -9.0250   14.3067  -37.2120 C   0  0  0  0  0  0  0  0  0  0  0  0
  -14.0599   14.7151  -37.8308 C   0  0  0  0  0  0  0  0  0  0  0  0
  -12.9720   15.2383  -39.9137 C   0  0  0  0  0  0  0  0  0  0  0  0
  -11.8516   13.8560  -38.2978 C   0  0  0  0  0  0  0  0  0  0  0  0
  -12.1254   16.3095  -37.8077 C   0  0  0  0  0  0  0  0  0  0  0  0
  -11.2391   15.0671  -37.5307 C   0  0  1  0  0  0  0  0  0  0  0  0
   -9.8370   15.2973  -37.9160 N   0  0  0  0  0  0  0  0  0  0  0  0
  -13.1709   14.1899  -38.8884 N   0  0  0  0  0  0  0  0  0  0  0  0
   -9.2082   14.3083  -35.0386 H   0  0  0  0  0  0  0  0  0  0  0  0
   -9.9753   12.9294  -35.8452 H   0  0  0  0  0  0  0  0  0  0  0  0
  -11.9098   14.2272  -35.5955 H   0  0  0  0  0  0  0  0  0  0  0  0
  -10.9751   15.7234  -35.4675 H   0  0  0  0  0  0  0  0  0  0  0  0
  -14.2100   16.8604  -37.5337 H   0  0  0  0  0  0  0  0  0  0  0  0
  -13.5303   15.9987  -36.1589 H   0  0  0  0  0  0  0  0  0  0  0  0
  -11.3106   16.6376  -39.8069 H   0  0  0  0  0  0  0  0  0  0  0  0
  -12.8897   17.3748  -39.5456 H   0  0  0  0  0  0  0  0  0  0  0  0
   -8.0183   14.6897  -37.0168 H   0  0  0  0  0  0  0  0  0  0  0  0
   -8.9205   13.4017  -37.8205 H   0  0  0  0  0  0  0  0  0  0  0  0
  -14.1638   13.9700  -37.0321 H   0  0  0  0  0  0  0  0  0  0  0  0
  -15.0706   14.8577  -38.2325 H   0  0  0  0  0  0  0  0  0  0  0  0
  -13.9399   15.5131  -40.3520 H   0  0  0  0  0  0  0  0  0  0  0  0
  -12.3770   14.8390  -40.7445 H   0  0  0  0  0  0  0  0  0  0  0  0
  -11.1880   13.5191  -39.1059 H   0  0  0  0  0  0  0  0  0  0  0  0
  -11.9652   12.9852  -37.6397 H   0  0  0  0  0  0  0  0  0  0  0  0
  -11.7087   17.2190  -37.3599 H   0  0  0  0  0  0  0  0  0  0  0  0
   -9.5585   16.2270  -37.5991 H   0  0  0  0  0  0  0  0  0  0  0  0
  1  2  1  0  0  0  0
  1  5  1  0  0  0  0
  2 10  1  0  0  0  0
  3  6  1  0  0  0  0
  3  9  1  0  0  0  0
  4  7  1  0  0  0  0
  4  9  1  0  0  0  0
  5 11  1  0  0  0  0
  6 12  1  0  0  0  0
  7 12  1  0  0  0  0
  8 10  1  0  0  0  0
  8 12  1  0  0  0  0
  9 10  1  0  0  0  0
 10 11  1  0  0  0  0
  1 13  1  0  0  0  0
  1 14  1  0  0  0  0
  2 15  1  0  0  0  0
  2 16  1  0  0  0  0
  3 17  1  0  0  0  0
  3 18  1  0  0  0  0
  4 19  1  0  0  0  0
  4 20  1  0  0  0  0
  5 21  1  0  0  0  0
  5 22  1  0  0  0  0
  6 23  1  0  0  0  0
  6 24  1  0  0  0  0
  7 25  1  0  0  0  0
  7 26  1  0  0  0  0
  8 27  1  0  0  0  0
  8 28  1  0  0  0  0
  9 29  1  0  0  0  0
 11 30  1  0  0  0  0
M  END
> <id>
EN300-26982555

> <smiles>
C1CNC2(C1)CN3CCC2CC3

> <MDLNUMBER>
MFCD32702972

> <IUPAC Name>
4-azaspiro[bicyclo[2.2.2]octane-2,2'-pyrrolidine]

> <CAS>
2460754-51-0

> <URL>
https://www.enaminestore.com/catalog/EN300-26982555

> <ROCS_ShapeQuery>
_x1247relevant_x1083L0AP1_x1305L0BP1_

> <ROCS_TanimotoCombo>
1.023 

> <ROCS_ShapeTanimoto>
0.500 

> <ROCS_ColorTanimoto>
0.522 

> <ROCS_RefTversky>
0.420 

> <ROCS_RefColorTversky>
0.699 

> <ROCS_RefTverskyCombo>
1.120 

> <ROCS_FitTversky>
1.617 

> <ROCS_FitColorTversky>
0.673 

> <ROCS_FitTverskyCombo>
2.291 

> <ROCS_ColorScore>
-6.774

> <ROCS_Overlap>
1033.898

> <ROCS_Rank>
352                 

$$$$
untitled-dbase-37597_0
  -OEChem-06232314403D

 32 34  0     0  0  0  0  0  0999 V2000
  -14.1002   14.3474  -38.0221 C   0  0  0  0  0  0  0  0  0  0  0  0
  -12.6512   15.8774  -36.6630 C   0  0  0  0  0  0  0  0  0  0  0  0
  -13.5815   16.6536  -38.8586 C   0  0  0  0  0  0  0  0  0  0  0  0
  -11.6487   13.8715  -37.7967 C   0  0  0  0  0  0  0  0  0  0  0  0
  -12.5790   14.6478  -39.9926 C   0  0  0  0  0  0  0  0  0  0  0  0
  -11.1231   16.1817  -38.6349 C   0  0  0  0  0  0  0  0  0  0  0  0
  -13.8637   15.8076  -37.6060 C   0  0  0  0  0  0  0  0  0  0  0  0
  -12.8590   13.7977  -38.7423 C   0  0  0  0  0  0  0  0  0  0  0  0
  -11.3871   15.3338  -37.3679 C   0  0  0  0  0  0  0  0  0  0  0  0
  -12.3322   16.1224  -39.5984 C   0  0  0  0  0  0  0  0  0  0  0  0
  -10.1832   15.4018  -36.4240 C   0  0  0  0  0  0  0  0  0  0  0  0
  -12.0571   16.9654  -40.8469 C   0  0  0  0  0  0  0  0  0  0  0  0
  -14.3217   13.7369  -37.1381 H   0  0  0  0  0  0  0  0  0  0  0  0
  -14.9751   14.2824  -38.6808 H   0  0  0  0  0  0  0  0  0  0  0  0
  -12.4915   16.9156  -36.3441 H   0  0  0  0  0  0  0  0  0  0  0  0
  -12.8578   15.2976  -35.7542 H   0  0  0  0  0  0  0  0  0  0  0  0
  -14.4547   16.6300  -39.5232 H   0  0  0  0  0  0  0  0  0  0  0  0
  -13.4345   17.7024  -38.5697 H   0  0  0  0  0  0  0  0  0  0  0  0
  -11.8319   13.2444  -36.9147 H   0  0  0  0  0  0  0  0  0  0  0  0
  -10.7637   13.4585  -38.2979 H   0  0  0  0  0  0  0  0  0  0  0  0
  -11.7068   14.2455  -40.5242 H   0  0  0  0  0  0  0  0  0  0  0  0
  -13.4287   14.5770  -40.6837 H   0  0  0  0  0  0  0  0  0  0  0  0
  -10.9225   17.2239  -38.3514 H   0  0  0  0  0  0  0  0  0  0  0  0
  -10.2209   15.8189  -39.1454 H   0  0  0  0  0  0  0  0  0  0  0  0
  -14.7520   16.1936  -37.0932 H   0  0  0  0  0  0  0  0  0  0  0  0
  -13.0339   12.7568  -39.0362 H   0  0  0  0  0  0  0  0  0  0  0  0
   -9.3007   15.0173  -36.9297 H   0  0  0  0  0  0  0  0  0  0  0  0
  -10.3798   14.8028  -35.5380 H   0  0  0  0  0  0  0  0  0  0  0  0
  -10.0083   16.4338  -36.1293 H   0  0  0  0  0  0  0  0  0  0  0  0
  -11.1772   16.5832  -41.3589 H   0  0  0  0  0  0  0  0  0  0  0  0
  -11.8846   17.9995  -40.5582 H   0  0  0  0  0  0  0  0  0  0  0  0
  -12.9127   16.9164  -41.5162 H   0  0  0  0  0  0  0  0  0  0  0  0
  1  7  1  0  0  0  0
  1  8  1  0  0  0  0
  2  7  1  0  0  0  0
  2  9  1  0  0  0  0
  3  7  1  0  0  0  0
  3 10  1  0  0  0  0
  4  8  1  0  0  0  0
  4  9  1  0  0  0  0
  5  8  1  0  0  0  0
  5 10  1  0  0  0  0
  6  9  1  0  0  0  0
  6 10  1  0  0  0  0
  9 11  1  0  0  0  0
 10 12  1  0  0  0  0
  1 13  1  0  0  0  0
  1 14  1  0  0  0  0
  2 15  1  0  0  0  0
  2 16  1  0  0  0  0
  3 17  1  0  0  0  0
  3 18  1  0  0  0  0
  4 19  1  0  0  0  0
  4 20  1  0  0  0  0
  5 21  1  0  0  0  0
  5 22  1  0  0  0  0
  6 23  1  0  0  0  0
  6 24  1  0  0  0  0
  7 25  1  0  0  0  0
  8 26  1  0  0  0  0
 11 27  1  0  0  0  0
 11 28  1  0  0  0  0
 11 29  1  0  0  0  0
 12 30  1  0  0  0  0
 12 31  1  0  0  0  0
 12 32  1  0  0  0  0
M  END
> <id>
EN300-103625

> <smiles>
CC1(CC2CC3C1)CC(C)(C2)C3

> <MDLNUMBER>
MFCD00074755

> <IUPAC Name>
1,3-dimethyladamantane

> <CAS>
702-79-4

> <Purity>
95

> <URL>
https://www.enaminestore.com/catalog/EN300-103625

> <ROCS_ShapeQuery>
_x1247relevant_x1083L0AP1_x1305L0BP1_

> <ROCS_TanimotoCombo>
1.023 

> <ROCS_ShapeTanimoto>
0.480 

> <ROCS_ColorTanimoto>
0.543 

> <ROCS_RefTversky>
0.408 

> <ROCS_RefColorTversky>
0.597 

> <ROCS_RefTverskyCombo>
1.005 

> <ROCS_FitTversky>
1.582 

> <ROCS_FitColorTversky>
0.857 

> <ROCS_FitTverskyCombo>
2.439 

> <ROCS_ColorScore>
-5.675

> <ROCS_Overlap>
1002.868

> <ROCS_Rank>
353                 

$$$$
untitled-dbase-42214_0
  -OEChem-06232314403D

 16 17  0     0  0  0  0  0  0999 V2000
  -12.0644   15.5918  -39.3742 C   0  0  0  0  0  0  0  0  0  0  0  0
  -12.5780   14.0647  -37.9920 C   0  0  0  0  0  0  0  0  0  0  0  0
  -13.5003   15.9719  -37.8577 C   0  0  0  0  0  0  0  0  0  0  0  0
  -11.9880   15.5179  -37.7976 C   0  0  0  0  0  0  0  0  0  0  0  0
  -13.4076   14.9150  -38.9907 C   0  0  0  0  0  0  0  0  0  0  0  0
  -10.9118   15.9751  -36.8930 C   0  0  0  0  0  0  0  0  0  0  0  0
  -10.6821   17.3097  -37.0096 F   0  0  0  0  0  0  0  0  0  0  0  0
  -11.2095   15.7389  -35.5881 F   0  0  0  0  0  0  0  0  0  0  0  0
   -9.7328   15.3487  -37.1480 F   0  0  0  0  0  0  0  0  0  0  0  0
  -14.7411   14.3490  -40.1114 Br  0  0  0  0  0  0  0  0  0  0  0  0
  -12.1147   16.5921  -39.8178 H   0  0  0  0  0  0  0  0  0  0  0  0
  -11.3388   14.9888  -39.9308 H   0  0  0  0  0  0  0  0  0  0  0  0
  -11.9028   13.3118  -38.4131 H   0  0  0  0  0  0  0  0  0  0  0  0
  -13.1101   13.6316  -37.1381 H   0  0  0  0  0  0  0  0  0  0  0  0
  -14.1228   15.7256  -36.9907 H   0  0  0  0  0  0  0  0  0  0  0  0
  -13.6912   17.0093  -38.1529 H   0  0  0  0  0  0  0  0  0  0  0  0
  1  4  1  0  0  0  0
  1  5  1  0  0  0  0
  2  4  1  0  0  0  0
  2  5  1  0  0  0  0
  3  4  1  0  0  0  0
  3  5  1  0  0  0  0
  4  6  1  6  0  0  0
  5 10  1  6  0  0  0
  6  7  1  0  0  0  0
  6  8  1  0  0  0  0
  6  9  1  0  0  0  0
  1 11  1  0  0  0  0
  1 12  1  0  0  0  0
  2 13  1  0  0  0  0
  2 14  1  0  0  0  0
  3 15  1  0  0  0  0
  3 16  1  0  0  0  0
M  END
> <id>
EN300-39870398

> <smiles>
FC(F)(F)[C@]1(C[C@@]2(Br)C1)C2

> <IUPAC Name>
1-bromo-3-(trifluoromethyl)bicyclo[1.1.1]pentane

> <URL>
https://www.enaminestore.com/catalog/EN300-39870398

> <ROCS_ShapeQuery>
_x1247relevant_x1083L0AP1_x1305L0BP1_

> <ROCS_TanimotoCombo>
1.022 

> <ROCS_ShapeTanimoto>
0.404 

> <ROCS_ColorTanimoto>
0.618 

> <ROCS_RefTversky>
0.351 

> <ROCS_RefColorTversky>
0.723 

> <ROCS_RefTverskyCombo>
1.075 

> <ROCS_FitTversky>
1.593 

> <ROCS_FitColorTversky>
0.810 

> <ROCS_FitTverskyCombo>
2.403 

> <ROCS_ColorScore>
-6.951

> <ROCS_Overlap>
862.207

> <ROCS_Rank>
354                 

$$$$
untitled-dbase-33387_1
  -OEChem-06232314403D

 27 29  0     1  0  0  0  0  0999 V2000
   -9.6267   14.6561  -35.7405 C   0  0  0  0  0  0  0  0  0  0  0  0
   -9.4142   13.5992  -36.8108 C   0  0  0  0  0  0  0  0  0  0  0  0
  -10.8705   15.4262  -36.1903 C   0  0  0  0  0  0  0  0  0  0  0  0
   -9.7377   14.3601  -38.0895 C   0  0  0  0  0  0  0  0  0  0  0  0
  -13.9121   15.6854  -39.3249 C   0  0  0  0  0  0  0  0  0  0  0  0
  -14.3454   15.5463  -37.8687 C   0  0  0  0  0  0  0  0  0  0  0  0
  -12.4180   15.3906  -39.3299 C   0  0  2  0  0  0  0  0  0  0  0  0
  -12.3031   14.4149  -38.1438 C   0  0  1  0  0  0  0  0  0  0  0  0
  -11.4721   16.3640  -38.5776 C   0  0  1  0  0  0  0  0  0  0  0  0
  -10.9942   15.1573  -37.7017 C   0  0  0  0  0  0  0  0  0  0  0  0
  -13.4935   14.5321  -37.3241 O   0  0  0  0  0  0  0  0  0  0  0  0
  -10.1753   17.2737  -39.6873 Br  0  0  0  0  0  0  0  0  0  0  0  0
   -9.8145   14.1760  -34.7669 H   0  0  0  0  0  0  0  0  0  0  0  0
   -8.7558   15.3157  -35.6198 H   0  0  0  0  0  0  0  0  0  0  0  0
   -8.3703   13.2654  -36.8134 H   0  0  0  0  0  0  0  0  0  0  0  0
  -10.0587   12.7271  -36.6723 H   0  0  0  0  0  0  0  0  0  0  0  0
  -11.7526   15.1156  -35.6200 H   0  0  0  0  0  0  0  0  0  0  0  0
  -10.7124   16.4965  -36.0009 H   0  0  0  0  0  0  0  0  0  0  0  0
   -8.9053   14.9693  -38.4349 H   0  0  0  0  0  0  0  0  0  0  0  0
   -9.9693   13.6352  -38.8750 H   0  0  0  0  0  0  0  0  0  0  0  0
  -14.4299   14.9320  -39.9305 H   0  0  0  0  0  0  0  0  0  0  0  0
  -14.1538   16.6698  -39.7350 H   0  0  0  0  0  0  0  0  0  0  0  0
  -14.1861   16.4704  -37.3049 H   0  0  0  0  0  0  0  0  0  0  0  0
  -15.3922   15.2459  -37.7762 H   0  0  0  0  0  0  0  0  0  0  0  0
  -12.0310   15.0025  -40.2799 H   0  0  0  0  0  0  0  0  0  0  0  0
  -12.1689   13.3695  -38.4411 H   0  0  0  0  0  0  0  0  0  0  0  0
  -12.0158   17.1181  -38.0023 H   0  0  0  0  0  0  0  0  0  0  0  0
  1  2  1  0  0  0  0
  1  3  1  0  0  0  0
  2  4  1  0  0  0  0
  3 10  1  0  0  0  0
  4 10  1  0  0  0  0
  5  6  1  0  0  0  0
  5  7  1  0  0  0  0
  6 11  1  0  0  0  0
  7  8  1  0  0  0  0
  7  9  1  0  0  0  0
  8 10  1  0  0  0  0
  8 11  1  0  0  0  0
  9 10  1  0  0  0  0
  9 12  1  0  0  0  0
  1 13  1  0  0  0  0
  1 14  1  0  0  0  0
  2 15  1  0  0  0  0
  2 16  1  0  0  0  0
  3 17  1  0  0  0  0
  3 18  1  0  0  0  0
  4 19  1  0  0  0  0
  4 20  1  0  0  0  0
  5 21  1  0  0  0  0
  5 22  1  0  0  0  0
  6 23  1  0  0  0  0
  6 24  1  0  0  0  0
  7 25  1  0  0  0  0
  8 26  1  0  0  0  0
  9 27  1  0  0  0  0
M  END
> <id>
EN300-359569

> <smiles>
BrC1C2CCOC2C31CCCC3

> <MDLNUMBER>
MFCD30538154

> <IUPAC Name>
7-bromo-4-oxaspiro[bicyclo[3.2.0]heptane-6,1'-cyclopentane]

> <CAS>
2137746-42-8

> <URL>
https://www.enaminestore.com/catalog/EN300-359569

> <ROCS_ShapeQuery>
_x1247relevant_x1083L0AP1_x1305L0BP1_

> <ROCS_TanimotoCombo>
1.022 

> <ROCS_ShapeTanimoto>
0.483 

> <ROCS_ColorTanimoto>
0.539 

> <ROCS_RefTversky>
0.408 

> <ROCS_RefColorTversky>
0.660 

> <ROCS_RefTverskyCombo>
1.068 

> <ROCS_FitTversky>
1.622 

> <ROCS_FitColorTversky>
0.746 

> <ROCS_FitTverskyCombo>
2.367 

> <ROCS_ColorScore>
-6.337

> <ROCS_Overlap>
1003.101

> <ROCS_Rank>
355                 

$$$$
untitled-dbase-16531_1
  -OEChem-06232314403D

 23 25  0     1  0  0  0  0  0999 V2000
   -9.3888   14.1661  -37.3420 C   0  0  0  0  0  0  0  0  0  0  0  0
   -9.5565   15.1848  -36.2541 C   0  0  0  0  0  0  0  0  0  0  0  0
  -11.0598   15.2735  -36.1297 C   0  0  0  0  0  0  0  0  0  0  0  0
  -12.6260   15.8007  -39.5383 C   0  0  0  0  0  0  0  0  0  0  0  0
  -11.5820   16.1881  -38.4769 C   0  0  0  0  0  0  0  0  0  0  0  0
  -14.1556   15.1911  -37.4843 C   0  0  0  0  0  0  0  0  0  0  0  0
  -13.5730   14.8710  -38.8352 C   0  0  2  0  0  0  0  0  0  0  0  0
  -12.9033   14.3607  -37.6030 C   0  0  1  0  0  0  0  0  0  0  0  0
  -11.5293   14.9674  -37.5334 C   0  0  2  0  0  0  0  0  0  0  0  0
   -8.3572   13.5650  -37.5984 O   0  0  0  0  0  0  0  0  0  0  0  0
  -10.5615   14.0287  -38.0338 O   0  0  0  0  0  0  0  0  0  0  0  0
   -9.0917   14.8110  -35.3375 H   0  0  0  0  0  0  0  0  0  0  0  0
   -9.1211   16.1439  -36.5438 H   0  0  0  0  0  0  0  0  0  0  0  0
  -11.4610   14.5986  -35.3675 H   0  0  0  0  0  0  0  0  0  0  0  0
  -11.3315   16.2997  -35.8501 H   0  0  0  0  0  0  0  0  0  0  0  0
  -13.1378   16.6806  -39.9392 H   0  0  0  0  0  0  0  0  0  0  0  0
  -12.1418   15.2728  -40.3676 H   0  0  0  0  0  0  0  0  0  0  0  0
  -10.6167   16.4179  -38.9352 H   0  0  0  0  0  0  0  0  0  0  0  0
  -11.9336   17.0741  -37.9362 H   0  0  0  0  0  0  0  0  0  0  0  0
  -14.0813   16.2033  -37.1080 H   0  0  0  0  0  0  0  0  0  0  0  0
  -15.0686   14.6814  -37.1995 H   0  0  0  0  0  0  0  0  0  0  0  0
  -14.0969   14.1857  -39.4845 H   0  0  0  0  0  0  0  0  0  0  0  0
  -12.9600   13.3068  -37.3662 H   0  0  0  0  0  0  0  0  0  0  0  0
  1  2  1  0  0  0  0
  1 10  2  0  0  0  0
  1 11  1  0  0  0  0
  2  3  1  0  0  0  0
  3  9  1  0  0  0  0
  4  5  1  0  0  0  0
  4  7  1  6  0  0  0
  5  9  1  0  0  0  0
  6  7  1  0  0  0  0
  6  8  1  6  0  0  0
  7  8  1  0  0  0  0
  8  9  1  0  0  0  0
  9 11  1  0  0  0  0
  2 12  1  0  0  0  0
  2 13  1  0  0  0  0
  3 14  1  0  0  0  0
  3 15  1  0  0  0  0
  4 16  1  0  0  0  0
  4 17  1  0  0  0  0
  5 18  1  0  0  0  0
  5 19  1  0  0  0  0
  6 20  1  0  0  0  0
  6 21  1  0  0  0  0
  7 22  1  0  0  0  0
  8 23  1  0  0  0  0
M  END
> <id>
EN300-1296894

> <smiles>
O=C1CCC2(CC[C@@H]3C[C@@H]32)O1 |&1:7,9,r|

> <IUPAC Name>
rac-(1R,5S)-spiro[bicyclo[3.1.0]hexane-2,2'-oxolane]-5'-one

> <CAS>
2228012-68-6

> <URL>
https://www.enaminestore.com/catalog/EN300-1296894

> <ROCS_ShapeQuery>
_x1247relevant_x1083L0AP1_x1305L0BP1_

> <ROCS_TanimotoCombo>
1.022 

> <ROCS_ShapeTanimoto>
0.481 

> <ROCS_ColorTanimoto>
0.542 

> <ROCS_RefTversky>
0.404 

> <ROCS_RefColorTversky>
0.574 

> <ROCS_RefTverskyCombo>
0.978 

> <ROCS_FitTversky>
1.649 

> <ROCS_FitColorTversky>
0.906 

> <ROCS_FitTverskyCombo>
2.554 

> <ROCS_ColorScore>
-5.435

> <ROCS_Overlap>
993.721

> <ROCS_Rank>
356                 

$$$$
untitled-dbase-22409_0
  -OEChem-06232314403D

 23 25  0     1  0  0  0  0  0999 V2000
   -9.1675   15.1837  -36.6589 C   0  0  0  0  0  0  0  0  0  0  0  0
   -9.3814   13.8057  -36.8508 C   0  0  0  0  0  0  0  0  0  0  0  0
  -10.1854   16.1084  -36.9048 C   0  0  0  0  0  0  0  0  0  0  0  0
  -10.6174   13.3267  -37.2921 C   0  0  0  0  0  0  0  0  0  0  0  0
  -11.4032   15.6201  -37.3304 C   0  0  0  0  0  0  0  0  0  0  0  0
  -11.6160   14.2503  -37.5212 C   0  0  0  0  0  0  0  0  0  0  0  0
  -12.7691   16.6340  -39.2103 C   0  0  0  0  0  0  0  0  0  0  0  0
  -13.1421   14.2296  -39.5455 C   0  0  0  0  0  0  0  0  0  0  0  0
  -12.6657   16.3237  -37.7083 C   0  0  1  0  0  0  0  0  0  0  0  0
  -13.0138   14.0820  -38.0208 C   0  0  2  0  0  0  0  0  0  0  0  0
  -12.5030   15.4577  -40.0671 N   0  0  0  0  0  0  0  0  0  0  0  0
  -13.6352   15.2693  -37.4559 O   0  0  0  0  0  0  0  0  0  0  0  0
   -8.1946   15.5308  -36.3205 H   0  0  0  0  0  0  0  0  0  0  0  0
   -8.5715   13.1074  -36.6564 H   0  0  0  0  0  0  0  0  0  0  0  0
  -10.0179   17.1703  -36.7669 H   0  0  0  0  0  0  0  0  0  0  0  0
  -10.7791   12.2667  -37.4510 H   0  0  0  0  0  0  0  0  0  0  0  0
  -13.7806   16.9952  -39.4326 H   0  0  0  0  0  0  0  0  0  0  0  0
  -12.0614   17.4247  -39.4816 H   0  0  0  0  0  0  0  0  0  0  0  0
  -12.6911   13.3669  -40.0474 H   0  0  0  0  0  0  0  0  0  0  0  0
  -14.2049   14.2587  -39.8142 H   0  0  0  0  0  0  0  0  0  0  0  0
  -12.8965   17.1808  -37.0700 H   0  0  0  0  0  0  0  0  0  0  0  0
  -13.5153   13.1947  -37.6259 H   0  0  0  0  0  0  0  0  0  0  0  0
  -12.8119   15.6382  -41.0210 H   0  0  0  0  0  0  0  0  0  0  0  0
  1  2  2  0  0  0  0
  1  3  1  0  0  0  0
  2  4  1  0  0  0  0
  3  5  2  0  0  0  0
  4  6  2  0  0  0  0
  5  6  1  0  0  0  0
  5  9  1  0  0  0  0
  6 10  1  0  0  0  0
  7  9  1  0  0  0  0
  7 11  1  0  0  0  0
  8 10  1  0  0  0  0
  8 11  1  0  0  0  0
  9 12  1  0  0  0  0
 10 12  1  0  0  0  0
  1 13  1  0  0  0  0
  2 14  1  0  0  0  0
  3 15  1  0  0  0  0
  4 16  1  0  0  0  0
  7 17  1  0  0  0  0
  7 18  1  0  0  0  0
  8 19  1  0  0  0  0
  8 20  1  0  0  0  0
  9 21  1  0  0  0  0
 10 22  1  0  0  0  0
 11 23  1  0  0  0  0
M  END
> <id>
EN300-1695685

> <smiles>
C1NCC2OC1C=3C=CC=CC23

> <MDLNUMBER>
MFCD34167902

> <IUPAC Name>
12-oxa-10-azatricyclo[6.3.1.0,2,7]dodeca-2,4,6-triene

> <CAS>
117573-19-0

> <URL>
https://www.enaminestore.com/catalog/EN300-1695685

> <ROCS_ShapeQuery>
_x1247relevant_x1083L0AP1_x1305L0BP1_

> <ROCS_TanimotoCombo>
1.022 

> <ROCS_ShapeTanimoto>
0.515 

> <ROCS_ColorTanimoto>
0.507 

> <ROCS_RefTversky>
0.431 

> <ROCS_RefColorTversky>
0.680 

> <ROCS_RefTverskyCombo>
1.111 

> <ROCS_FitTversky>
1.609 

> <ROCS_FitColorTversky>
0.666 

> <ROCS_FitTverskyCombo>
2.275 

> <ROCS_ColorScore>
-6.579

> <ROCS_Overlap>
1060.544

> <ROCS_Rank>
357                 

$$$$
untitled-dbase-45365_0
  -OEChem-06232314403D

 23 25  0     1  0  0  0  0  0999 V2000
   -9.1675   15.1837  -36.6589 C   0  0  0  0  0  0  0  0  0  0  0  0
   -9.3814   13.8057  -36.8508 C   0  0  0  0  0  0  0  0  0  0  0  0
  -10.1854   16.1084  -36.9048 C   0  0  0  0  0  0  0  0  0  0  0  0
  -10.6174   13.3267  -37.2921 C   0  0  0  0  0  0  0  0  0  0  0  0
  -11.4032   15.6201  -37.3304 C   0  0  0  0  0  0  0  0  0  0  0  0
  -11.6160   14.2503  -37.5212 C   0  0  0  0  0  0  0  0  0  0  0  0
  -12.7691   16.6340  -39.2103 C   0  0  0  0  0  0  0  0  0  0  0  0
  -13.1421   14.2296  -39.5455 C   0  0  0  0  0  0  0  0  0  0  0  0
  -12.6657   16.3237  -37.7083 C   0  0  1  0  0  0  0  0  0  0  0  0
  -13.0138   14.0820  -38.0208 C   0  0  2  0  0  0  0  0  0  0  0  0
  -12.5030   15.4577  -40.0671 N   0  0  0  0  0  0  0  0  0  0  0  0
  -13.6352   15.2693  -37.4559 O   0  0  0  0  0  0  0  0  0  0  0  0
   -8.1946   15.5308  -36.3205 H   0  0  0  0  0  0  0  0  0  0  0  0
   -8.5715   13.1074  -36.6564 H   0  0  0  0  0  0  0  0  0  0  0  0
  -10.0179   17.1703  -36.7669 H   0  0  0  0  0  0  0  0  0  0  0  0
  -10.7791   12.2667  -37.4510 H   0  0  0  0  0  0  0  0  0  0  0  0
  -13.7806   16.9952  -39.4326 H   0  0  0  0  0  0  0  0  0  0  0  0
  -12.0614   17.4247  -39.4816 H   0  0  0  0  0  0  0  0  0  0  0  0
  -12.6911   13.3669  -40.0474 H   0  0  0  0  0  0  0  0  0  0  0  0
  -14.2049   14.2587  -39.8142 H   0  0  0  0  0  0  0  0  0  0  0  0
  -12.8965   17.1808  -37.0700 H   0  0  0  0  0  0  0  0  0  0  0  0
  -13.5153   13.1947  -37.6259 H   0  0  0  0  0  0  0  0  0  0  0  0
  -12.8119   15.6382  -41.0210 H   0  0  0  0  0  0  0  0  0  0  0  0
  1  2  2  0  0  0  0
  1  3  1  0  0  0  0
  2  4  1  0  0  0  0
  3  5  2  0  0  0  0
  4  6  2  0  0  0  0
  5  6  1  0  0  0  0
  5  9  1  0  0  0  0
  6 10  1  0  0  0  0
  7  9  1  0  0  0  0
  7 11  1  0  0  0  0
  8 10  1  0  0  0  0
  8 11  1  0  0  0  0
  9 12  1  0  0  0  0
 10 12  1  0  0  0  0
  1 13  1  0  0  0  0
  2 14  1  0  0  0  0
  3 15  1  0  0  0  0
  4 16  1  0  0  0  0
  7 17  1  0  0  0  0
  7 18  1  0  0  0  0
  8 19  1  0  0  0  0
  8 20  1  0  0  0  0
  9 21  1  0  0  0  0
 10 22  1  0  0  0  0
 11 23  1  0  0  0  0
M  END
> <id>
EN300-28247674

> <smiles>
Cl.C1NCC2OC1C=3C=CC=CC23

> <MDLNUMBER>
MFCD34167759

> <IUPAC Name>
12-oxa-10-azatricyclo[6.3.1.0,2,7]dodeca-2,4,6-triene hydrochloride

> <CAS>
2648940-11-6

> <Purity>
95

> <URL>
https://www.enaminestore.com/catalog/EN300-28247674

> <ROCS_ShapeQuery>
_x1247relevant_x1083L0AP1_x1305L0BP1_

> <ROCS_TanimotoCombo>
1.022 

> <ROCS_ShapeTanimoto>
0.515 

> <ROCS_ColorTanimoto>
0.507 

> <ROCS_RefTversky>
0.431 

> <ROCS_RefColorTversky>
0.680 

> <ROCS_RefTverskyCombo>
1.111 

> <ROCS_FitTversky>
1.609 

> <ROCS_FitColorTversky>
0.666 

> <ROCS_FitTverskyCombo>
2.275 

> <ROCS_ColorScore>
-6.579

> <ROCS_Overlap>
1060.544

> <ROCS_Rank>
358                 

$$$$
untitled-dbase-47604_0
  -OEChem-06232314403D

 16 17  0     0  0  0  0  0  0999 V2000
  -13.5418   15.8152  -37.7330 C   0  0  0  0  0  0  0  0  0  0  0  0
  -12.1593   15.7665  -39.3431 C   0  0  0  0  0  0  0  0  0  0  0  0
  -12.4480   14.0419  -38.1393 C   0  0  0  0  0  0  0  0  0  0  0  0
  -11.9915   15.5146  -37.7922 C   0  0  0  0  0  0  0  0  0  0  0  0
  -13.4083   14.9151  -38.9905 C   0  0  0  0  0  0  0  0  0  0  0  0
  -10.9167   15.9694  -36.8846 C   0  0  0  0  0  0  0  0  0  0  0  0
  -11.1193   15.5521  -35.6070 F   0  0  0  0  0  0  0  0  0  0  0  0
   -9.6986   15.5008  -37.2639 F   0  0  0  0  0  0  0  0  0  0  0  0
  -10.8232   17.3248  -36.8463 F   0  0  0  0  0  0  0  0  0  0  0  0
  -14.7392   14.3526  -40.1161 Br  0  0  0  0  0  0  0  0  0  0  0  0
  -14.0901   15.4053  -36.8779 H   0  0  0  0  0  0  0  0  0  0  0  0
  -13.8477   16.8552  -37.8898 H   0  0  0  0  0  0  0  0  0  0  0  0
  -12.3297   16.8018  -39.6576 H   0  0  0  0  0  0  0  0  0  0  0  0
  -11.4098   15.3111  -39.9995 H   0  0  0  0  0  0  0  0  0  0  0  0
  -11.7268   13.4171  -38.6774 H   0  0  0  0  0  0  0  0  0  0  0  0
  -12.8893   13.4588  -37.3237 H   0  0  0  0  0  0  0  0  0  0  0  0
  1  4  1  0  0  0  0
  1  5  1  0  0  0  0
  2  4  1  0  0  0  0
  2  5  1  0  0  0  0
  3  4  1  0  0  0  0
  3  5  1  0  0  0  0
  4  6  1  0  0  0  0
  5 10  1  0  0  0  0
  6  7  1  0  0  0  0
  6  8  1  0  0  0  0
  6  9  1  0  0  0  0
  1 11  1  0  0  0  0
  1 12  1  0  0  0  0
  2 13  1  0  0  0  0
  2 14  1  0  0  0  0
  3 15  1  0  0  0  0
  3 16  1  0  0  0  0
M  END
> <id>
EN300-39677782

> <smiles>
FC(F)(F)C1(CC2(Br)C1)C2

> <IUPAC Name>
1-bromo-3-(trifluoromethyl)bicyclo[1.1.1]pentane

> <CAS>
2866353-56-0

> <Purity>
95

> <URL>
https://www.enaminestore.com/catalog/EN300-39677782

> <ROCS_ShapeQuery>
_x1247relevant_x1083L0AP1_x1305L0BP1_

> <ROCS_TanimotoCombo>
1.022 

> <ROCS_ShapeTanimoto>
0.403 

> <ROCS_ColorTanimoto>
0.618 

> <ROCS_RefTversky>
0.351 

> <ROCS_RefColorTversky>
0.724 

> <ROCS_RefTverskyCombo>
1.074 

> <ROCS_FitTversky>
1.591 

> <ROCS_FitColorTversky>
0.810 

> <ROCS_FitTverskyCombo>
2.401 

> <ROCS_ColorScore>
-6.952

> <ROCS_Overlap>
861.019

> <ROCS_Rank>
359                 

$$$$
untitled-dbase-50293_0
  -OEChem-06232314403D

 18 19  0     1  0  0  0  0  0999 V2000
  -12.2959   15.8730  -39.3430 C   0  0  0  0  0  0  0  0  0  0  0  0
  -11.8004   15.5668  -37.1417 C   0  0  0  0  0  0  0  0  0  0  0  0
  -11.5400   14.2600  -37.9322 C   0  0  0  0  0  0  0  0  0  0  0  0
  -14.1526   15.6616  -38.0330 C   0  0  0  0  0  0  0  0  0  0  0  0
  -12.7811   16.3616  -38.0188 C   0  0  2  0  0  0  0  0  0  0  0  0
  -12.4137   14.3893  -39.1911 C   0  0  1  0  0  0  0  0  0  0  0  0
  -13.8912   14.3298  -38.7759 C   0  0  2  0  0  0  0  0  0  0  0  0
  -11.9054   16.5138  -40.2964 O   0  0  0  0  0  0  0  0  0  0  0  0
  -15.0260   14.1884  -40.3567 Br  0  0  0  0  0  0  0  0  0  0  0  0
  -12.2081   15.3627  -36.1463 H   0  0  0  0  0  0  0  0  0  0  0  0
  -10.8589   16.1144  -37.0161 H   0  0  0  0  0  0  0  0  0  0  0  0
  -10.4787   14.1979  -38.2012 H   0  0  0  0  0  0  0  0  0  0  0  0
  -11.7911   13.3730  -37.3415 H   0  0  0  0  0  0  0  0  0  0  0  0
  -14.5119   15.4800  -37.0140 H   0  0  0  0  0  0  0  0  0  0  0  0
  -14.8939   16.2905  -38.5394 H   0  0  0  0  0  0  0  0  0  0  0  0
  -12.7929   17.4401  -37.8737 H   0  0  0  0  0  0  0  0  0  0  0  0
  -12.1003   13.7973  -40.0498 H   0  0  0  0  0  0  0  0  0  0  0  0
  -14.1262   13.4568  -38.1594 H   0  0  0  0  0  0  0  0  0  0  0  0
  1  5  1  0  0  0  0
  1  6  1  0  0  0  0
  1  8  2  0  0  0  0
  2  3  1  0  0  0  0
  2  5  1  0  0  0  0
  3  6  1  6  0  0  0
  4  5  1  6  0  0  0
  4  7  1  0  0  0  0
  6  7  1  0  0  0  0
  7  9  1  1  0  0  0
  2 10  1  0  0  0  0
  2 11  1  0  0  0  0
  3 12  1  0  0  0  0
  3 13  1  0  0  0  0
  4 14  1  0  0  0  0
  4 15  1  0  0  0  0
  5 16  1  0  0  0  0
  6 17  1  0  0  0  0
  7 18  1  0  0  0  0
M  END
> <id>
EN300-37378820

> <smiles>
Br[C@@H]1C[C@H]2CC[C@@H]1C2=O |&1:1,3,6,r|

> <IUPAC Name>
rac-(1R,2R,4R)-2-bromobicyclo[2.2.1]heptan-7-one

> <CAS>
16031-37-1

> <Purity>
95

> <URL>
https://www.enaminestore.com/catalog/EN300-37378820

> <ROCS_ShapeQuery>
_x1247relevant_x1083L0AP1_x1305L0BP1_

> <ROCS_TanimotoCombo>
1.022 

> <ROCS_ShapeTanimoto>
0.402 

> <ROCS_ColorTanimoto>
0.619 

> <ROCS_RefTversky>
0.345 

> <ROCS_RefColorTversky>
0.719 

> <ROCS_RefTverskyCombo>
1.064 

> <ROCS_FitTversky>
1.708 

> <ROCS_FitColorTversky>
0.817 

> <ROCS_FitTverskyCombo>
2.525 

> <ROCS_ColorScore>
-6.900

> <ROCS_Overlap>
845.950

> <ROCS_Rank>
360                 

$$$$
untitled-dbase-26179_1
  -OEChem-06232314403D

 16 17  0     1  0  0  0  0  0999 V2000
  -12.5749   15.6286  -39.6676 C   0  0  0  0  0  0  0  0  0  0  0  0
  -13.7248   14.5891  -37.7810 C   0  0  0  0  0  0  0  0  0  0  0  0
  -11.8952   16.0684  -38.4019 C   0  0  1  0  0  0  0  0  0  0  0  0
  -12.6021   15.4299  -37.2426 C   0  0  2  0  0  0  0  0  0  0  0  0
  -13.3942   14.3969  -39.2656 C   0  0  0  0  0  0  0  0  0  0  0  0
  -11.1710   15.1182  -37.5128 C   0  0  0  0  0  0  0  0  0  0  0  0
  -10.7791   13.8765  -37.9578 F   0  0  0  0  0  0  0  0  0  0  0  0
  -10.1897   15.5758  -36.6620 F   0  0  0  0  0  0  0  0  0  0  0  0
  -14.9953   14.2243  -40.3367 Br  0  0  0  0  0  0  0  0  0  0  0  0
  -13.1843   16.4328  -40.0978 H   0  0  0  0  0  0  0  0  0  0  0  0
  -11.8182   15.3513  -40.4134 H   0  0  0  0  0  0  0  0  0  0  0  0
  -13.7352   13.6182  -37.2681 H   0  0  0  0  0  0  0  0  0  0  0  0
  -14.6996   15.0629  -37.6120 H   0  0  0  0  0  0  0  0  0  0  0  0
  -11.6744   17.1298  -38.3507 H   0  0  0  0  0  0  0  0  0  0  0  0
  -12.8680   16.0530  -36.3948 H   0  0  0  0  0  0  0  0  0  0  0  0
  -12.8171   13.4497  -39.4357 H   0  0  0  0  0  0  0  0  0  0  0  0
  1  3  1  0  0  0  0
  1  5  1  0  0  0  0
  2  4  1  0  0  0  0
  2  5  1  0  0  0  0
  3  4  1  0  0  0  0
  3  6  1  0  0  0  0
  4  6  1  0  0  0  0
  5  9  1  0  0  0  0
  6  7  1  0  0  0  0
  6  8  1  0  0  0  0
  1 10  1  0  0  0  0
  1 11  1  0  0  0  0
  2 12  1  0  0  0  0
  2 13  1  0  0  0  0
  3 14  1  0  0  0  0
  4 15  1  0  0  0  0
  5 16  1  0  0  0  0
M  END
> <id>
EN300-381054

> <smiles>
FC1(F)C2CC(Br)CC21

> <MDLNUMBER>
MFCD26516609

> <IUPAC Name>
3-bromo-6,6-difluorobicyclo[3.1.0]hexane

> <CAS>
1823884-56-5

> <Purity>
95

> <URL>
https://www.enaminestore.com/catalog/EN300-381054

> <ROCS_ShapeQuery>
_x1247relevant_x1083L0AP1_x1305L0BP1_

> <ROCS_TanimotoCombo>
1.022 

> <ROCS_ShapeTanimoto>
0.426 

> <ROCS_ColorTanimoto>
0.596 

> <ROCS_RefTversky>
0.358 

> <ROCS_RefColorTversky>
0.573 

> <ROCS_RefTverskyCombo>
0.931 

> <ROCS_FitTversky>
1.800 

> <ROCS_FitColorTversky>
1.073 

> <ROCS_FitTverskyCombo>
2.872 

> <ROCS_ColorScore>
-5.397

> <ROCS_Overlap>
877.577

> <ROCS_Rank>
361                 

$$$$
untitled-dbase-24012_0
  -OEChem-06232314403D

 20 21  0     1  0  0  0  0  0999 V2000
   -9.1530   13.8579  -37.3520 C   0  5  0  0  0  0  0  0  0  0  0  0
  -14.0208   15.9620  -38.4474 C   0  0  0  0  0  0  0  0  0  0  0  0
  -13.9690   14.4838  -38.0311 C   0  0  0  0  0  0  0  0  0  0  0  0
  -12.2014   14.9106  -39.5626 C   0  0  0  0  0  0  0  0  0  0  0  0
  -11.6532   16.2724  -37.6871 C   0  0  0  0  0  0  0  0  0  0  0  0
  -12.5817   16.2407  -38.9156 C   0  0  2  0  0  0  0  0  0  0  0  0
  -12.5026   14.1029  -38.2976 C   0  0  1  0  0  0  0  0  0  0  0  0
  -11.6172   14.7996  -37.2465 C   0  0  1  0  0  0  0  0  0  0  0  0
  -10.2829   14.2897  -37.3036 N   0  3  0  0  0  0  0  0  0  0  0  0
  -14.7316   16.0954  -39.2708 H   0  0  0  0  0  0  0  0  0  0  0  0
  -14.3278   16.6119  -37.6216 H   0  0  0  0  0  0  0  0  0  0  0  0
  -14.2595   14.3396  -36.9857 H   0  0  0  0  0  0  0  0  0  0  0  0
  -14.6456   13.8925  -38.6583 H   0  0  0  0  0  0  0  0  0  0  0  0
  -12.8438   14.6425  -40.4081 H   0  0  0  0  0  0  0  0  0  0  0  0
  -11.1521   14.8635  -39.8716 H   0  0  0  0  0  0  0  0  0  0  0  0
  -10.6566   16.6357  -37.9630 H   0  0  0  0  0  0  0  0  0  0  0  0
  -12.0464   16.9218  -36.8982 H   0  0  0  0  0  0  0  0  0  0  0  0
  -12.4920   17.1209  -39.5551 H   0  0  0  0  0  0  0  0  0  0  0  0
  -12.3351   13.0271  -38.3851 H   0  0  0  0  0  0  0  0  0  0  0  0
  -11.9944   14.6677  -36.2275 H   0  0  0  0  0  0  0  0  0  0  0  0
  1  9  3  0  0  0  0
  2  3  1  0  0  0  0
  2  6  1  0  0  0  0
  3  7  1  0  0  0  0
  4  6  1  0  0  0  0
  4  7  1  0  0  0  0
  5  6  1  0  0  0  0
  5  8  1  0  0  0  0
  7  8  1  0  0  0  0
  8  9  1  0  0  0  0
  2 10  1  0  0  0  0
  2 11  1  0  0  0  0
  3 12  1  0  0  0  0
  3 13  1  0  0  0  0
  4 14  1  0  0  0  0
  4 15  1  0  0  0  0
  5 16  1  0  0  0  0
  5 17  1  0  0  0  0
  6 18  1  0  0  0  0
  7 19  1  0  0  0  0
  8 20  1  0  0  0  0
M  CHG  2   1  -1   9   1
M  END
> <id>
EN300-1745149

> <smiles>
[C-]#[N+]C1CC2CCC1C2

> <MDLNUMBER>
MFCD32762805

> <IUPAC Name>
2-isocyanobicyclo[2.2.1]heptane

> <URL>
https://www.enaminestore.com/catalog/EN300-1745149

> <ROCS_ShapeQuery>
_x1247relevant_x1083L0AP1_x1305L0BP1_

> <ROCS_TanimotoCombo>
1.022 

> <ROCS_ShapeTanimoto>
0.430 

> <ROCS_ColorTanimoto>
0.591 

> <ROCS_RefTversky>
0.362 

> <ROCS_RefColorTversky>
0.625 

> <ROCS_RefTverskyCombo>
0.988 

> <ROCS_FitTversky>
1.774 

> <ROCS_FitColorTversky>
0.915 

> <ROCS_FitTverskyCombo>
2.690 

> <ROCS_ColorScore>
-5.940

> <ROCS_Overlap>
888.642

> <ROCS_Rank>
362                 

$$$$
untitled-dbase-393_19
  -OEChem-06232314403D

 35 36  0     1  0  0  0  0  0999 V2000
   -9.9813   14.4445  -37.6204 C   0  0  0  0  0  0  0  0  0  0  0  0
  -13.3341   15.7489  -37.3073 C   0  0  0  0  0  0  0  0  0  0  0  0
  -12.2140   16.3587  -39.3149 C   0  0  0  0  0  0  0  0  0  0  0  0
  -12.3751   13.7118  -38.0445 C   0  0  0  0  0  0  0  0  0  0  0  0
  -13.5830   14.6261  -38.3262 C   0  0  2  0  0  0  0  0  0  0  0  0
  -11.9279   16.0324  -37.8373 C   0  0  2  0  0  0  0  0  0  0  0  0
  -13.3442   15.3576  -39.6735 C   0  0  1  0  0  0  0  0  0  0  0  0
   -9.4137   14.5305  -35.0651 C   0  0  0  0  0  0  0  0  0  0  0  0
   -9.5831   12.0256  -34.9888 C   0  0  0  0  0  0  0  0  0  0  0  0
   -7.5833   13.1121  -36.0511 C   0  0  0  0  0  0  0  0  0  0  0  0
   -9.0844   13.2263  -35.7899 C   0  0  0  0  0  0  0  0  0  0  0  0
  -11.3247   14.6975  -37.8009 N   0  0  0  0  0  0  0  0  0  0  0  0
  -14.5383   16.0685  -40.1174 N   0  0  0  0  0  0  0  0  0  0  0  0
   -9.0825   15.2217  -37.9329 O   0  0  0  0  0  0  0  0  0  0  0  0
   -9.7679   13.2193  -37.0482 O   0  0  0  0  0  0  0  0  0  0  0  0
  -14.0170   16.5985  -37.4019 H   0  0  0  0  0  0  0  0  0  0  0  0
  -13.3360   15.3961  -36.2700 H   0  0  0  0  0  0  0  0  0  0  0  0
  -12.5400   17.4011  -39.4156 H   0  0  0  0  0  0  0  0  0  0  0  0
  -11.3336   16.2241  -39.9529 H   0  0  0  0  0  0  0  0  0  0  0  0
  -12.5063   13.1152  -37.1358 H   0  0  0  0  0  0  0  0  0  0  0  0
  -12.1053   13.0589  -38.8798 H   0  0  0  0  0  0  0  0  0  0  0  0
  -14.5456   14.1170  -38.2415 H   0  0  0  0  0  0  0  0  0  0  0  0
  -11.3405   16.7845  -37.3076 H   0  0  0  0  0  0  0  0  0  0  0  0
  -13.0321   14.6707  -40.4538 H   0  0  0  0  0  0  0  0  0  0  0  0
   -9.0574   15.3948  -35.6369 H   0  0  0  0  0  0  0  0  0  0  0  0
  -10.4908   14.6410  -34.9028 H   0  0  0  0  0  0  0  0  0  0  0  0
   -8.9108   14.5749  -34.0922 H   0  0  0  0  0  0  0  0  0  0  0  0
   -9.3490   11.0876  -35.5053 H   0  0  0  0  0  0  0  0  0  0  0  0
  -10.6733   12.0544  -34.8803 H   0  0  0  0  0  0  0  0  0  0  0  0
   -9.1360   11.9924  -33.9901 H   0  0  0  0  0  0  0  0  0  0  0  0
   -7.3468   12.1767  -36.5710 H   0  0  0  0  0  0  0  0  0  0  0  0
   -7.2145   13.9466  -36.6563 H   0  0  0  0  0  0  0  0  0  0  0  0
   -7.0242   13.0918  -35.1085 H   0  0  0  0  0  0  0  0  0  0  0  0
  -14.3143   16.5668  -40.9463 H   0  0  0  0  0  0  0  0  0  0  0  0
  -15.2511   15.3999  -40.2928 H   0  0  0  0  0  0  0  0  0  0  0  0
  1 12  1  0  0  0  0
  1 14  2  0  0  0  0
  1 15  1  0  0  0  0
  2  5  1  0  0  0  0
  2  6  1  0  0  0  0
  3  6  1  0  0  0  0
  3  7  1  0  0  0  0
  4  5  1  0  0  0  0
  4 12  1  0  0  0  0
  5  7  1  0  0  0  0
  6 12  1  0  0  0  0
  7 13  1  0  0  0  0
  8 11  1  0  0  0  0
  9 11  1  0  0  0  0
 10 11  1  0  0  0  0
 11 15  1  0  0  0  0
  2 16  1  0  0  0  0
  2 17  1  0  0  0  0
  3 18  1  0  0  0  0
  3 19  1  0  0  0  0
  4 20  1  0  0  0  0
  4 21  1  0  0  0  0
  5 22  1  0  0  0  0
  6 23  1  0  0  0  0
  7 24  1  0  0  0  0
  8 25  1  0  0  0  0
  8 26  1  0  0  0  0
  8 27  1  0  0  0  0
  9 28  1  0  0  0  0
  9 29  1  0  0  0  0
  9 30  1  0  0  0  0
 10 31  1  0  0  0  0
 10 32  1  0  0  0  0
 10 33  1  0  0  0  0
 13 34  1  0  0  0  0
 13 35  1  0  0  0  0
M  END
> <id>
EN300-27794

> <smiles>
CC(C)(C)OC(=O)N1CC2CC1CC2N

> <IUPAC Name>
tert-butyl 5-amino-2-azabicyclo[2.2.1]heptane-2-carboxylate

> <CAS>
207405-62-7

> <Purity>
95

> <URL>
https://www.enaminestore.com/catalog/EN300-27794

> <ROCS_ShapeQuery>
_x1247relevant_x1083L0AP1_x1305L0BP1_

> <ROCS_TanimotoCombo>
1.021 

> <ROCS_ShapeTanimoto>
0.517 

> <ROCS_ColorTanimoto>
0.505 

> <ROCS_RefTversky>
0.446 

> <ROCS_RefColorTversky>
0.693 

> <ROCS_RefTverskyCombo>
1.139 

> <ROCS_FitTversky>
1.444 

> <ROCS_FitColorTversky>
0.650 

> <ROCS_FitTverskyCombo>
2.094 

> <ROCS_ColorScore>
-6.719

> <ROCS_Overlap>
1099.868

> <ROCS_Rank>
363                 

$$$$
untitled-dbase-8507_0
  -OEChem-06232314403D

 27 28  0     1  0  0  0  0  0999 V2000
  -12.2580   16.3838  -39.2967 C   0  0  0  0  0  0  0  0  0  0  0  0
  -11.5793   17.3428  -39.9392 C   0  0  0  0  0  0  0  0  0  0  0  0
  -13.2956   15.6160  -37.1224 C   0  0  0  0  0  0  0  0  0  0  0  0
  -13.3980   14.1058  -39.1859 C   0  0  0  0  0  0  0  0  0  0  0  0
  -12.0005   16.1404  -37.8363 C   0  0  1  0  0  0  0  0  0  0  0  0
  -13.2261   15.4346  -39.9659 C   0  0  1  0  0  0  0  0  0  0  0  0
  -12.9051   14.2332  -37.7288 C   0  0  1  0  0  0  0  0  0  0  0  0
  -11.3960   14.6979  -37.5558 C   0  0  0  0  0  0  0  0  0  0  0  0
  -10.8148   14.5069  -36.1414 C   0  0  0  0  0  0  0  0  0  0  0  0
  -10.3737   14.1438  -38.5567 C   0  0  0  0  0  0  0  0  0  0  0  0
  -14.4917   16.0933  -40.0491 O   0  0  0  0  0  0  0  0  0  0  0  0
  -11.7538   17.5294  -40.9902 H   0  0  0  0  0  0  0  0  0  0  0  0
  -10.8477   17.9433  -39.4156 H   0  0  0  0  0  0  0  0  0  0  0  0
  -13.2811   15.6718  -36.0287 H   0  0  0  0  0  0  0  0  0  0  0  0
  -14.2524   16.0436  -37.4382 H   0  0  0  0  0  0  0  0  0  0  0  0
  -14.4497   13.7953  -39.1847 H   0  0  0  0  0  0  0  0  0  0  0  0
  -12.8345   13.3074  -39.6825 H   0  0  0  0  0  0  0  0  0  0  0  0
  -11.5059   16.9721  -37.3236 H   0  0  0  0  0  0  0  0  0  0  0  0
  -12.9115   15.2166  -40.9930 H   0  0  0  0  0  0  0  0  0  0  0  0
  -13.1892   13.3636  -37.1268 H   0  0  0  0  0  0  0  0  0  0  0  0
  -10.4296   13.4977  -36.0489 H   0  0  0  0  0  0  0  0  0  0  0  0
  -11.5986   14.6694  -35.4103 H   0  0  0  0  0  0  0  0  0  0  0  0
  -10.0141   15.2214  -35.9869 H   0  0  0  0  0  0  0  0  0  0  0  0
  -10.0516   13.1568  -38.2365 H   0  0  0  0  0  0  0  0  0  0  0  0
   -9.5150   14.8078  -38.6023 H   0  0  0  0  0  0  0  0  0  0  0  0
  -10.8305   14.0743  -39.5401 H   0  0  0  0  0  0  0  0  0  0  0  0
  -14.3484   16.8929  -40.5767 H   0  0  0  0  0  0  0  0  0  0  0  0
  1  2  2  0  0  0  0
  1  5  1  0  0  0  0
  1  6  1  0  0  0  0
  3  5  1  0  0  0  0
  3  7  1  0  0  0  0
  4  6  1  0  0  0  0
  4  7  1  0  0  0  0
  5  8  1  0  0  0  0
  6 11  1  0  0  0  0
  7  8  1  0  0  0  0
  8  9  1  0  0  0  0
  8 10  1  0  0  0  0
  2 12  1  0  0  0  0
  2 13  1  0  0  0  0
  3 14  1  0  0  0  0
  3 15  1  0  0  0  0
  4 16  1  0  0  0  0
  4 17  1  0  0  0  0
  5 18  1  0  0  0  0
  6 19  1  0  0  0  0
  7 20  1  0  0  0  0
  9 21  1  0  0  0  0
  9 22  1  0  0  0  0
  9 23  1  0  0  0  0
 10 24  1  0  0  0  0
 10 25  1  0  0  0  0
 10 26  1  0  0  0  0
 11 27  1  0  0  0  0
M  END
> <id>
EN300-296441

> <smiles>
CC1(C)C2CC1C(=C)C(O)C2

> <MDLNUMBER>
MFCD02185514

> <IUPAC Name>
6,6-dimethyl-2-methylidenebicyclo[3.1.1]heptan-3-ol

> <CAS>
5947-36-4

> <URL>
https://www.enaminestore.com/catalog/EN300-296441

> <ROCS_ShapeQuery>
_x1247relevant_x1083L0AP1_x1305L0BP1_

> <ROCS_TanimotoCombo>
1.021 

> <ROCS_ShapeTanimoto>
0.475 

> <ROCS_ColorTanimoto>
0.545 

> <ROCS_RefTversky>
0.398 

> <ROCS_RefColorTversky>
0.686 

> <ROCS_RefTverskyCombo>
1.084 

> <ROCS_FitTversky>
1.698 

> <ROCS_FitColorTversky>
0.727 

> <ROCS_FitTverskyCombo>
2.425 

> <ROCS_ColorScore>
-6.612

> <ROCS_Overlap>
976.945

> <ROCS_Rank>
364                 

$$$$
untitled-dbase-35275_0
  -OEChem-06232314403D

 23 25  0     1  0  0  0  0  0999 V2000
  -11.1423   15.2152  -39.1480 C   0  0  0  0  0  0  0  0  0  0  0  0
   -9.3603   14.2642  -36.5936 C   0  0  0  0  0  0  0  0  0  0  0  0
  -10.7517   13.6936  -36.9528 C   0  0  0  0  0  0  0  0  0  0  0  0
   -9.9520   15.6795  -36.7877 C   0  0  0  0  0  0  0  0  0  0  0  0
  -13.7338   15.4236  -39.4993 C   0  0  0  0  0  0  0  0  0  0  0  0
  -14.0119   14.2368  -38.5823 C   0  0  0  0  0  0  0  0  0  0  0  0
  -12.4409   16.0345  -38.9839 C   0  0  1  0  0  0  0  0  0  0  0  0
  -12.4422   15.5933  -37.4881 C   0  0  2  0  0  0  0  0  0  0  0  0
  -11.0240   15.0195  -37.6486 C   0  0  0  0  0  0  0  0  0  0  0  0
  -10.4812   14.8565  -40.0984 O   0  0  0  0  0  0  0  0  0  0  0  0
  -13.5277   14.6489  -37.2978 O   0  0  0  0  0  0  0  0  0  0  0  0
   -8.9978   14.0349  -35.5884 H   0  0  0  0  0  0  0  0  0  0  0  0
   -8.5804   14.0105  -37.3208 H   0  0  0  0  0  0  0  0  0  0  0  0
  -10.7380   12.8067  -37.5917 H   0  0  0  0  0  0  0  0  0  0  0  0
  -11.3782   13.4926  -36.0763 H   0  0  0  0  0  0  0  0  0  0  0  0
  -10.3160   16.1307  -35.8577 H   0  0  0  0  0  0  0  0  0  0  0  0
   -9.2939   16.3904  -37.2949 H   0  0  0  0  0  0  0  0  0  0  0  0
  -13.6809   15.1302  -40.5516 H   0  0  0  0  0  0  0  0  0  0  0  0
  -14.5420   16.1571  -39.3935 H   0  0  0  0  0  0  0  0  0  0  0  0
  -15.0770   13.9982  -38.5229 H   0  0  0  0  0  0  0  0  0  0  0  0
  -13.4568   13.3456  -38.8928 H   0  0  0  0  0  0  0  0  0  0  0  0
  -12.3070   17.1035  -39.1698 H   0  0  0  0  0  0  0  0  0  0  0  0
  -12.5351   16.4232  -36.7795 H   0  0  0  0  0  0  0  0  0  0  0  0
  1  7  1  0  0  0  0
  1  9  1  0  0  0  0
  1 10  2  0  0  0  0
  2  3  1  0  0  0  0
  2  4  1  0  0  0  0
  3  9  1  0  0  0  0
  4  9  1  0  0  0  0
  5  6  1  0  0  0  0
  5  7  1  1  0  0  0
  6 11  1  0  0  0  0
  7  8  1  0  0  0  0
  8  9  1  0  0  0  0
  8 11  1  1  0  0  0
  2 12  1  0  0  0  0
  2 13  1  0  0  0  0
  3 14  1  0  0  0  0
  3 15  1  0  0  0  0
  4 16  1  0  0  0  0
  4 17  1  0  0  0  0
  5 18  1  0  0  0  0
  5 19  1  0  0  0  0
  6 20  1  0  0  0  0
  6 21  1  0  0  0  0
  7 22  1  0  0  0  0
  8 23  1  0  0  0  0
M  END
> <id>
EN300-187358

> <smiles>
O=C1[C@H]2CCO[C@H]2C31CCC3

> <MDLNUMBER>
MFCD28390196

> <IUPAC Name>
(1S,5R)-4-oxaspiro[bicyclo[3.2.0]heptane-6,1'-cyclobutane]-7-one

> <CAS>
1807938-84-6

> <URL>
https://www.enaminestore.com/catalog/EN300-187358

> <ROCS_ShapeQuery>
_x1247relevant_x1083L0AP1_x1305L0BP1_

> <ROCS_TanimotoCombo>
1.021 

> <ROCS_ShapeTanimoto>
0.480 

> <ROCS_ColorTanimoto>
0.541 

> <ROCS_RefTversky>
0.403 

> <ROCS_RefColorTversky>
0.663 

> <ROCS_RefTverskyCombo>
1.066 

> <ROCS_FitTversky>
1.658 

> <ROCS_FitColorTversky>
0.746 

> <ROCS_FitTverskyCombo>
2.404 

> <ROCS_ColorScore>
-6.369

> <ROCS_Overlap>
991.151

> <ROCS_Rank>
365                 

$$$$
untitled-dbase-4157_0
  -OEChem-06232314403D

 24 26  0     1  0  0  0  0  0999 V2000
  -14.0401   15.0410  -38.2476 C   0  0  0  0  0  0  0  0  0  0  0  0
  -13.5948   16.2614  -38.5742 C   0  0  0  0  0  0  0  0  0  0  0  0
  -10.6823   13.6532  -36.9847 C   0  0  0  0  0  0  0  0  0  0  0  0
   -9.9333   15.7047  -37.5362 C   0  0  0  0  0  0  0  0  0  0  0  0
  -11.9337   14.4728  -37.0856 C   0  0  1  0  0  0  0  0  0  0  0  0
  -11.4208   15.8777  -37.4624 C   0  0  2  0  0  0  0  0  0  0  0  0
  -12.8367   14.1330  -38.2896 C   0  0  1  0  0  0  0  0  0  0  0  0
  -12.1144   16.1134  -38.8201 C   0  0  2  0  0  0  0  0  0  0  0  0
  -13.1322   12.6827  -38.5941 C   0  0  0  0  0  0  0  0  0  0  0  0
  -11.5158   17.1140  -39.7813 C   0  0  0  0  0  0  0  0  0  0  0  0
  -10.6336   12.4661  -36.6994 O   0  0  0  0  0  0  0  0  0  0  0  0
   -9.1300   16.5845  -37.8077 O   0  0  0  0  0  0  0  0  0  0  0  0
   -9.5928   14.4204  -37.2513 O   0  0  0  0  0  0  0  0  0  0  0  0
  -12.0922   14.7652  -39.3691 O   0  0  0  0  0  0  0  0  0  0  0  0
  -15.0395   14.7833  -37.9365 H   0  0  0  0  0  0  0  0  0  0  0  0
  -14.1670   17.1750  -38.5768 H   0  0  0  0  0  0  0  0  0  0  0  0
  -12.4542   14.4649  -36.1221 H   0  0  0  0  0  0  0  0  0  0  0  0
  -11.6643   16.6269  -36.7016 H   0  0  0  0  0  0  0  0  0  0  0  0
  -12.2088   12.0955  -38.6058 H   0  0  0  0  0  0  0  0  0  0  0  0
  -13.6140   12.5847  -39.5718 H   0  0  0  0  0  0  0  0  0  0  0  0
  -13.7998   12.2585  -37.8377 H   0  0  0  0  0  0  0  0  0  0  0  0
  -10.4427   16.9371  -39.9029 H   0  0  0  0  0  0  0  0  0  0  0  0
  -11.6561   18.1345  -39.4120 H   0  0  0  0  0  0  0  0  0  0  0  0
  -11.9906   17.0357  -40.7642 H   0  0  0  0  0  0  0  0  0  0  0  0
  1  2  2  0  0  0  0
  1  7  1  0  0  0  0
  2  8  1  0  0  0  0
  3  5  1  0  0  0  0
  3 11  2  0  0  0  0
  3 13  1  0  0  0  0
  4  6  1  0  0  0  0
  4 12  2  0  0  0  0
  4 13  1  0  0  0  0
  5  6  1  0  0  0  0
  5  7  1  0  0  0  0
  6  8  1  0  0  0  0
  7  9  1  0  0  0  0
  7 14  1  0  0  0  0
  8 10  1  0  0  0  0
  8 14  1  0  0  0  0
  1 15  1  0  0  0  0
  2 16  1  0  0  0  0
  5 17  1  0  0  0  0
  6 18  1  0  0  0  0
  9 19  1  0  0  0  0
  9 20  1  0  0  0  0
  9 21  1  0  0  0  0
 10 22  1  0  0  0  0
 10 23  1  0  0  0  0
 10 24  1  0  0  0  0
M  END
> <id>
EN300-176430

> <smiles>
CC1(OC2(C)C=C1)C3C2C(=O)OC3=O

> <MDLNUMBER>
MFCD00598255

> <IUPAC Name>
1,7-dimethyl-4,10-dioxatricyclo[5.2.1.0,2,6]dec-8-ene-3,5-dione

> <CAS>
77880-59-2

> <Purity>
91

> <URL>
https://www.enaminestore.com/catalog/EN300-176430

> <ROCS_ShapeQuery>
_x1247relevant_x1083L0AP1_x1305L0BP1_

> <ROCS_TanimotoCombo>
1.021 

> <ROCS_ShapeTanimoto>
0.530 

> <ROCS_ColorTanimoto>
0.491 

> <ROCS_RefTversky>
0.453 

> <ROCS_RefColorTversky>
0.685 

> <ROCS_RefTverskyCombo>
1.139 

> <ROCS_FitTversky>
1.464 

> <ROCS_FitColorTversky>
0.634 

> <ROCS_FitTverskyCombo>
2.098 

> <ROCS_ColorScore>
-6.653

> <ROCS_Overlap>
1118.622

> <ROCS_Rank>
366                 

$$$$
untitled-dbase-27453_0
  -OEChem-06232314403D

 20 21  0     1  0  0  0  0  0999 V2000
  -13.6289   13.9921  -38.2655 C   0  0  0  0  0  0  0  0  0  0  0  0
  -14.0520   14.7425  -39.2988 C   0  0  0  0  0  0  0  0  0  0  0  0
  -11.1848   14.3471  -38.0108 C   0  0  0  0  0  0  0  0  0  0  0  0
  -11.0483   15.6030  -38.8916 C   0  0  0  0  0  0  0  0  0  0  0  0
  -12.6516   16.0127  -37.1697 C   0  0  0  0  0  0  0  0  0  0  0  0
  -12.5521   14.4940  -37.3295 C   0  0  1  0  0  0  0  0  0  0  0  0
  -13.4567   16.1062  -39.5629 C   0  0  2  0  0  0  0  0  0  0  0  0
  -12.2982   16.4621  -38.5941 C   0  0  2  0  0  0  0  0  0  0  0  0
  -15.2674   14.0847  -40.5568 Br  0  0  0  0  0  0  0  0  0  0  0  0
  -14.8645   17.4685  -39.3673 Br  0  0  0  0  0  0  0  0  0  0  0  0
  -14.0049   12.9855  -38.1085 H   0  0  0  0  0  0  0  0  0  0  0  0
  -11.0893   13.4269  -38.5976 H   0  0  0  0  0  0  0  0  0  0  0  0
  -10.3873   14.3417  -37.2579 H   0  0  0  0  0  0  0  0  0  0  0  0
  -10.1397   16.1471  -38.6073 H   0  0  0  0  0  0  0  0  0  0  0  0
  -10.9576   15.3478  -39.9525 H   0  0  0  0  0  0  0  0  0  0  0  0
  -13.6387   16.3450  -36.8335 H   0  0  0  0  0  0  0  0  0  0  0  0
  -11.9088   16.3800  -36.4506 H   0  0  0  0  0  0  0  0  0  0  0  0
  -12.6047   13.9743  -36.3686 H   0  0  0  0  0  0  0  0  0  0  0  0
  -13.1185   16.1972  -40.6012 H   0  0  0  0  0  0  0  0  0  0  0  0
  -12.0546   17.5290  -38.6413 H   0  0  0  0  0  0  0  0  0  0  0  0
  1  2  2  0  0  0  0
  1  6  1  0  0  0  0
  2  7  1  0  0  0  0
  2  9  1  0  0  0  0
  3  4  1  0  0  0  0
  3  6  1  0  0  0  0
  4  8  1  0  0  0  0
  5  6  1  0  0  0  0
  5  8  1  0  0  0  0
  7  8  1  0  0  0  0
  7 10  1  0  0  0  0
  1 11  1  0  0  0  0
  3 12  1  0  0  0  0
  3 13  1  0  0  0  0
  4 14  1  0  0  0  0
  4 15  1  0  0  0  0
  5 16  1  0  0  0  0
  5 17  1  0  0  0  0
  6 18  1  0  0  0  0
  7 19  1  0  0  0  0
  8 20  1  0  0  0  0
M  END
> <id>
EN300-718410

> <smiles>
BrC1C2CCC(C2)C=C1Br

> <MDLNUMBER>
MFCD30663009

> <IUPAC Name>
3,4-dibromobicyclo[3.2.1]oct-2-ene

> <CAS>
61692-17-9

> <URL>
https://www.enaminestore.com/catalog/EN300-718410

> <ROCS_ShapeQuery>
_x1247relevant_x1083L0AP1_x1305L0BP1_

> <ROCS_TanimotoCombo>
1.020 

> <ROCS_ShapeTanimoto>
0.417 

> <ROCS_ColorTanimoto>
0.603 

> <ROCS_RefTversky>
0.356 

> <ROCS_RefColorTversky>
0.685 

> <ROCS_RefTverskyCombo>
1.042 

> <ROCS_FitTversky>
1.695 

> <ROCS_FitColorTversky>
0.834 

> <ROCS_FitTverskyCombo>
2.530 

> <ROCS_ColorScore>
-6.558

> <ROCS_Overlap>
874.081

> <ROCS_Rank>
367                 

$$$$
untitled-dbase-19980_0
  -OEChem-06232314403D

 24 25  0     0  0  0  0  0  0999 V2000
  -10.6417   14.3267  -36.5527 C   0  0  0  0  0  0  0  0  0  0  0  0
  -12.3770   13.6200  -38.1796 C   0  0  0  0  0  0  0  0  0  0  0  0
  -12.7380   15.6403  -36.7417 C   0  0  0  0  0  0  0  0  0  0  0  0
  -11.0381   15.6992  -38.5814 C   0  0  0  0  0  0  0  0  0  0  0  0
  -13.4482   14.1253  -39.1545 C   0  0  0  0  0  0  0  0  0  0  0  0
  -13.8080   16.1427  -37.7195 C   0  0  0  0  0  0  0  0  0  0  0  0
  -12.1137   16.1991  -39.5544 C   0  0  0  0  0  0  0  0  0  0  0  0
  -11.6709   14.8085  -37.4886 C   0  0  0  0  0  0  0  0  0  0  0  0
  -13.4935   15.6617  -39.1451 C   0  0  0  0  0  0  0  0  0  0  0  0
   -9.8305   13.9469  -35.8152 N   0  0  0  0  0  0  0  0  0  0  0  0
  -14.4886   16.1112  -40.0501 O   0  0  0  0  0  0  0  0  0  0  0  0
  -12.8412   12.9594  -37.4356 H   0  0  0  0  0  0  0  0  0  0  0  0
  -11.6507   13.0006  -38.7221 H   0  0  0  0  0  0  0  0  0  0  0  0
  -12.2757   16.4964  -36.2329 H   0  0  0  0  0  0  0  0  0  0  0  0
  -13.2139   15.0418  -35.9537 H   0  0  0  0  0  0  0  0  0  0  0  0
  -10.2708   15.1446  -39.1370 H   0  0  0  0  0  0  0  0  0  0  0  0
  -10.5236   16.5582  -38.1309 H   0  0  0  0  0  0  0  0  0  0  0  0
  -13.2448   13.7552  -40.1675 H   0  0  0  0  0  0  0  0  0  0  0  0
  -14.4294   13.7129  -38.8873 H   0  0  0  0  0  0  0  0  0  0  0  0
  -14.8003   15.7920  -37.4093 H   0  0  0  0  0  0  0  0  0  0  0  0
  -13.8652   17.2382  -37.6885 H   0  0  0  0  0  0  0  0  0  0  0  0
  -12.1213   17.2963  -39.5787 H   0  0  0  0  0  0  0  0  0  0  0  0
  -11.8726   15.8894  -40.5793 H   0  0  0  0  0  0  0  0  0  0  0  0
  -14.4856   17.0823  -40.0149 H   0  0  0  0  0  0  0  0  0  0  0  0
  1  8  1  0  0  0  0
  1 10  3  0  0  0  0
  2  5  1  0  0  0  0
  2  8  1  0  0  0  0
  3  6  1  0  0  0  0
  3  8  1  0  0  0  0
  4  7  1  0  0  0  0
  4  8  1  0  0  0  0
  5  9  1  0  0  0  0
  6  9  1  0  0  0  0
  7  9  1  0  0  0  0
  9 11  1  0  0  0  0
  2 12  1  0  0  0  0
  2 13  1  0  0  0  0
  3 14  1  0  0  0  0
  3 15  1  0  0  0  0
  4 16  1  0  0  0  0
  4 17  1  0  0  0  0
  5 18  1  0  0  0  0
  5 19  1  0  0  0  0
  6 20  1  0  0  0  0
  6 21  1  0  0  0  0
  7 22  1  0  0  0  0
  7 23  1  0  0  0  0
 11 24  1  0  0  0  0
M  END
> <id>
EN300-1718309

> <smiles>
OC1(CCC2(CC1)C#N)CC2

> <MDLNUMBER>
MFCD29042867

> <IUPAC Name>
4-hydroxybicyclo[2.2.2]octane-1-carbonitrile

> <CAS>
72948-86-8

> <URL>
https://www.enaminestore.com/catalog/EN300-1718309

> <ROCS_ShapeQuery>
_x1247relevant_x1083L0AP1_x1305L0BP1_

> <ROCS_TanimotoCombo>
1.020 

> <ROCS_ShapeTanimoto>
0.477 

> <ROCS_ColorTanimoto>
0.544 

> <ROCS_RefTversky>
0.399 

> <ROCS_RefColorTversky>
0.682 

> <ROCS_RefTverskyCombo>
1.082 

> <ROCS_FitTversky>
1.684 

> <ROCS_FitColorTversky>
0.728 

> <ROCS_FitTverskyCombo>
2.412 

> <ROCS_ColorScore>
-6.572

> <ROCS_Overlap>
981.205

> <ROCS_Rank>
368                 

$$$$
untitled-dbase-35825_2
  -OEChem-06232314403D

 36 38  0     1  0  0  0  0  0999 V2000
   -8.6348   14.1711  -37.2820 C   0  0  0  0  0  0  0  0  0  0  0  0
   -9.0162   13.9877  -35.8197 C   0  0  0  0  0  0  0  0  0  0  0  0
  -13.9141   14.3049  -37.7297 C   0  0  0  0  0  0  0  0  0  0  0  0
  -13.9845   15.8109  -37.4693 C   0  0  0  0  0  0  0  0  0  0  0  0
   -9.4095   15.3404  -37.8840 C   0  0  0  0  0  0  0  0  0  0  0  0
  -11.5064   14.0438  -38.5939 C   0  0  0  0  0  0  0  0  0  0  0  0
  -11.6141   16.5442  -38.1517 C   0  0  0  0  0  0  0  0  0  0  0  0
  -10.5276   13.8778  -35.6556 C   0  0  0  0  0  0  0  0  0  0  0  0
  -13.0044   14.1701  -38.9533 C   0  0  2  0  0  0  0  0  0  0  0  0
  -13.1014   16.4287  -38.5561 C   0  0  1  0  0  0  0  0  0  0  0  0
  -10.9440   15.2019  -37.7088 C   0  0  0  0  0  0  0  0  0  0  0  0
  -14.3675   15.5411  -40.4523 C   0  0  0  0  0  0  0  0  0  0  0  0
  -11.2386   14.9996  -36.2713 N   0  0  0  0  0  0  0  0  0  0  0  0
  -13.1432   15.4549  -39.6608 N   0  0  0  0  0  0  0  0  0  0  0  0
   -7.5565   14.3494  -37.3670 H   0  0  0  0  0  0  0  0  0  0  0  0
   -8.8515   13.2538  -37.8408 H   0  0  0  0  0  0  0  0  0  0  0  0
   -8.5376   13.0808  -35.4289 H   0  0  0  0  0  0  0  0  0  0  0  0
   -8.6374   14.8283  -35.2277 H   0  0  0  0  0  0  0  0  0  0  0  0
  -13.5560   13.7433  -36.8623 H   0  0  0  0  0  0  0  0  0  0  0  0
  -14.9198   13.9313  -37.9579 H   0  0  0  0  0  0  0  0  0  0  0  0
  -15.0222   16.1481  -37.5813 H   0  0  0  0  0  0  0  0  0  0  0  0
  -13.6697   16.0778  -36.4564 H   0  0  0  0  0  0  0  0  0  0  0  0
   -9.0565   16.2755  -37.4312 H   0  0  0  0  0  0  0  0  0  0  0  0
   -9.1658   15.4064  -38.9535 H   0  0  0  0  0  0  0  0  0  0  0  0
  -11.3308   13.0719  -38.1139 H   0  0  0  0  0  0  0  0  0  0  0  0
  -10.9403   14.0078  -39.5359 H   0  0  0  0  0  0  0  0  0  0  0  0
  -11.0649   16.9400  -39.0192 H   0  0  0  0  0  0  0  0  0  0  0  0
  -11.5162   17.3174  -37.3817 H   0  0  0  0  0  0  0  0  0  0  0  0
  -10.8715   12.9506  -36.1280 H   0  0  0  0  0  0  0  0  0  0  0  0
  -10.7916   13.7840  -34.5974 H   0  0  0  0  0  0  0  0  0  0  0  0
  -13.2874   13.3136  -39.5764 H   0  0  0  0  0  0  0  0  0  0  0  0
  -13.4601   17.4196  -38.8569 H   0  0  0  0  0  0  0  0  0  0  0  0
  -14.4124   16.5191  -40.9538 H   0  0  0  0  0  0  0  0  0  0  0  0
  -14.3727   14.7414  -41.2076 H   0  0  0  0  0  0  0  0  0  0  0  0
  -15.2397   15.4275  -39.7918 H   0  0  0  0  0  0  0  0  0  0  0  0
  -12.2407   14.8400  -36.1604 H   0  0  0  0  0  0  0  0  0  0  0  0
  1  2  1  0  0  0  0
  1  5  1  0  0  0  0
  2  8  1  0  0  0  0
  3  4  1  0  0  0  0
  3  9  1  0  0  0  0
  4 10  1  0  0  0  0
  5 11  1  0  0  0  0
  6  9  1  0  0  0  0
  6 11  1  0  0  0  0
  7 10  1  0  0  0  0
  7 11  1  0  0  0  0
  8 13  1  0  0  0  0
  9 14  1  0  0  0  0
 10 14  1  0  0  0  0
 11 13  1  0  0  0  0
 12 14  1  0  0  0  0
  1 15  1  0  0  0  0
  1 16  1  0  0  0  0
  2 17  1  0  0  0  0
  2 18  1  0  0  0  0
  3 19  1  0  0  0  0
  3 20  1  0  0  0  0
  4 21  1  0  0  0  0
  4 22  1  0  0  0  0
  5 23  1  0  0  0  0
  5 24  1  0  0  0  0
  6 25  1  0  0  0  0
  6 26  1  0  0  0  0
  7 27  1  0  0  0  0
  7 28  1  0  0  0  0
  8 29  1  0  0  0  0
  8 30  1  0  0  0  0
  9 31  1  0  0  0  0
 10 32  1  0  0  0  0
 12 33  1  0  0  0  0
 12 34  1  0  0  0  0
 12 35  1  0  0  0  0
 13 36  1  0  0  0  0
M  END
> <id>
EN300-1461639

> <smiles>
CN1C2CCC1CC3(CCCCN3)C2

> <IUPAC Name>
8-methyl-8-azaspiro[bicyclo[3.2.1]octane-3,2'-piperidine]

> <CAS>
2172235-47-9

> <URL>
https://www.enaminestore.com/catalog/EN300-1461639

> <ROCS_ShapeQuery>
_x1247relevant_x1083L0AP1_x1305L0BP1_

> <ROCS_TanimotoCombo>
1.020 

> <ROCS_ShapeTanimoto>
0.519 

> <ROCS_ColorTanimoto>
0.501 

> <ROCS_RefTversky>
0.441 

> <ROCS_RefColorTversky>
0.671 

> <ROCS_RefTverskyCombo>
1.112 

> <ROCS_FitTversky>
1.520 

> <ROCS_FitColorTversky>
0.664 

> <ROCS_FitTverskyCombo>
2.184 

> <ROCS_ColorScore>
-6.490

> <ROCS_Overlap>
1086.308

> <ROCS_Rank>
369                 

$$$$
untitled-dbase-34648_0
  -OEChem-06232314403D

 27 28  0     0  0  0  0  0  0999 V2000
  -13.1684   15.9530  -37.4899 C   0  0  0  0  0  0  0  0  0  0  0  0
  -11.7908   15.7302  -39.1115 C   0  0  0  0  0  0  0  0  0  0  0  0
  -13.0571   14.0989  -38.5513 C   0  0  0  0  0  0  0  0  0  0  0  0
  -11.9615   14.9321  -37.7353 C   0  0  0  0  0  0  0  0  0  0  0  0
  -13.2954   15.5489  -38.9539 C   0  0  0  0  0  0  0  0  0  0  0  0
  -11.5638   13.7207  -35.5764 C   0  0  0  0  0  0  0  0  0  0  0  0
  -10.0803   15.6322  -36.2332 C   0  0  0  0  0  0  0  0  0  0  0  0
   -9.9491   13.4591  -37.4767 C   0  0  0  0  0  0  0  0  0  0  0  0
  -10.9290   14.4547  -36.7922 C   0  0  0  0  0  0  0  0  0  0  0  0
  -14.2785   16.0037  -39.8512 N   0  0  0  0  0  0  0  0  0  0  0  0
  -13.9561   15.6276  -36.8025 H   0  0  0  0  0  0  0  0  0  0  0  0
  -12.8980   16.9909  -37.2703 H   0  0  0  0  0  0  0  0  0  0  0  0
  -11.3914   16.7473  -39.0440 H   0  0  0  0  0  0  0  0  0  0  0  0
  -11.2976   15.1979  -39.9312 H   0  0  0  0  0  0  0  0  0  0  0  0
  -12.6824   13.4133  -39.3183 H   0  0  0  0  0  0  0  0  0  0  0  0
  -13.8342   13.5998  -37.9634 H   0  0  0  0  0  0  0  0  0  0  0  0
  -10.8218   13.3544  -34.8581 H   0  0  0  0  0  0  0  0  0  0  0  0
  -12.1498   12.8601  -35.9183 H   0  0  0  0  0  0  0  0  0  0  0  0
  -12.2421   14.3941  -35.0407 H   0  0  0  0  0  0  0  0  0  0  0  0
   -9.3225   15.2549  -35.5373 H   0  0  0  0  0  0  0  0  0  0  0  0
   -9.5579   16.1426  -37.0500 H   0  0  0  0  0  0  0  0  0  0  0  0
  -10.6783   16.3805  -35.7010 H   0  0  0  0  0  0  0  0  0  0  0  0
   -9.1936   13.1191  -36.7594 H   0  0  0  0  0  0  0  0  0  0  0  0
   -9.4230   13.8927  -38.3345 H   0  0  0  0  0  0  0  0  0  0  0  0
  -10.4935   12.5764  -37.8308 H   0  0  0  0  0  0  0  0  0  0  0  0
  -15.2056   15.7636  -39.5284 H   0  0  0  0  0  0  0  0  0  0  0  0
  -14.2388   17.0081  -39.9560 H   0  0  0  0  0  0  0  0  0  0  0  0
  1  4  1  0  0  0  0
  1  5  1  0  0  0  0
  2  4  1  0  0  0  0
  2  5  1  0  0  0  0
  3  4  1  0  0  0  0
  3  5  1  0  0  0  0
  4  9  1  6  0  0  0
  5 10  1  6  0  0  0
  6  9  1  0  0  0  0
  7  9  1  0  0  0  0
  8  9  1  0  0  0  0
  1 11  1  0  0  0  0
  1 12  1  0  0  0  0
  2 13  1  0  0  0  0
  2 14  1  0  0  0  0
  3 15  1  0  0  0  0
  3 16  1  0  0  0  0
  6 17  1  0  0  0  0
  6 18  1  0  0  0  0
  6 19  1  0  0  0  0
  7 20  1  0  0  0  0
  7 21  1  0  0  0  0
  7 22  1  0  0  0  0
  8 23  1  0  0  0  0
  8 24  1  0  0  0  0
  8 25  1  0  0  0  0
 10 26  1  0  0  0  0
 10 27  1  0  0  0  0
M  END
> <id>
EN300-37466778

> <smiles>
CC(C)(C)[C@]1(C[C@@]2(N)C1)C2

> <IUPAC Name>
3-tert-butylbicyclo[1.1.1]pentan-1-amine

> <URL>
https://www.enaminestore.com/catalog/EN300-37466778

> <ROCS_ShapeQuery>
_x1247relevant_x1083L0AP1_x1305L0BP1_

> <ROCS_TanimotoCombo>
1.020 

> <ROCS_ShapeTanimoto>
0.454 

> <ROCS_ColorTanimoto>
0.566 

> <ROCS_RefTversky>
0.379 

> <ROCS_RefColorTversky>
0.751 

> <ROCS_RefTverskyCombo>
1.131 

> <ROCS_FitTversky>
1.755 

> <ROCS_FitColorTversky>
0.697 

> <ROCS_FitTverskyCombo>
2.452 

> <ROCS_ColorScore>
-7.294

> <ROCS_Overlap>
931.512

> <ROCS_Rank>
370                 

$$$$
untitled-dbase-51249_0
  -OEChem-06232314403D

 27 28  0     0  0  0  0  0  0999 V2000
  -13.1684   15.9530  -37.4899 C   0  0  0  0  0  0  0  0  0  0  0  0
  -11.7908   15.7302  -39.1115 C   0  0  0  0  0  0  0  0  0  0  0  0
  -13.0571   14.0989  -38.5513 C   0  0  0  0  0  0  0  0  0  0  0  0
  -11.9615   14.9321  -37.7353 C   0  0  0  0  0  0  0  0  0  0  0  0
  -13.2954   15.5489  -38.9539 C   0  0  0  0  0  0  0  0  0  0  0  0
  -11.5638   13.7207  -35.5764 C   0  0  0  0  0  0  0  0  0  0  0  0
  -10.0803   15.6322  -36.2332 C   0  0  0  0  0  0  0  0  0  0  0  0
   -9.9491   13.4591  -37.4767 C   0  0  0  0  0  0  0  0  0  0  0  0
  -10.9290   14.4547  -36.7922 C   0  0  0  0  0  0  0  0  0  0  0  0
  -14.2785   16.0037  -39.8512 N   0  0  0  0  0  0  0  0  0  0  0  0
  -13.9561   15.6276  -36.8025 H   0  0  0  0  0  0  0  0  0  0  0  0
  -12.8980   16.9909  -37.2703 H   0  0  0  0  0  0  0  0  0  0  0  0
  -11.3914   16.7473  -39.0440 H   0  0  0  0  0  0  0  0  0  0  0  0
  -11.2976   15.1979  -39.9312 H   0  0  0  0  0  0  0  0  0  0  0  0
  -12.6824   13.4133  -39.3183 H   0  0  0  0  0  0  0  0  0  0  0  0
  -13.8342   13.5998  -37.9634 H   0  0  0  0  0  0  0  0  0  0  0  0
  -10.8218   13.3544  -34.8581 H   0  0  0  0  0  0  0  0  0  0  0  0
  -12.1498   12.8601  -35.9183 H   0  0  0  0  0  0  0  0  0  0  0  0
  -12.2421   14.3941  -35.0407 H   0  0  0  0  0  0  0  0  0  0  0  0
   -9.3225   15.2549  -35.5373 H   0  0  0  0  0  0  0  0  0  0  0  0
   -9.5579   16.1426  -37.0500 H   0  0  0  0  0  0  0  0  0  0  0  0
  -10.6783   16.3805  -35.7010 H   0  0  0  0  0  0  0  0  0  0  0  0
   -9.1936   13.1191  -36.7594 H   0  0  0  0  0  0  0  0  0  0  0  0
   -9.4230   13.8927  -38.3345 H   0  0  0  0  0  0  0  0  0  0  0  0
  -10.4935   12.5764  -37.8308 H   0  0  0  0  0  0  0  0  0  0  0  0
  -15.2056   15.7636  -39.5284 H   0  0  0  0  0  0  0  0  0  0  0  0
  -14.2388   17.0081  -39.9560 H   0  0  0  0  0  0  0  0  0  0  0  0
  1  4  1  0  0  0  0
  1  5  1  0  0  0  0
  2  4  1  0  0  0  0
  2  5  1  0  0  0  0
  3  4  1  0  0  0  0
  3  5  1  0  0  0  0
  4  9  1  6  0  0  0
  5 10  1  6  0  0  0
  6  9  1  0  0  0  0
  7  9  1  0  0  0  0
  8  9  1  0  0  0  0
  1 11  1  0  0  0  0
  1 12  1  0  0  0  0
  2 13  1  0  0  0  0
  2 14  1  0  0  0  0
  3 15  1  0  0  0  0
  3 16  1  0  0  0  0
  6 17  1  0  0  0  0
  6 18  1  0  0  0  0
  6 19  1  0  0  0  0
  7 20  1  0  0  0  0
  7 21  1  0  0  0  0
  7 22  1  0  0  0  0
  8 23  1  0  0  0  0
  8 24  1  0  0  0  0
  8 25  1  0  0  0  0
 10 26  1  0  0  0  0
 10 27  1  0  0  0  0
M  END
> <id>
EN300-37374063

> <smiles>
Cl.CC(C)(C)[C@]1(C[C@@]2(N)C1)C2

> <IUPAC Name>
3-tert-butylbicyclo[1.1.1]pentan-1-amine hydrochloride

> <CAS>
1886967-57-2

> <URL>
https://www.enaminestore.com/catalog/EN300-37374063

> <ROCS_ShapeQuery>
_x1247relevant_x1083L0AP1_x1305L0BP1_

> <ROCS_TanimotoCombo>
1.020 

> <ROCS_ShapeTanimoto>
0.454 

> <ROCS_ColorTanimoto>
0.566 

> <ROCS_RefTversky>
0.379 

> <ROCS_RefColorTversky>
0.751 

> <ROCS_RefTverskyCombo>
1.131 

> <ROCS_FitTversky>
1.755 

> <ROCS_FitColorTversky>
0.697 

> <ROCS_FitTverskyCombo>
2.452 

> <ROCS_ColorScore>
-7.294

> <ROCS_Overlap>
931.512

> <ROCS_Rank>
371                 

$$$$
untitled-dbase-50206_0
  -OEChem-06232314403D

 23 25  0     0  0  0  0  0  0999 V2000
   -8.9485   14.8819  -37.0148 C   0  0  0  0  0  0  0  0  0  0  0  0
   -9.5873   14.1796  -35.9885 C   0  0  0  0  0  0  0  0  0  0  0  0
   -9.6867   15.4313  -38.0689 C   0  0  0  0  0  0  0  0  0  0  0  0
  -10.9699   14.0188  -36.0044 C   0  0  0  0  0  0  0  0  0  0  0  0
  -11.0758   15.2865  -38.1128 C   0  0  0  0  0  0  0  0  0  0  0  0
  -11.6899   14.5696  -37.0574 C   0  0  0  0  0  0  0  0  0  0  0  0
  -13.3347   16.5178  -38.5612 C   0  0  0  0  0  0  0  0  0  0  0  0
  -13.1138   14.7294  -39.6475 C   0  0  0  0  0  0  0  0  0  0  0  0
  -13.7532   15.0341  -38.2415 C   0  0  0  0  0  0  0  0  0  0  0  0
  -12.0856   15.8098  -39.1794 C   0  0  0  0  0  0  0  0  0  0  0  0
  -11.5656   16.5582  -40.3075 N   0  0  0  0  0  0  0  0  0  0  0  0
  -13.0757   14.4182  -37.0898 O   0  0  0  0  0  0  0  0  0  0  0  0
   -7.8688   15.0026  -36.9934 H   0  0  0  0  0  0  0  0  0  0  0  0
   -9.0011   13.7582  -35.1769 H   0  0  0  0  0  0  0  0  0  0  0  0
   -9.1663   15.9720  -38.8545 H   0  0  0  0  0  0  0  0  0  0  0  0
  -11.4684   13.4745  -35.2090 H   0  0  0  0  0  0  0  0  0  0  0  0
  -14.0050   17.0424  -39.2534 H   0  0  0  0  0  0  0  0  0  0  0  0
  -13.1519   17.1591  -37.6939 H   0  0  0  0  0  0  0  0  0  0  0  0
  -12.7267   13.7153  -39.7855 H   0  0  0  0  0  0  0  0  0  0  0  0
  -13.7512   14.9834  -40.5036 H   0  0  0  0  0  0  0  0  0  0  0  0
  -14.8317   14.8635  -38.1798 H   0  0  0  0  0  0  0  0  0  0  0  0
  -11.0981   17.3687  -39.9667 H   0  0  0  0  0  0  0  0  0  0  0  0
  -10.9286   15.9801  -40.8091 H   0  0  0  0  0  0  0  0  0  0  0  0
  1  2  2  0  0  0  0
  1  3  1  0  0  0  0
  2  4  1  0  0  0  0
  3  5  2  0  0  0  0
  4  6  2  0  0  0  0
  5  6  1  0  0  0  0
  5 10  1  0  0  0  0
  6 12  1  0  0  0  0
  7  9  1  6  0  0  0
  7 10  1  0  0  0  0
  8  9  1  0  0  0  0
  8 10  1  0  0  0  0
  9 12  1  0  0  0  0
 10 11  1  1  0  0  0
  1 13  1  0  0  0  0
  2 14  1  0  0  0  0
  3 15  1  0  0  0  0
  4 16  1  0  0  0  0
  7 17  1  0  0  0  0
  7 18  1  0  0  0  0
  8 19  1  0  0  0  0
  8 20  1  0  0  0  0
  9 21  1  0  0  0  0
 11 22  1  0  0  0  0
 11 23  1  0  0  0  0
M  END
> <id>
EN300-37375530

> <smiles>
Cl.N[C@]1(C[C@H]2C1)C=3C=CC=CC3O2

> <IUPAC Name>
(1r)-8-oxatricyclo[7.1.1.0,2,7]undeca-2,4,6-trien-1-amine hydrochloride

> <CAS>
2751611-00-2

> <URL>
https://www.enaminestore.com/catalog/EN300-37375530

> <ROCS_ShapeQuery>
_x1247relevant_x1083L0AP1_x1305L0BP1_

> <ROCS_TanimotoCombo>
1.020 

> <ROCS_ShapeTanimoto>
0.515 

> <ROCS_ColorTanimoto>
0.505 

> <ROCS_RefTversky>
0.430 

> <ROCS_RefColorTversky>
0.683 

> <ROCS_RefTverskyCombo>
1.113 

> <ROCS_FitTversky>
1.625 

> <ROCS_FitColorTversky>
0.659 

> <ROCS_FitTverskyCombo>
2.284 

> <ROCS_ColorScore>
-6.616

> <ROCS_Overlap>
1058.100

> <ROCS_Rank>
372                 

$$$$
untitled-dbase-48019_0
  -OEChem-06232314403D

 22 24  0     1  0  0  0  0  0999 V2000
  -10.1467   16.1818  -37.9622 C   0  0  0  0  0  0  0  0  0  0  0  0
   -9.1247   15.4280  -37.3785 C   0  0  0  0  0  0  0  0  0  0  0  0
  -10.6771   13.6274  -36.8739 C   0  0  0  0  0  0  0  0  0  0  0  0
  -11.4314   15.6576  -37.9998 C   0  0  0  0  0  0  0  0  0  0  0  0
  -11.6835   14.3829  -37.4543 C   0  0  0  0  0  0  0  0  0  0  0  0
   -9.3884   14.1606  -36.8382 C   0  0  0  0  0  0  0  0  0  0  0  0
  -13.1365   13.9993  -37.6076 C   0  0  0  0  0  0  0  0  0  0  0  0
  -12.6844   16.2544  -38.5601 C   0  0  2  0  0  0  0  0  0  0  0  0
  -13.7584   15.2087  -38.2900 C   0  0  1  0  0  0  0  0  0  0  0  0
  -13.4085   15.5900  -39.7074 C   0  0  1  0  0  0  0  0  0  0  0  0
  -14.3609   16.3590  -40.5171 N   0  0  0  0  0  0  0  0  0  0  0  0
   -8.1090   13.2536  -36.1264 Cl  0  0  0  0  0  0  0  0  0  0  0  0
   -9.9337   17.1615  -38.3774 H   0  0  0  0  0  0  0  0  0  0  0  0
   -8.1189   15.8407  -37.3490 H   0  0  0  0  0  0  0  0  0  0  0  0
  -10.8952   12.6479  -36.4598 H   0  0  0  0  0  0  0  0  0  0  0  0
  -13.2454   13.1038  -38.2266 H   0  0  0  0  0  0  0  0  0  0  0  0
  -13.5917   13.8397  -36.6251 H   0  0  0  0  0  0  0  0  0  0  0  0
  -12.9247   17.2846  -38.3224 H   0  0  0  0  0  0  0  0  0  0  0  0
  -14.7027   15.5208  -37.8666 H   0  0  0  0  0  0  0  0  0  0  0  0
  -12.8511   14.8642  -40.2917 H   0  0  0  0  0  0  0  0  0  0  0  0
  -13.8476   16.8392  -41.2147 H   0  0  0  0  0  0  0  0  0  0  0  0
  -14.9997   15.7196  -40.9218 H   0  0  0  0  0  0  0  0  0  0  0  0
  1  2  1  0  0  0  0
  1  4  2  0  0  0  0
  2  6  2  0  0  0  0
  3  5  2  0  0  0  0
  3  6  1  0  0  0  0
  4  5  1  0  0  0  0
  4  8  1  0  0  0  0
  5  7  1  0  0  0  0
  6 12  1  0  0  0  0
  7  9  1  0  0  0  0
  8  9  1  0  0  0  0
  8 10  1  0  0  0  0
  9 10  1  0  0  0  0
 10 11  1  0  0  0  0
  1 13  1  0  0  0  0
  2 14  1  0  0  0  0
  3 15  1  0  0  0  0
  7 16  1  0  0  0  0
  7 17  1  0  0  0  0
  8 18  1  0  0  0  0
  9 19  1  0  0  0  0
 10 20  1  0  0  0  0
 11 21  1  0  0  0  0
 11 22  1  0  0  0  0
M  END
> <id>
EN300-311704

> <smiles>
NC1C2CC=3C=C(Cl)C=CC3C12

> <MDLNUMBER>
MFCD30476171

> <IUPAC Name>
4-chloro-1H,1aH,6H,6aH-cyclopropa[a]inden-1-amine

> <CAS>
2044714-15-8

> <URL>
https://www.enaminestore.com/catalog/EN300-311704

> <ROCS_ShapeQuery>
_x1247relevant_x1083L0AP1_x1305L0BP1_

> <ROCS_TanimotoCombo>
1.020 

> <ROCS_ShapeTanimoto>
0.492 

> <ROCS_ColorTanimoto>
0.527 

> <ROCS_RefTversky>
0.415 

> <ROCS_RefColorTversky>
0.598 

> <ROCS_RefTverskyCombo>
1.012 

> <ROCS_FitTversky>
1.613 

> <ROCS_FitColorTversky>
0.818 

> <ROCS_FitTverskyCombo>
2.431 

> <ROCS_ColorScore>
-5.690

> <ROCS_Overlap>
1020.087

> <ROCS_Rank>
373                 

$$$$
untitled-dbase-9131_0
  -OEChem-06232314403D

 22 24  0     1  0  0  0  0  0999 V2000
  -10.1467   16.1818  -37.9622 C   0  0  0  0  0  0  0  0  0  0  0  0
   -9.1247   15.4280  -37.3785 C   0  0  0  0  0  0  0  0  0  0  0  0
  -10.6771   13.6274  -36.8739 C   0  0  0  0  0  0  0  0  0  0  0  0
  -11.4314   15.6576  -37.9998 C   0  0  0  0  0  0  0  0  0  0  0  0
  -11.6835   14.3829  -37.4543 C   0  0  0  0  0  0  0  0  0  0  0  0
   -9.3884   14.1606  -36.8382 C   0  0  0  0  0  0  0  0  0  0  0  0
  -13.1365   13.9993  -37.6076 C   0  0  0  0  0  0  0  0  0  0  0  0
  -12.6844   16.2544  -38.5601 C   0  0  2  0  0  0  0  0  0  0  0  0
  -13.7584   15.2087  -38.2900 C   0  0  1  0  0  0  0  0  0  0  0  0
  -13.4085   15.5900  -39.7074 C   0  0  1  0  0  0  0  0  0  0  0  0
  -14.3609   16.3590  -40.5171 N   0  0  0  0  0  0  0  0  0  0  0  0
   -8.1090   13.2536  -36.1264 Cl  0  0  0  0  0  0  0  0  0  0  0  0
   -9.9337   17.1615  -38.3774 H   0  0  0  0  0  0  0  0  0  0  0  0
   -8.1189   15.8407  -37.3490 H   0  0  0  0  0  0  0  0  0  0  0  0
  -10.8952   12.6479  -36.4598 H   0  0  0  0  0  0  0  0  0  0  0  0
  -13.2454   13.1038  -38.2266 H   0  0  0  0  0  0  0  0  0  0  0  0
  -13.5917   13.8397  -36.6251 H   0  0  0  0  0  0  0  0  0  0  0  0
  -12.9247   17.2846  -38.3224 H   0  0  0  0  0  0  0  0  0  0  0  0
  -14.7027   15.5208  -37.8666 H   0  0  0  0  0  0  0  0  0  0  0  0
  -12.8511   14.8642  -40.2917 H   0  0  0  0  0  0  0  0  0  0  0  0
  -13.8476   16.8392  -41.2147 H   0  0  0  0  0  0  0  0  0  0  0  0
  -14.9997   15.7196  -40.9218 H   0  0  0  0  0  0  0  0  0  0  0  0
  1  2  1  0  0  0  0
  1  4  2  0  0  0  0
  2  6  2  0  0  0  0
  3  5  2  0  0  0  0
  3  6  1  0  0  0  0
  4  5  1  0  0  0  0
  4  8  1  0  0  0  0
  5  7  1  0  0  0  0
  6 12  1  0  0  0  0
  7  9  1  0  0  0  0
  8  9  1  0  0  0  0
  8 10  1  0  0  0  0
  9 10  1  0  0  0  0
 10 11  1  0  0  0  0
  1 13  1  0  0  0  0
  2 14  1  0  0  0  0
  3 15  1  0  0  0  0
  7 16  1  0  0  0  0
  7 17  1  0  0  0  0
  8 18  1  0  0  0  0
  9 19  1  0  0  0  0
 10 20  1  0  0  0  0
 11 21  1  0  0  0  0
 11 22  1  0  0  0  0
M  END
> <id>
EN300-315320

> <smiles>
Cl.NC1C2CC=3C=C(Cl)C=CC3C12

> <MDLNUMBER>
MFCD30476384

> <IUPAC Name>
4-chloro-1H,1aH,6H,6aH-cyclopropa[a]inden-1-amine hydrochloride

> <CAS>
2044714-16-9

> <Purity>
95

> <URL>
https://www.enaminestore.com/catalog/EN300-315320

> <Saltdate>
Cl

> <ROCS_ShapeQuery>
_x1247relevant_x1083L0AP1_x1305L0BP1_

> <ROCS_TanimotoCombo>
1.020 

> <ROCS_ShapeTanimoto>
0.492 

> <ROCS_ColorTanimoto>
0.527 

> <ROCS_RefTversky>
0.415 

> <ROCS_RefColorTversky>
0.598 

> <ROCS_RefTverskyCombo>
1.012 

> <ROCS_FitTversky>
1.613 

> <ROCS_FitColorTversky>
0.818 

> <ROCS_FitTverskyCombo>
2.431 

> <ROCS_ColorScore>
-5.690

> <ROCS_Overlap>
1020.087

> <ROCS_Rank>
374                 

$$$$
untitled-dbase-36922_0
  -OEChem-06232314403D

 27 28  0     0  0  0  0  0  0999 V2000
  -13.0438   16.0906  -37.5531 C   0  0  0  0  0  0  0  0  0  0  0  0
  -13.1732   14.1318  -38.4037 C   0  0  0  0  0  0  0  0  0  0  0  0
  -11.7917   15.5570  -39.2036 C   0  0  0  0  0  0  0  0  0  0  0  0
  -11.9567   14.9320  -37.7399 C   0  0  0  0  0  0  0  0  0  0  0  0
  -13.2948   15.5471  -38.9546 C   0  0  0  0  0  0  0  0  0  0  0  0
  -11.5495   13.9246  -35.4803 C   0  0  0  0  0  0  0  0  0  0  0  0
   -9.9314   15.5941  -36.4187 C   0  0  0  0  0  0  0  0  0  0  0  0
  -10.0828   13.2983  -37.4150 C   0  0  0  0  0  0  0  0  0  0  0  0
  -10.9205   14.4558  -36.8001 C   0  0  0  0  0  0  0  0  0  0  0  0
  -14.2809   16.0017  -39.8488 N   0  0  0  0  0  0  0  0  0  0  0  0
  -13.8173   15.9225  -36.7967 H   0  0  0  0  0  0  0  0  0  0  0  0
  -12.6631   17.1134  -37.4650 H   0  0  0  0  0  0  0  0  0  0  0  0
  -12.9113   13.3335  -39.1057 H   0  0  0  0  0  0  0  0  0  0  0  0
  -13.9585   13.7802  -37.7268 H   0  0  0  0  0  0  0  0  0  0  0  0
  -11.2935   16.5296  -39.2703 H   0  0  0  0  0  0  0  0  0  0  0  0
  -11.4006   14.8922  -39.9806 H   0  0  0  0  0  0  0  0  0  0  0  0
  -10.8047   13.5638  -34.7621 H   0  0  0  0  0  0  0  0  0  0  0  0
  -12.2345   13.0964  -35.6945 H   0  0  0  0  0  0  0  0  0  0  0  0
  -12.1274   14.7169  -34.9915 H   0  0  0  0  0  0  0  0  0  0  0  0
   -9.1733   15.2184  -35.7223 H   0  0  0  0  0  0  0  0  0  0  0  0
   -9.4119   15.9584  -37.3121 H   0  0  0  0  0  0  0  0  0  0  0  0
  -10.4226   16.4519  -35.9458 H   0  0  0  0  0  0  0  0  0  0  0  0
   -9.3221   12.9620  -36.7015 H   0  0  0  0  0  0  0  0  0  0  0  0
   -9.5694   13.5819  -38.3406 H   0  0  0  0  0  0  0  0  0  0  0  0
  -10.7291   12.4427  -37.6409 H   0  0  0  0  0  0  0  0  0  0  0  0
  -15.2061   15.8936  -39.4567 H   0  0  0  0  0  0  0  0  0  0  0  0
  -14.1508   16.9798  -40.0673 H   0  0  0  0  0  0  0  0  0  0  0  0
  1  4  1  0  0  0  0
  1  5  1  0  0  0  0
  2  4  1  0  0  0  0
  2  5  1  0  0  0  0
  3  4  1  0  0  0  0
  3  5  1  0  0  0  0
  4  9  1  0  0  0  0
  5 10  1  0  0  0  0
  6  9  1  0  0  0  0
  7  9  1  0  0  0  0
  8  9  1  0  0  0  0
  1 11  1  0  0  0  0
  1 12  1  0  0  0  0
  2 13  1  0  0  0  0
  2 14  1  0  0  0  0
  3 15  1  0  0  0  0
  3 16  1  0  0  0  0
  6 17  1  0  0  0  0
  6 18  1  0  0  0  0
  6 19  1  0  0  0  0
  7 20  1  0  0  0  0
  7 21  1  0  0  0  0
  7 22  1  0  0  0  0
  8 23  1  0  0  0  0
  8 24  1  0  0  0  0
  8 25  1  0  0  0  0
 10 26  1  0  0  0  0
 10 27  1  0  0  0  0
M  END
> <id>
EN300-378896

> <smiles>
CC(C)(C)C1(CC2(N)C1)C2

> <MDLNUMBER>
MFCD30734022

> <IUPAC Name>
3-tert-butylbicyclo[1.1.1]pentan-1-amine

> <CAS>
1886967-46-9

> <URL>
https://www.enaminestore.com/catalog/EN300-378896

> <ROCS_ShapeQuery>
_x1247relevant_x1083L0AP1_x1305L0BP1_

> <ROCS_TanimotoCombo>
1.019 

> <ROCS_ShapeTanimoto>
0.453 

> <ROCS_ColorTanimoto>
0.566 

> <ROCS_RefTversky>
0.379 

> <ROCS_RefColorTversky>
0.751 

> <ROCS_RefTverskyCombo>
1.131 

> <ROCS_FitTversky>
1.753 

> <ROCS_FitColorTversky>
0.697 

> <ROCS_FitTverskyCombo>
2.450 

> <ROCS_ColorScore>
-7.295

> <ROCS_Overlap>
930.751

> <ROCS_Rank>
375                 

$$$$
untitled-dbase-36888_0
  -OEChem-06232314403D

 27 28  0     0  0  0  0  0  0999 V2000
  -13.0438   16.0906  -37.5531 C   0  0  0  0  0  0  0  0  0  0  0  0
  -13.1732   14.1318  -38.4037 C   0  0  0  0  0  0  0  0  0  0  0  0
  -11.7917   15.5570  -39.2036 C   0  0  0  0  0  0  0  0  0  0  0  0
  -11.9567   14.9320  -37.7399 C   0  0  0  0  0  0  0  0  0  0  0  0
  -13.2948   15.5471  -38.9546 C   0  0  0  0  0  0  0  0  0  0  0  0
  -11.5495   13.9246  -35.4803 C   0  0  0  0  0  0  0  0  0  0  0  0
   -9.9314   15.5941  -36.4187 C   0  0  0  0  0  0  0  0  0  0  0  0
  -10.0828   13.2983  -37.4150 C   0  0  0  0  0  0  0  0  0  0  0  0
  -10.9205   14.4558  -36.8001 C   0  0  0  0  0  0  0  0  0  0  0  0
  -14.2809   16.0017  -39.8488 N   0  0  0  0  0  0  0  0  0  0  0  0
  -13.8173   15.9225  -36.7967 H   0  0  0  0  0  0  0  0  0  0  0  0
  -12.6631   17.1134  -37.4650 H   0  0  0  0  0  0  0  0  0  0  0  0
  -12.9113   13.3335  -39.1057 H   0  0  0  0  0  0  0  0  0  0  0  0
  -13.9585   13.7802  -37.7268 H   0  0  0  0  0  0  0  0  0  0  0  0
  -11.2935   16.5296  -39.2703 H   0  0  0  0  0  0  0  0  0  0  0  0
  -11.4006   14.8922  -39.9806 H   0  0  0  0  0  0  0  0  0  0  0  0
  -10.8047   13.5638  -34.7621 H   0  0  0  0  0  0  0  0  0  0  0  0
  -12.2345   13.0964  -35.6945 H   0  0  0  0  0  0  0  0  0  0  0  0
  -12.1274   14.7169  -34.9915 H   0  0  0  0  0  0  0  0  0  0  0  0
   -9.1733   15.2184  -35.7223 H   0  0  0  0  0  0  0  0  0  0  0  0
   -9.4119   15.9584  -37.3121 H   0  0  0  0  0  0  0  0  0  0  0  0
  -10.4226   16.4519  -35.9458 H   0  0  0  0  0  0  0  0  0  0  0  0
   -9.3221   12.9620  -36.7015 H   0  0  0  0  0  0  0  0  0  0  0  0
   -9.5694   13.5819  -38.3406 H   0  0  0  0  0  0  0  0  0  0  0  0
  -10.7291   12.4427  -37.6409 H   0  0  0  0  0  0  0  0  0  0  0  0
  -15.2061   15.8936  -39.4567 H   0  0  0  0  0  0  0  0  0  0  0  0
  -14.1508   16.9798  -40.0673 H   0  0  0  0  0  0  0  0  0  0  0  0
  1  4  1  0  0  0  0
  1  5  1  0  0  0  0
  2  4  1  0  0  0  0
  2  5  1  0  0  0  0
  3  4  1  0  0  0  0
  3  5  1  0  0  0  0
  4  9  1  0  0  0  0
  5 10  1  0  0  0  0
  6  9  1  0  0  0  0
  7  9  1  0  0  0  0
  8  9  1  0  0  0  0
  1 11  1  0  0  0  0
  1 12  1  0  0  0  0
  2 13  1  0  0  0  0
  2 14  1  0  0  0  0
  3 15  1  0  0  0  0
  3 16  1  0  0  0  0
  6 17  1  0  0  0  0
  6 18  1  0  0  0  0
  6 19  1  0  0  0  0
  7 20  1  0  0  0  0
  7 21  1  0  0  0  0
  7 22  1  0  0  0  0
  8 23  1  0  0  0  0
  8 24  1  0  0  0  0
  8 25  1  0  0  0  0
 10 26  1  0  0  0  0
 10 27  1  0  0  0  0
M  END
> <id>
EN300-378895

> <smiles>
Cl.CC(C)(C)C1(CC2(N)C1)C2

> <MDLNUMBER>
MFCD30734021

> <IUPAC Name>
3-tert-butylbicyclo[1.1.1]pentan-1-amine hydrochloride

> <CAS>
1886967-57-2

> <Purity>
95

> <URL>
https://www.enaminestore.com/catalog/EN300-378895

> <Saltdate>
Cl

> <ROCS_ShapeQuery>
_x1247relevant_x1083L0AP1_x1305L0BP1_

> <ROCS_TanimotoCombo>
1.019 

> <ROCS_ShapeTanimoto>
0.453 

> <ROCS_ColorTanimoto>
0.566 

> <ROCS_RefTversky>
0.379 

> <ROCS_RefColorTversky>
0.751 

> <ROCS_RefTverskyCombo>
1.131 

> <ROCS_FitTversky>
1.753 

> <ROCS_FitColorTversky>
0.697 

> <ROCS_FitTverskyCombo>
2.450 

> <ROCS_ColorScore>
-7.295

> <ROCS_Overlap>
930.751

> <ROCS_Rank>
376                 

$$$$
untitled-dbase-47044_0
  -OEChem-06232314403D

 23 25  0     1  0  0  0  0  0999 V2000
  -12.8411   13.8343  -37.7354 C   0  0  0  0  0  0  0  0  0  0  0  0
  -11.4283   15.7009  -37.3902 C   0  0  0  0  0  0  0  0  0  0  0  0
  -14.7955   15.2452  -38.6387 C   0  0  0  0  0  0  0  0  0  0  0  0
  -11.5279   14.4473  -38.2629 C   0  0  2  0  0  0  0  0  0  0  0  0
  -13.7495   15.0722  -37.5493 C   0  0  2  0  0  0  0  0  0  0  0  0
  -12.7840   16.2317  -37.8204 C   0  0  2  0  0  0  0  0  0  0  0  0
  -12.7485   16.2115  -39.3598 C   0  0  1  0  0  0  0  0  0  0  0  0
  -11.8119   15.0149  -39.6713 C   0  0  1  0  0  0  0  0  0  0  0  0
  -14.1293   15.9144  -39.7673 N   0  0  0  0  0  0  0  0  0  0  0  0
  -10.2772   15.5563  -40.4985 S   0  0  0  0  0  0  0  0  0  0  0  0
  -13.2625   13.0812  -38.4086 H   0  0  0  0  0  0  0  0  0  0  0  0
  -12.6651   13.3578  -36.7634 H   0  0  0  0  0  0  0  0  0  0  0  0
  -11.3790   15.4753  -36.3197 H   0  0  0  0  0  0  0  0  0  0  0  0
  -10.6026   16.3657  -37.6592 H   0  0  0  0  0  0  0  0  0  0  0  0
  -15.2437   14.2939  -38.9428 H   0  0  0  0  0  0  0  0  0  0  0  0
  -15.6015   15.8983  -38.2865 H   0  0  0  0  0  0  0  0  0  0  0  0
  -10.6798   13.7615  -38.1992 H   0  0  0  0  0  0  0  0  0  0  0  0
  -14.1838   15.0908  -36.5449 H   0  0  0  0  0  0  0  0  0  0  0  0
  -13.0973   17.1844  -37.3868 H   0  0  0  0  0  0  0  0  0  0  0  0
  -12.4105   17.1597  -39.7890 H   0  0  0  0  0  0  0  0  0  0  0  0
  -12.2683   14.2620  -40.3233 H   0  0  0  0  0  0  0  0  0  0  0  0
  -14.1480   15.3246  -40.5972 H   0  0  0  0  0  0  0  0  0  0  0  0
  -10.8725   15.9656  -41.6257 H   0  0  0  0  0  0  0  0  0  0  0  0
  1  4  1  0  0  0  0
  1  5  1  0  0  0  0
  2  4  1  0  0  0  0
  2  6  1  0  0  0  0
  3  5  1  0  0  0  0
  3  9  1  0  0  0  0
  4  8  1  0  0  0  0
  5  6  1  0  0  0  0
  6  7  1  0  0  0  0
  7  8  1  0  0  0  0
  7  9  1  0  0  0  0
  8 10  1  0  0  0  0
  1 11  1  0  0  0  0
  1 12  1  0  0  0  0
  2 13  1  0  0  0  0
  2 14  1  0  0  0  0
  3 15  1  0  0  0  0
  3 16  1  0  0  0  0
  4 17  1  0  0  0  0
  5 18  1  0  0  0  0
  6 19  1  0  0  0  0
  7 20  1  0  0  0  0
  8 21  1  0  0  0  0
  9 22  1  0  0  0  0
 10 23  1  0  0  0  0
M  END
> <id>
EN300-1289281

> <smiles>
SC1C2CC3CNC1C3C2

> <IUPAC Name>
4-azatricyclo[4.2.1.0,3,7]nonane-2-thiol

> <CAS>
2172199-62-9

> <URL>
https://www.enaminestore.com/catalog/EN300-1289281

> <ROCS_ShapeQuery>
_x1247relevant_x1083L0AP1_x1305L0BP1_

> <ROCS_TanimotoCombo>
1.019 

> <ROCS_ShapeTanimoto>
0.420 

> <ROCS_ColorTanimoto>
0.600 

> <ROCS_RefTversky>
0.362 

> <ROCS_RefColorTversky>
0.917 

> <ROCS_RefTverskyCombo>
1.280 

> <ROCS_FitTversky>
1.606 

> <ROCS_FitColorTversky>
0.634 

> <ROCS_FitTverskyCombo>
2.240 

> <ROCS_ColorScore>
-9.091

> <ROCS_Overlap>
889.787

> <ROCS_Rank>
377                 

$$$$
untitled-dbase-44733_2
  -OEChem-06232314403D

 27 29  0     1  0  0  0  0  0999 V2000
   -9.2542   14.8083  -36.3481 C   0  0  0  0  0  0  0  0  0  0  0  0
   -9.6095   14.0376  -37.6288 C   0  0  0  0  0  0  0  0  0  0  0  0
  -10.7241   15.1789  -36.0943 C   0  0  0  0  0  0  0  0  0  0  0  0
  -13.9403   14.5753  -39.3698 C   0  0  0  0  0  0  0  0  0  0  0  0
  -13.3067   15.8685  -39.8704 C   0  0  0  0  0  0  0  0  0  0  0  0
  -12.1883   13.7548  -37.7144 C   0  0  0  0  0  0  0  0  0  0  0  0
  -11.1306   15.9318  -38.5480 C   0  0  0  0  0  0  0  0  0  0  0  0
  -13.5307   14.4933  -37.8973 C   0  0  1  0  0  0  0  0  0  0  0  0
  -12.5847   16.4402  -38.6476 C   0  0  2  0  0  0  0  0  0  0  0  0
  -11.0114   14.7366  -37.5795 C   0  0  0  0  0  0  0  0  0  0  0  0
  -13.3918   15.9140  -37.5328 N   0  0  0  0  0  0  0  0  0  0  0  0
   -8.2154   15.0433  -35.7688 O   0  0  0  0  0  0  0  0  0  0  0  0
   -8.9583   14.2844  -38.4715 H   0  0  0  0  0  0  0  0  0  0  0  0
   -9.6051   12.9530  -37.4733 H   0  0  0  0  0  0  0  0  0  0  0  0
  -11.1796   14.5587  -35.3192 H   0  0  0  0  0  0  0  0  0  0  0  0
  -10.8832   16.2327  -35.8650 H   0  0  0  0  0  0  0  0  0  0  0  0
  -15.0315   14.6482  -39.4584 H   0  0  0  0  0  0  0  0  0  0  0  0
  -13.6241   13.7022  -39.9483 H   0  0  0  0  0  0  0  0  0  0  0  0
  -12.6440   15.7126  -40.7254 H   0  0  0  0  0  0  0  0  0  0  0  0
  -14.0978   16.5559  -40.1954 H   0  0  0  0  0  0  0  0  0  0  0  0
  -12.2571   13.1418  -36.8073 H   0  0  0  0  0  0  0  0  0  0  0  0
  -12.0273   13.0648  -38.5491 H   0  0  0  0  0  0  0  0  0  0  0  0
  -10.7604   15.6673  -39.5424 H   0  0  0  0  0  0  0  0  0  0  0  0
  -10.5088   16.7571  -38.1840 H   0  0  0  0  0  0  0  0  0  0  0  0
  -14.3008   13.9984  -37.3024 H   0  0  0  0  0  0  0  0  0  0  0  0
  -12.5855   17.5303  -38.6678 H   0  0  0  0  0  0  0  0  0  0  0  0
  -14.3095   16.3521  -37.5540 H   0  0  0  0  0  0  0  0  0  0  0  0
  1  2  1  0  0  0  0
  1  3  1  0  0  0  0
  1 12  2  0  0  0  0
  2 10  1  0  0  0  0
  3 10  1  0  0  0  0
  4  5  1  0  0  0  0
  4  8  1  0  0  0  0
  5  9  1  0  0  0  0
  6  8  1  0  0  0  0
  6 10  1  0  0  0  0
  7  9  1  0  0  0  0
  7 10  1  0  0  0  0
  8 11  1  0  0  0  0
  9 11  1  0  0  0  0
  2 13  1  0  0  0  0
  2 14  1  0  0  0  0
  3 15  1  0  0  0  0
  3 16  1  0  0  0  0
  4 17  1  0  0  0  0
  4 18  1  0  0  0  0
  5 19  1  0  0  0  0
  5 20  1  0  0  0  0
  6 21  1  0  0  0  0
  6 22  1  0  0  0  0
  7 23  1  0  0  0  0
  7 24  1  0  0  0  0
  8 25  1  0  0  0  0
  9 26  1  0  0  0  0
 11 27  1  0  0  0  0
M  END
> <id>
EN300-28270930

> <smiles>
O=C1CC2(C1)CC3CCC(C2)N3

> <IUPAC Name>
8-azaspiro[bicyclo[3.2.1]octane-3,1'-cyclobutan]-3'-one

> <CAS>
2680624-38-6

> <URL>
https://www.enaminestore.com/catalog/EN300-28270930

> <ROCS_ShapeQuery>
_x1247relevant_x1083L0AP1_x1305L0BP1_

> <ROCS_TanimotoCombo>
1.019 

> <ROCS_ShapeTanimoto>
0.517 

> <ROCS_ColorTanimoto>
0.502 

> <ROCS_RefTversky>
0.429 

> <ROCS_RefColorTversky>
0.673 

> <ROCS_RefTverskyCombo>
1.101 

> <ROCS_FitTversky>
1.661 

> <ROCS_FitColorTversky>
0.664 

> <ROCS_FitTverskyCombo>
2.325 

> <ROCS_ColorScore>
-6.505

> <ROCS_Overlap>
1055.171

> <ROCS_Rank>
378                 

$$$$
untitled-dbase-8541_0
  -OEChem-06232314403D

 19 20  0     0  0  0  0  0  0999 V2000
  -13.5969   14.6766  -37.2239 C   0  0  0  0  0  0  0  0  0  0  0  0
  -13.8028   16.1142  -37.7226 C   0  0  0  0  0  0  0  0  0  0  0  0
  -11.2592   14.7121  -38.0776 C   0  0  0  0  0  0  0  0  0  0  0  0
  -11.4659   16.1554  -38.5784 C   0  0  0  0  0  0  0  0  0  0  0  0
  -12.6508   14.0760  -38.2836 C   0  0  0  0  0  0  0  0  0  0  0  0
  -12.9494   16.1597  -39.0064 C   0  0  0  0  0  0  0  0  0  0  0  0
  -13.0718   14.7532  -39.5840 C   0  0  0  0  0  0  0  0  0  0  0  0
  -14.8233   14.2797  -40.2253 Br  0  0  0  0  0  0  0  0  0  0  0  0
  -13.1655   14.6525  -36.2178 H   0  0  0  0  0  0  0  0  0  0  0  0
  -14.5517   14.1411  -37.1879 H   0  0  0  0  0  0  0  0  0  0  0  0
  -14.8609   16.2989  -37.9372 H   0  0  0  0  0  0  0  0  0  0  0  0
  -13.4815   16.8529  -36.9809 H   0  0  0  0  0  0  0  0  0  0  0  0
  -10.5039   14.2059  -38.6897 H   0  0  0  0  0  0  0  0  0  0  0  0
  -10.9294   14.6817  -37.0343 H   0  0  0  0  0  0  0  0  0  0  0  0
  -11.2472   16.8952  -37.8018 H   0  0  0  0  0  0  0  0  0  0  0  0
  -10.8115   16.3544  -39.4346 H   0  0  0  0  0  0  0  0  0  0  0  0
  -12.6370   12.9839  -38.2859 H   0  0  0  0  0  0  0  0  0  0  0  0
  -13.2101   16.9841  -39.6734 H   0  0  0  0  0  0  0  0  0  0  0  0
  -12.3784   14.5654  -40.4117 H   0  0  0  0  0  0  0  0  0  0  0  0
  1  2  1  0  0  0  0
  1  5  1  0  0  0  0
  2  6  1  0  0  0  0
  3  4  1  0  0  0  0
  3  5  1  0  0  0  0
  4  6  1  0  0  0  0
  5  7  1  0  0  0  0
  6  7  1  0  0  0  0
  7  8  1  0  0  0  0
  1  9  1  0  0  0  0
  1 10  1  0  0  0  0
  2 11  1  0  0  0  0
  2 12  1  0  0  0  0
  3 13  1  0  0  0  0
  3 14  1  0  0  0  0
  4 15  1  0  0  0  0
  4 16  1  0  0  0  0
  5 17  1  0  0  0  0
  6 18  1  0  0  0  0
  7 19  1  0  0  0  0
M  END
> <id>
EN300-297302

> <smiles>
BrC1C2CCC1CC2

> <MDLNUMBER>
MFCD20542774

> <IUPAC Name>
7-bromobicyclo[2.2.1]heptane

> <CAS>
13237-88-2

> <Purity>
95

> <URL>
https://www.enaminestore.com/catalog/EN300-297302

> <ROCS_ShapeQuery>
_x1247relevant_x1083L0AP1_x1305L0BP1_

> <ROCS_TanimotoCombo>
1.019 

> <ROCS_ShapeTanimoto>
0.373 

> <ROCS_ColorTanimoto>
0.646 

> <ROCS_RefTversky>
0.321 

> <ROCS_RefColorTversky>
0.698 

> <ROCS_RefTverskyCombo>
1.019 

> <ROCS_FitTversky>
1.765 

> <ROCS_FitColorTversky>
0.895 

> <ROCS_FitTverskyCombo>
2.660 

> <ROCS_ColorScore>
-6.667

> <ROCS_Overlap>
786.859

> <ROCS_Rank>
379                 

$$$$
untitled-dbase-41620_1
  -OEChem-06232314403D

 21 22  0     1  0  0  0  0  0999 V2000
  -12.4359   14.8545  -36.8423 C   0  0  0  0  0  0  0  0  0  0  0  0
  -14.2923   14.8002  -38.7109 C   0  0  0  0  0  0  0  0  0  0  0  0
  -12.8591   16.5352  -39.3250 C   0  0  0  0  0  0  0  0  0  0  0  0
  -12.9030   14.3870  -38.2443 C   0  0  1  0  0  0  0  0  0  0  0  0
  -11.9398   15.4119  -38.8674 C   0  0  2  0  0  0  0  0  0  0  0  0
  -11.2137   15.5306  -37.5035 C   0  0  2  0  0  0  0  0  0  0  0  0
   -9.9064   14.7599  -37.3978 C   0  0  0  0  0  0  0  0  0  0  0  0
  -14.1069   15.8719  -39.6907 N   0  0  0  0  0  0  0  0  0  0  0  0
   -9.4776   14.7356  -36.1233 F   0  0  0  0  0  0  0  0  0  0  0  0
  -10.0734   13.4928  -37.8164 F   0  0  0  0  0  0  0  0  0  0  0  0
   -8.9580   15.3385  -38.1561 F   0  0  0  0  0  0  0  0  0  0  0  0
  -13.1148   15.5313  -36.3243 H   0  0  0  0  0  0  0  0  0  0  0  0
  -12.1868   14.0244  -36.1780 H   0  0  0  0  0  0  0  0  0  0  0  0
  -14.7866   13.9506  -39.1971 H   0  0  0  0  0  0  0  0  0  0  0  0
  -14.9263   15.1293  -37.8823 H   0  0  0  0  0  0  0  0  0  0  0  0
  -13.0183   17.2784  -38.5427 H   0  0  0  0  0  0  0  0  0  0  0  0
  -12.4349   17.0354  -40.2000 H   0  0  0  0  0  0  0  0  0  0  0  0
  -12.6779   13.3451  -38.4427 H   0  0  0  0  0  0  0  0  0  0  0  0
  -11.3143   14.9907  -39.6772 H   0  0  0  0  0  0  0  0  0  0  0  0
  -11.0783   16.5571  -37.1646 H   0  0  0  0  0  0  0  0  0  0  0  0
  -14.0582   15.4949  -40.6382 H   0  0  0  0  0  0  0  0  0  0  0  0
  1  4  1  0  0  0  0
  1  6  1  0  0  0  0
  2  4  1  0  0  0  0
  2  8  1  0  0  0  0
  3  5  1  0  0  0  0
  3  8  1  0  0  0  0
  4  5  1  0  0  0  0
  5  6  1  0  0  0  0
  6  7  1  0  0  0  0
  7  9  1  0  0  0  0
  7 10  1  0  0  0  0
  7 11  1  0  0  0  0
  1 12  1  0  0  0  0
  1 13  1  0  0  0  0
  2 14  1  0  0  0  0
  2 15  1  0  0  0  0
  3 16  1  0  0  0  0
  3 17  1  0  0  0  0
  4 18  1  0  0  0  0
  5 19  1  0  0  0  0
  6 20  1  0  0  0  0
  8 21  1  0  0  0  0
M  END
> <id>
EN300-22989188

> <smiles>
FC(F)(F)C1CC2CNCC12

> <MDLNUMBER>
MFCD32859912

> <IUPAC Name>
6-(trifluoromethyl)-3-azabicyclo[3.2.0]heptane

> <CAS>
2384058-34-6

> <URL>
https://www.enaminestore.com/catalog/EN300-22989188

> <ROCS_ShapeQuery>
_x1247relevant_x1083L0AP1_x1305L0BP1_

> <ROCS_TanimotoCombo>
1.019 

> <ROCS_ShapeTanimoto>
0.491 

> <ROCS_ColorTanimoto>
0.528 

> <ROCS_RefTversky>
0.409 

> <ROCS_RefColorTversky>
0.618 

> <ROCS_RefTverskyCombo>
1.026 

> <ROCS_FitTversky>
1.692 

> <ROCS_FitColorTversky>
0.784 

> <ROCS_FitTverskyCombo>
2.477 

> <ROCS_ColorScore>
-5.902

> <ROCS_Overlap>
1004.462

> <ROCS_Rank>
380                 

$$$$
untitled-dbase-41825_1
  -OEChem-06232314403D

 21 22  0     1  0  0  0  0  0999 V2000
  -12.4359   14.8545  -36.8423 C   0  0  0  0  0  0  0  0  0  0  0  0
  -14.2923   14.8002  -38.7109 C   0  0  0  0  0  0  0  0  0  0  0  0
  -12.8591   16.5352  -39.3250 C   0  0  0  0  0  0  0  0  0  0  0  0
  -12.9030   14.3870  -38.2443 C   0  0  1  0  0  0  0  0  0  0  0  0
  -11.9398   15.4119  -38.8674 C   0  0  2  0  0  0  0  0  0  0  0  0
  -11.2137   15.5306  -37.5035 C   0  0  2  0  0  0  0  0  0  0  0  0
   -9.9064   14.7599  -37.3978 C   0  0  0  0  0  0  0  0  0  0  0  0
  -14.1069   15.8719  -39.6907 N   0  0  0  0  0  0  0  0  0  0  0  0
   -9.4776   14.7356  -36.1233 F   0  0  0  0  0  0  0  0  0  0  0  0
  -10.0734   13.4928  -37.8164 F   0  0  0  0  0  0  0  0  0  0  0  0
   -8.9580   15.3385  -38.1561 F   0  0  0  0  0  0  0  0  0  0  0  0
  -13.1148   15.5313  -36.3243 H   0  0  0  0  0  0  0  0  0  0  0  0
  -12.1868   14.0244  -36.1780 H   0  0  0  0  0  0  0  0  0  0  0  0
  -14.7866   13.9506  -39.1971 H   0  0  0  0  0  0  0  0  0  0  0  0
  -14.9263   15.1293  -37.8823 H   0  0  0  0  0  0  0  0  0  0  0  0
  -13.0183   17.2784  -38.5427 H   0  0  0  0  0  0  0  0  0  0  0  0
  -12.4349   17.0354  -40.2000 H   0  0  0  0  0  0  0  0  0  0  0  0
  -12.6779   13.3451  -38.4427 H   0  0  0  0  0  0  0  0  0  0  0  0
  -11.3143   14.9907  -39.6772 H   0  0  0  0  0  0  0  0  0  0  0  0
  -11.0783   16.5571  -37.1646 H   0  0  0  0  0  0  0  0  0  0  0  0
  -14.0582   15.4949  -40.6382 H   0  0  0  0  0  0  0  0  0  0  0  0
  1  4  1  0  0  0  0
  1  6  1  0  0  0  0
  2  4  1  0  0  0  0
  2  8  1  0  0  0  0
  3  5  1  0  0  0  0
  3  8  1  0  0  0  0
  4  5  1  0  0  0  0
  5  6  1  0  0  0  0
  6  7  1  0  0  0  0
  7  9  1  0  0  0  0
  7 10  1  0  0  0  0
  7 11  1  0  0  0  0
  1 12  1  0  0  0  0
  1 13  1  0  0  0  0
  2 14  1  0  0  0  0
  2 15  1  0  0  0  0
  3 16  1  0  0  0  0
  3 17  1  0  0  0  0
  4 18  1  0  0  0  0
  5 19  1  0  0  0  0
  6 20  1  0  0  0  0
  8 21  1  0  0  0  0
M  END
> <id>
EN300-27149565

> <smiles>
Cl.FC(F)(F)C1CC2CNCC12

> <MDLNUMBER>
MFCD32859749

> <IUPAC Name>
6-(trifluoromethyl)-3-azabicyclo[3.2.0]heptane hydrochloride

> <CAS>
2503201-74-7

> <URL>
https://www.enaminestore.com/catalog/EN300-27149565

> <Saltdate>
Cl

> <ROCS_ShapeQuery>
_x1247relevant_x1083L0AP1_x1305L0BP1_

> <ROCS_TanimotoCombo>
1.019 

> <ROCS_ShapeTanimoto>
0.491 

> <ROCS_ColorTanimoto>
0.528 

> <ROCS_RefTversky>
0.409 

> <ROCS_RefColorTversky>
0.618 

> <ROCS_RefTverskyCombo>
1.026 

> <ROCS_FitTversky>
1.692 

> <ROCS_FitColorTversky>
0.784 

> <ROCS_FitTverskyCombo>
2.477 

> <ROCS_ColorScore>
-5.902

> <ROCS_Overlap>
1004.462

> <ROCS_Rank>
381                 

$$$$
untitled-dbase-44127_1
  -OEChem-06232314403D

 21 22  0     1  0  0  0  0  0999 V2000
  -12.4104   14.9394  -36.8246 C   0  0  0  0  0  0  0  0  0  0  0  0
  -14.3184   14.8696  -38.6382 C   0  0  0  0  0  0  0  0  0  0  0  0
  -12.8111   16.4731  -39.4020 C   0  0  0  0  0  0  0  0  0  0  0  0
  -12.9425   14.4090  -38.1801 C   0  0  1  0  0  0  0  0  0  0  0  0
  -11.9431   15.3321  -38.8940 C   0  0  2  0  0  0  0  0  0  0  0  0
  -11.1722   15.4991  -37.5602 C   0  0  2  0  0  0  0  0  0  0  0  0
   -9.9071   14.6637  -37.4352 C   0  0  0  0  0  0  0  0  0  0  0  0
  -14.1167   15.8735  -39.6934 N   0  0  0  0  0  0  0  0  0  0  0  0
   -9.4437   14.6996  -36.1731 F   0  0  0  0  0  0  0  0  0  0  0  0
  -10.1560   13.3831  -37.7624 F   0  0  0  0  0  0  0  0  0  0  0  0
   -8.9505   15.1354  -38.2546 F   0  0  0  0  0  0  0  0  0  0  0  0
  -13.0348   15.6868  -36.3362 H   0  0  0  0  0  0  0  0  0  0  0  0
  -12.1893   14.1416  -36.1125 H   0  0  0  0  0  0  0  0  0  0  0  0
  -14.8744   14.0201  -39.0576 H   0  0  0  0  0  0  0  0  0  0  0  0
  -14.9138   15.2826  -37.8157 H   0  0  0  0  0  0  0  0  0  0  0  0
  -12.9024   17.2784  -38.6688 H   0  0  0  0  0  0  0  0  0  0  0  0
  -12.3847   16.8911  -40.3204 H   0  0  0  0  0  0  0  0  0  0  0  0
  -12.7818   13.3444  -38.3134 H   0  0  0  0  0  0  0  0  0  0  0  0
  -11.3655   14.8240  -39.6893 H   0  0  0  0  0  0  0  0  0  0  0  0
  -10.9705   16.5363  -37.2954 H   0  0  0  0  0  0  0  0  0  0  0  0
  -14.1229   15.4407  -40.6127 H   0  0  0  0  0  0  0  0  0  0  0  0
  1  4  1  1  0  0  0
  1  6  1  0  0  0  0
  2  4  1  0  0  0  0
  2  8  1  0  0  0  0
  3  5  1  1  0  0  0
  3  8  1  0  0  0  0
  4  5  1  0  0  0  0
  5  6  1  0  0  0  0
  6  7  1  6  0  0  0
  7  9  1  0  0  0  0
  7 10  1  0  0  0  0
  7 11  1  0  0  0  0
  1 12  1  0  0  0  0
  1 13  1  0  0  0  0
  2 14  1  0  0  0  0
  2 15  1  0  0  0  0
  3 16  1  0  0  0  0
  3 17  1  0  0  0  0
  4 18  1  0  0  0  0
  5 19  1  0  0  0  0
  6 20  1  0  0  0  0
  8 21  1  0  0  0  0
M  END
> <id>
EN300-27747395

> <smiles>
FC(F)(F)[C@@H]1C[C@H]2CNC[C@@H]12 |&1:4,6,10,r|

> <IUPAC Name>
rac-(1R,5R,6R)-6-(trifluoromethyl)-3-azabicyclo[3.2.0]heptane

> <CAS>
2381519-00-0

> <URL>
https://www.enaminestore.com/catalog/EN300-27747395

> <ROCS_ShapeQuery>
_x1247relevant_x1083L0AP1_x1305L0BP1_

> <ROCS_TanimotoCombo>
1.019 

> <ROCS_ShapeTanimoto>
0.490 

> <ROCS_ColorTanimoto>
0.529 

> <ROCS_RefTversky>
0.408 

> <ROCS_RefColorTversky>
0.618 

> <ROCS_RefTverskyCombo>
1.027 

> <ROCS_FitTversky>
1.690 

> <ROCS_FitColorTversky>
0.785 

> <ROCS_FitTverskyCombo>
2.475 

> <ROCS_ColorScore>
-5.908

> <ROCS_Overlap>
1003.127

> <ROCS_Rank>
382                 

$$$$
untitled-dbase-44515_1
  -OEChem-06232314403D

 21 22  0     1  0  0  0  0  0999 V2000
  -12.4104   14.9394  -36.8246 C   0  0  0  0  0  0  0  0  0  0  0  0
  -14.3184   14.8696  -38.6382 C   0  0  0  0  0  0  0  0  0  0  0  0
  -12.8111   16.4731  -39.4020 C   0  0  0  0  0  0  0  0  0  0  0  0
  -12.9425   14.4090  -38.1801 C   0  0  1  0  0  0  0  0  0  0  0  0
  -11.9431   15.3321  -38.8940 C   0  0  2  0  0  0  0  0  0  0  0  0
  -11.1722   15.4991  -37.5602 C   0  0  2  0  0  0  0  0  0  0  0  0
   -9.9071   14.6637  -37.4352 C   0  0  0  0  0  0  0  0  0  0  0  0
  -14.1167   15.8735  -39.6934 N   0  0  0  0  0  0  0  0  0  0  0  0
   -9.4437   14.6996  -36.1731 F   0  0  0  0  0  0  0  0  0  0  0  0
  -10.1560   13.3831  -37.7624 F   0  0  0  0  0  0  0  0  0  0  0  0
   -8.9505   15.1354  -38.2546 F   0  0  0  0  0  0  0  0  0  0  0  0
  -13.0348   15.6868  -36.3362 H   0  0  0  0  0  0  0  0  0  0  0  0
  -12.1893   14.1416  -36.1125 H   0  0  0  0  0  0  0  0  0  0  0  0
  -14.8744   14.0201  -39.0576 H   0  0  0  0  0  0  0  0  0  0  0  0
  -14.9138   15.2826  -37.8157 H   0  0  0  0  0  0  0  0  0  0  0  0
  -12.9024   17.2784  -38.6688 H   0  0  0  0  0  0  0  0  0  0  0  0
  -12.3847   16.8911  -40.3204 H   0  0  0  0  0  0  0  0  0  0  0  0
  -12.7818   13.3444  -38.3134 H   0  0  0  0  0  0  0  0  0  0  0  0
  -11.3655   14.8240  -39.6893 H   0  0  0  0  0  0  0  0  0  0  0  0
  -10.9705   16.5363  -37.2954 H   0  0  0  0  0  0  0  0  0  0  0  0
  -14.1229   15.4407  -40.6127 H   0  0  0  0  0  0  0  0  0  0  0  0
  1  4  1  1  0  0  0
  1  6  1  0  0  0  0
  2  4  1  0  0  0  0
  2  8  1  0  0  0  0
  3  5  1  1  0  0  0
  3  8  1  0  0  0  0
  4  5  1  0  0  0  0
  5  6  1  0  0  0  0
  6  7  1  6  0  0  0
  7  9  1  0  0  0  0
  7 10  1  0  0  0  0
  7 11  1  0  0  0  0
  1 12  1  0  0  0  0
  1 13  1  0  0  0  0
  2 14  1  0  0  0  0
  2 15  1  0  0  0  0
  3 16  1  0  0  0  0
  3 17  1  0  0  0  0
  4 18  1  0  0  0  0
  5 19  1  0  0  0  0
  6 20  1  0  0  0  0
  8 21  1  0  0  0  0
M  END
> <id>
EN300-27747394

> <smiles>
Cl.FC(F)(F)[C@@H]1C[C@H]2CNC[C@@H]12 |&1:5,7,11,r|

> <IUPAC Name>
rac-(1R,5R,6R)-6-(trifluoromethyl)-3-azabicyclo[3.2.0]heptane hydrochloride

> <CAS>
2624109-48-2

> <Purity>
95

> <URL>
https://www.enaminestore.com/catalog/EN300-27747394

> <ROCS_ShapeQuery>
_x1247relevant_x1083L0AP1_x1305L0BP1_

> <ROCS_TanimotoCombo>
1.019 

> <ROCS_ShapeTanimoto>
0.490 

> <ROCS_ColorTanimoto>
0.529 

> <ROCS_RefTversky>
0.408 

> <ROCS_RefColorTversky>
0.618 

> <ROCS_RefTverskyCombo>
1.027 

> <ROCS_FitTversky>
1.690 

> <ROCS_FitColorTversky>
0.785 

> <ROCS_FitTverskyCombo>
2.475 

> <ROCS_ColorScore>
-5.908

> <ROCS_Overlap>
1003.127

> <ROCS_Rank>
383                 

$$$$
untitled-dbase-50315_30
  -OEChem-06232314403D

 35 36  0     1  0  0  0  0  0999 V2000
  -10.3422   14.1967  -37.4730 C   0  0  0  0  0  0  0  0  0  0  0  0
  -13.3483   15.5211  -37.0822 C   0  0  0  0  0  0  0  0  0  0  0  0
  -12.1856   16.4653  -39.2281 C   0  0  0  0  0  0  0  0  0  0  0  0
  -13.2464   14.1146  -39.2867 C   0  0  0  0  0  0  0  0  0  0  0  0
  -12.0699   16.1081  -37.7461 C   0  0  2  0  0  0  0  0  0  0  0  0
  -12.9294   14.2025  -37.7937 C   0  0  1  0  0  0  0  0  0  0  0  0
  -13.1449   15.5010  -39.9639 C   0  0  0  0  0  0  0  0  0  0  0  0
   -7.8957   13.8684  -36.0392 C   0  0  0  0  0  0  0  0  0  0  0  0
   -7.6024   16.3449  -36.3399 C   0  0  0  0  0  0  0  0  0  0  0  0
   -9.5588   15.4669  -35.0323 C   0  0  0  0  0  0  0  0  0  0  0  0
   -8.6126   15.2077  -36.2038 C   0  0  0  0  0  0  0  0  0  0  0  0
  -11.5838   14.7389  -37.6316 N   0  0  0  0  0  0  0  0  0  0  0  0
  -14.4797   16.1056  -40.0599 N   0  0  0  0  0  0  0  0  0  0  0  0
  -10.1198   12.9918  -37.3944 O   0  0  0  0  0  0  0  0  0  0  0  0
   -9.3818   15.1674  -37.4107 O   0  0  0  0  0  0  0  0  0  0  0  0
  -13.3095   15.4764  -35.9888 H   0  0  0  0  0  0  0  0  0  0  0  0
  -14.3013   15.9586  -37.3834 H   0  0  0  0  0  0  0  0  0  0  0  0
  -12.5248   17.5093  -39.3217 H   0  0  0  0  0  0  0  0  0  0  0  0
  -11.1949   16.4230  -39.7074 H   0  0  0  0  0  0  0  0  0  0  0  0
  -12.5511   13.4194  -39.7827 H   0  0  0  0  0  0  0  0  0  0  0  0
  -14.2523   13.6842  -39.4171 H   0  0  0  0  0  0  0  0  0  0  0  0
  -11.5261   16.8367  -37.1252 H   0  0  0  0  0  0  0  0  0  0  0  0
  -13.1315   13.2893  -37.2131 H   0  0  0  0  0  0  0  0  0  0  0  0
  -12.7808   15.3618  -40.9723 H   0  0  0  0  0  0  0  0  0  0  0  0
   -8.6174   13.0496  -35.9412 H   0  0  0  0  0  0  0  0  0  0  0  0
   -7.2404   13.6545  -36.8898 H   0  0  0  0  0  0  0  0  0  0  0  0
   -7.2909   13.8584  -35.1252 H   0  0  0  0  0  0  0  0  0  0  0  0
   -8.1124   17.3078  -36.4582 H   0  0  0  0  0  0  0  0  0  0  0  0
   -6.9830   16.2117  -37.2342 H   0  0  0  0  0  0  0  0  0  0  0  0
   -6.9435   16.4065  -35.4678 H   0  0  0  0  0  0  0  0  0  0  0  0
  -10.0732   16.4275  -35.1501 H   0  0  0  0  0  0  0  0  0  0  0  0
  -10.3140   14.6793  -34.9419 H   0  0  0  0  0  0  0  0  0  0  0  0
   -9.0038   15.5270  -34.0891 H   0  0  0  0  0  0  0  0  0  0  0  0
  -14.3947   16.9745  -40.5325 H   0  0  0  0  0  0  0  0  0  0  0  0
  -15.0656   15.4862  -40.5684 H   0  0  0  0  0  0  0  0  0  0  0  0
  1 12  1  0  0  0  0
  1 14  2  0  0  0  0
  1 15  1  0  0  0  0
  2  5  1  1  0  0  0
  2  6  1  1  0  0  0
  3  5  1  0  0  0  0
  3  7  1  0  0  0  0
  4  6  1  0  0  0  0
  4  7  1  0  0  0  0
  5 12  1  0  0  0  0
  6 12  1  0  0  0  0
  7 13  1  1  0  0  0
  8 11  1  0  0  0  0
  9 11  1  0  0  0  0
 10 11  1  0  0  0  0
 11 15  1  0  0  0  0
  2 16  1  0  0  0  0
  2 17  1  0  0  0  0
  3 18  1  0  0  0  0
  3 19  1  0  0  0  0
  4 20  1  0  0  0  0
  4 21  1  0  0  0  0
  5 22  1  0  0  0  0
  6 23  1  0  0  0  0
  7 24  1  0  0  0  0
  8 25  1  0  0  0  0
  8 26  1  0  0  0  0
  8 27  1  0  0  0  0
  9 28  1  0  0  0  0
  9 29  1  0  0  0  0
  9 30  1  0  0  0  0
 10 31  1  0  0  0  0
 10 32  1  0  0  0  0
 10 33  1  0  0  0  0
 13 34  1  0  0  0  0
 13 35  1  0  0  0  0
M  END
> <id>
EN300-37375575

> <smiles>
CC(C)(C)OC(=O)N1[C@H]2C[C@@H]1C[C@H](N)C2

> <IUPAC Name>
tert-butyl (1R,3s,5S)-3-amino-6-azabicyclo[3.1.1]heptane-6-carboxylate

> <CAS>
2763740-57-2

> <Purity>
95

> <URL>
https://www.enaminestore.com/catalog/EN300-37375575

> <ROCS_ShapeQuery>
_x1247relevant_x1083L0AP1_x1305L0BP1_

> <ROCS_TanimotoCombo>
1.019 

> <ROCS_ShapeTanimoto>
0.513 

> <ROCS_ColorTanimoto>
0.505 

> <ROCS_RefTversky>
0.443 

> <ROCS_RefColorTversky>
0.687 

> <ROCS_RefTverskyCombo>
1.130 

> <ROCS_FitTversky>
1.446 

> <ROCS_FitColorTversky>
0.656 

> <ROCS_FitTverskyCombo>
2.102 

> <ROCS_ColorScore>
-6.659

> <ROCS_Overlap>
1092.798

> <ROCS_Rank>
384                 

$$$$
untitled-dbase-21215_0
  -OEChem-06232314403D

 25 26  0     1  0  0  0  0  0999 V2000
  -11.7782   16.4301  -38.9967 C   0  0  0  0  0  0  0  0  0  0  0  0
  -12.7254   15.8077  -40.0393 C   0  0  0  0  0  0  0  0  0  0  0  0
  -13.6238   15.6405  -37.4126 C   0  0  0  0  0  0  0  0  0  0  0  0
  -12.0952   15.9047  -37.5886 C   0  0  1  0  0  0  0  0  0  0  0  0
  -13.3228   14.2736  -38.1133 C   0  0  1  0  0  0  0  0  0  0  0  0
  -13.2531   14.4209  -39.6375 C   0  0  1  0  0  0  0  0  0  0  0  0
  -11.9065   14.3447  -37.4020 C   0  0  0  0  0  0  0  0  0  0  0  0
  -11.8922   13.8630  -35.9377 C   0  0  0  0  0  0  0  0  0  0  0  0
  -10.7190   13.6895  -38.1160 C   0  0  0  0  0  0  0  0  0  0  0  0
  -15.0479   14.1662  -40.3806 Br  0  0  0  0  0  0  0  0  0  0  0  0
  -10.7330   16.2273  -39.2535 H   0  0  0  0  0  0  0  0  0  0  0  0
  -11.8915   17.5206  -39.0208 H   0  0  0  0  0  0  0  0  0  0  0  0
  -13.5613   16.5081  -40.1726 H   0  0  0  0  0  0  0  0  0  0  0  0
  -12.2341   15.7628  -41.0187 H   0  0  0  0  0  0  0  0  0  0  0  0
  -13.9727   15.5698  -36.3770 H   0  0  0  0  0  0  0  0  0  0  0  0
  -14.3068   16.3273  -37.9221 H   0  0  0  0  0  0  0  0  0  0  0  0
  -11.6337   16.5184  -36.8079 H   0  0  0  0  0  0  0  0  0  0  0  0
  -13.9357   13.4294  -37.7779 H   0  0  0  0  0  0  0  0  0  0  0  0
  -12.6599   13.6195  -40.0875 H   0  0  0  0  0  0  0  0  0  0  0  0
  -11.7587   12.7874  -35.9192 H   0  0  0  0  0  0  0  0  0  0  0  0
  -12.8340   14.1247  -35.4689 H   0  0  0  0  0  0  0  0  0  0  0  0
  -11.0743   14.3443  -35.4138 H   0  0  0  0  0  0  0  0  0  0  0  0
  -10.7096   12.6237  -37.9030 H   0  0  0  0  0  0  0  0  0  0  0  0
   -9.7922   14.1359  -37.7648 H   0  0  0  0  0  0  0  0  0  0  0  0
  -10.8099   13.8426  -39.1883 H   0  0  0  0  0  0  0  0  0  0  0  0
  1  2  1  0  0  0  0
  1  4  1  0  0  0  0
  2  6  1  0  0  0  0
  3  4  1  0  0  0  0
  3  5  1  0  0  0  0
  4  7  1  0  0  0  0
  5  6  1  0  0  0  0
  5  7  1  0  0  0  0
  6 10  1  0  0  0  0
  7  8  1  0  0  0  0
  7  9  1  0  0  0  0
  1 11  1  0  0  0  0
  1 12  1  0  0  0  0
  2 13  1  0  0  0  0
  2 14  1  0  0  0  0
  3 15  1  0  0  0  0
  3 16  1  0  0  0  0
  4 17  1  0  0  0  0
  5 18  1  0  0  0  0
  6 19  1  0  0  0  0
  8 20  1  0  0  0  0
  8 21  1  0  0  0  0
  8 22  1  0  0  0  0
  9 23  1  0  0  0  0
  9 24  1  0  0  0  0
  9 25  1  0  0  0  0
M  END
> <id>
EN300-2006981

> <smiles>
CC1(C)C2CC1C(Br)CC2

> <MDLNUMBER>
MFCD24478047

> <IUPAC Name>
2-bromo-6,6-dimethylbicyclo[3.1.1]heptane

> <CAS>
1824444-04-3

> <URL>
https://www.enaminestore.com/catalog/EN300-2006981

> <ROCS_ShapeQuery>
_x1247relevant_x1083L0AP1_x1305L0BP1_

> <ROCS_TanimotoCombo>
1.018 

> <ROCS_ShapeTanimoto>
0.425 

> <ROCS_ColorTanimoto>
0.594 

> <ROCS_RefTversky>
0.361 

> <ROCS_RefColorTversky>
0.690 

> <ROCS_RefTverskyCombo>
1.050 

> <ROCS_FitTversky>
1.714 

> <ROCS_FitColorTversky>
0.810 

> <ROCS_FitTverskyCombo>
2.524 

> <ROCS_ColorScore>
-6.609

> <ROCS_Overlap>
885.617

> <ROCS_Rank>
385                 

$$$$
untitled-dbase-50773_0
  -OEChem-06232314403D

 20 21  0     1  0  0  0  0  0999 V2000
  -11.2179   14.4507  -37.8458 C   0  0  0  0  0  0  0  0  0  0  0  0
  -11.0345   15.6899  -38.7140 C   0  0  0  0  0  0  0  0  0  0  0  0
  -13.7068   13.9646  -38.1794 C   0  0  0  0  0  0  0  0  0  0  0  0
  -13.4009   16.0336  -39.6208 C   0  0  0  0  0  0  0  0  0  0  0  0
  -12.6282   14.5939  -37.2850 C   0  0  2  0  0  0  0  0  0  0  0  0
  -12.3535   16.4417  -38.5741 C   0  0  1  0  0  0  0  0  0  0  0  0
  -13.6422   14.5216  -39.6041 C   0  0  0  0  0  0  0  0  0  0  0  0
  -12.8459   16.0165  -37.2904 O   0  0  0  0  0  0  0  0  0  0  0  0
  -15.2870   14.0965  -40.5638 Br  0  0  0  0  0  0  0  0  0  0  0  0
  -11.0648   13.5151  -38.3919 H   0  0  0  0  0  0  0  0  0  0  0  0
  -10.4872   14.4754  -37.0287 H   0  0  0  0  0  0  0  0  0  0  0  0
  -10.2152   16.2940  -38.3067 H   0  0  0  0  0  0  0  0  0  0  0  0
  -10.7809   15.4552  -39.7525 H   0  0  0  0  0  0  0  0  0  0  0  0
  -13.6037   12.8732  -38.1938 H   0  0  0  0  0  0  0  0  0  0  0  0
  -14.6872   14.1907  -37.7395 H   0  0  0  0  0  0  0  0  0  0  0  0
  -14.3365   16.5591  -39.3886 H   0  0  0  0  0  0  0  0  0  0  0  0
  -13.0884   16.3563  -40.6209 H   0  0  0  0  0  0  0  0  0  0  0  0
  -12.7079   14.2141  -36.2620 H   0  0  0  0  0  0  0  0  0  0  0  0
  -12.2140   17.5270  -38.5730 H   0  0  0  0  0  0  0  0  0  0  0  0
  -12.8529   14.0120  -40.1680 H   0  0  0  0  0  0  0  0  0  0  0  0
  1  2  1  0  0  0  0
  1  5  1  0  0  0  0
  2  6  1  0  0  0  0
  3  5  1  0  0  0  0
  3  7  1  0  0  0  0
  4  6  1  0  0  0  0
  4  7  1  0  0  0  0
  5  8  1  0  0  0  0
  6  8  1  0  0  0  0
  7  9  1  0  0  0  0
  1 10  1  0  0  0  0
  1 11  1  0  0  0  0
  2 12  1  0  0  0  0
  2 13  1  0  0  0  0
  3 14  1  0  0  0  0
  3 15  1  0  0  0  0
  4 16  1  0  0  0  0
  4 17  1  0  0  0  0
  5 18  1  0  0  0  0
  6 19  1  0  0  0  0
  7 20  1  0  0  0  0
M  END
> <id>
EN300-7160535

> <smiles>
BrC1CC2CCC(C1)O2

> <MDLNUMBER>
MFCD31654832

> <IUPAC Name>
3-bromo-8-oxabicyclo[3.2.1]octane

> <CAS>
2322698-10-0

> <URL>
https://www.enaminestore.com/catalog/EN300-7160535

> <ROCS_ShapeQuery>
_x1247relevant_x1083L0AP1_x1305L0BP1_

> <ROCS_TanimotoCombo>
1.018 

> <ROCS_ShapeTanimoto>
0.416 

> <ROCS_ColorTanimoto>
0.603 

> <ROCS_RefTversky>
0.352 

> <ROCS_RefColorTversky>
0.688 

> <ROCS_RefTverskyCombo>
1.040 

> <ROCS_FitTversky>
1.768 

> <ROCS_FitColorTversky>
0.830 

> <ROCS_FitTverskyCombo>
2.598 

> <ROCS_ColorScore>
-6.584

> <ROCS_Overlap>
863.304

> <ROCS_Rank>
386                 

$$$$
untitled-dbase-12864_6
  -OEChem-06232314403D

 29 31  0     1  0  0  0  0  0999 V2000
  -11.5356   15.7580  -38.7431 C   0  0  0  0  0  0  0  0  0  0  0  0
   -9.2336   13.7761  -37.6919 C   0  0  0  0  0  0  0  0  0  0  0  0
   -8.7998   14.9662  -36.8378 C   0  0  0  0  0  0  0  0  0  0  0  0
  -10.7455   13.5705  -37.7736 C   0  0  0  0  0  0  0  0  0  0  0  0
  -13.7892   14.9713  -39.7330 C   0  0  0  0  0  0  0  0  0  0  0  0
  -11.1872   15.5855  -36.2369 C   0  0  0  0  0  0  0  0  0  0  0  0
  -12.9099   16.0537  -39.1743 C   0  0  1  0  0  0  0  0  0  0  0  0
   -9.7703   15.3010  -35.7050 C   0  0  1  0  0  0  0  0  0  0  0  0
  -13.7943   15.2588  -38.2606 C   0  0  2  0  0  0  0  0  0  0  0  0
  -11.5646   14.8325  -37.5229 C   0  0  1  0  0  0  0  0  0  0  0  0
   -9.7773   14.2143  -34.6252 C   0  0  0  0  0  0  0  0  0  0  0  0
  -10.5548   16.2198  -39.3013 O   0  0  0  0  0  0  0  0  0  0  0  0
  -12.9582   14.4343  -37.4159 O   0  0  0  0  0  0  0  0  0  0  0  0
   -8.8182   13.8904  -38.7125 H   0  0  0  0  0  0  0  0  0  0  0  0
   -8.7643   12.8543  -37.2950 H   0  0  0  0  0  0  0  0  0  0  0  0
   -7.7938   14.7608  -36.4223 H   0  0  0  0  0  0  0  0  0  0  0  0
   -8.6724   15.8476  -37.4946 H   0  0  0  0  0  0  0  0  0  0  0  0
  -10.9987   13.1380  -38.7557 H   0  0  0  0  0  0  0  0  0  0  0  0
  -11.0371   12.7985  -37.0414 H   0  0  0  0  0  0  0  0  0  0  0  0
  -14.6553   15.2753  -40.3085 H   0  0  0  0  0  0  0  0  0  0  0  0
  -13.3251   14.0564  -40.0805 H   0  0  0  0  0  0  0  0  0  0  0  0
  -11.9285   15.3386  -35.4530 H   0  0  0  0  0  0  0  0  0  0  0  0
  -11.3073   16.6739  -36.3938 H   0  0  0  0  0  0  0  0  0  0  0  0
  -13.1722   17.0864  -39.3630 H   0  0  0  0  0  0  0  0  0  0  0  0
   -9.4017   16.2344  -35.2121 H   0  0  0  0  0  0  0  0  0  0  0  0
  -14.6590   15.7404  -37.8259 H   0  0  0  0  0  0  0  0  0  0  0  0
  -10.1297   13.2759  -35.0495 H   0  0  0  0  0  0  0  0  0  0  0  0
  -10.4372   14.5085  -33.8112 H   0  0  0  0  0  0  0  0  0  0  0  0
   -8.7702   14.0750  -34.2366 H   0  0  0  0  0  0  0  0  0  0  0  0
  1  7  1  0  0  0  0
  1 10  1  0  0  0  0
  1 12  2  0  0  0  0
  2  3  1  0  0  0  0
  2  4  1  0  0  0  0
  3  8  1  0  0  0  0
  4 10  1  0  0  0  0
  5  7  1  0  0  0  0
  5  9  1  0  0  0  0
  6  8  1  0  0  0  0
  6 10  1  0  0  0  0
  7  9  1  0  0  0  0
  8 11  1  0  0  0  0
  9 13  1  0  0  0  0
 10 13  1  0  0  0  0
  2 14  1  0  0  0  0
  2 15  1  0  0  0  0
  3 16  1  0  0  0  0
  3 17  1  0  0  0  0
  4 18  1  0  0  0  0
  4 19  1  0  0  0  0
  5 20  1  0  0  0  0
  5 21  1  0  0  0  0
  6 22  1  0  0  0  0
  6 23  1  0  0  0  0
  7 24  1  0  0  0  0
  8 25  1  0  0  0  0
  9 26  1  0  0  0  0
 11 27  1  0  0  0  0
 11 28  1  0  0  0  0
 11 29  1  0  0  0  0
M  END
> <id>
EN300-737321

> <smiles>
CC1CCCC2(C1)OC3CC3C2=O

> <IUPAC Name>
5'-methyl-2-oxaspiro[bicyclo[3.1.0]hexane-3,1'-cyclohexane]-4-one

> <CAS>
2138423-65-9

> <URL>
https://www.enaminestore.com/catalog/EN300-737321

> <ROCS_ShapeQuery>
_x1247relevant_x1083L0AP1_x1305L0BP1_

> <ROCS_TanimotoCombo>
1.018 

> <ROCS_ShapeTanimoto>
0.519 

> <ROCS_ColorTanimoto>
0.499 

> <ROCS_RefTversky>
0.435 

> <ROCS_RefColorTversky>
0.576 

> <ROCS_RefTverskyCombo>
1.011 

> <ROCS_FitTversky>
1.590 

> <ROCS_FitColorTversky>
0.790 

> <ROCS_FitTverskyCombo>
2.379 

> <ROCS_ColorScore>
-5.480

> <ROCS_Overlap>
1072.024

> <ROCS_Rank>
387                 

$$$$
untitled-dbase-50979_20
  -OEChem-06232314403D

 31 32  0     0  0  0  0  0  0999 V2000
   -9.9074   15.3328  -37.9202 C   0  0  0  0  0  0  0  0  0  0  0  0
  -13.4981   15.8264  -37.4872 C   0  0  0  0  0  0  0  0  0  0  0  0
  -13.2647   14.0808  -38.6121 C   0  0  0  0  0  0  0  0  0  0  0  0
  -11.8698   15.9993  -39.3660 C   0  0  0  0  0  0  0  0  0  0  0  0
  -12.3784   14.7191  -37.4780 C   0  0  0  0  0  0  0  0  0  0  0  0
  -13.3074   15.5920  -39.0249 C   0  0  0  0  0  0  0  0  0  0  0  0
   -7.4266   13.9972  -37.4508 C   0  0  0  0  0  0  0  0  0  0  0  0
   -8.6041   12.8771  -35.5355 C   0  0  0  0  0  0  0  0  0  0  0  0
   -9.4127   12.5135  -37.8855 C   0  0  0  0  0  0  0  0  0  0  0  0
   -8.7715   13.5063  -36.9169 C   0  0  0  0  0  0  0  0  0  0  0  0
  -11.2518   15.3416  -38.2128 N   0  0  0  0  0  0  0  0  0  0  0  0
   -9.0493   15.8854  -38.6036 O   0  0  0  0  0  0  0  0  0  0  0  0
  -14.3032   16.0414  -39.9403 O   0  0  0  0  0  0  0  0  0  0  0  0
   -9.6440   14.6329  -36.7750 O   0  0  0  0  0  0  0  0  0  0  0  0
  -14.4695   15.5501  -37.0624 H   0  0  0  0  0  0  0  0  0  0  0  0
  -13.2045   16.8075  -37.1017 H   0  0  0  0  0  0  0  0  0  0  0  0
  -12.7496   13.4005  -39.2972 H   0  0  0  0  0  0  0  0  0  0  0  0
  -14.2126   13.6271  -38.3020 H   0  0  0  0  0  0  0  0  0  0  0  0
  -11.4906   15.5641  -40.2943 H   0  0  0  0  0  0  0  0  0  0  0  0
  -11.6900   17.0767  -39.3248 H   0  0  0  0  0  0  0  0  0  0  0  0
  -12.1697   14.1606  -36.5684 H   0  0  0  0  0  0  0  0  0  0  0  0
   -7.5425   14.4495  -38.4422 H   0  0  0  0  0  0  0  0  0  0  0  0
   -6.9727   14.7360  -36.7824 H   0  0  0  0  0  0  0  0  0  0  0  0
   -6.7259   13.1631  -37.5716 H   0  0  0  0  0  0  0  0  0  0  0  0
   -9.5667   12.5235  -35.1487 H   0  0  0  0  0  0  0  0  0  0  0  0
   -8.2330   13.6135  -34.8136 H   0  0  0  0  0  0  0  0  0  0  0  0
   -7.9081   12.0324  -35.5580 H   0  0  0  0  0  0  0  0  0  0  0  0
  -10.3774   12.1613  -37.5028 H   0  0  0  0  0  0  0  0  0  0  0  0
   -9.5744   12.9598  -38.8721 H   0  0  0  0  0  0  0  0  0  0  0  0
   -8.7838   11.6238  -38.0045 H   0  0  0  0  0  0  0  0  0  0  0  0
  -14.3715   17.0019  -39.8247 H   0  0  0  0  0  0  0  0  0  0  0  0
  1 11  1  0  0  0  0
  1 12  2  0  0  0  0
  1 14  1  0  0  0  0
  2  5  1  6  0  0  0
  2  6  1  0  0  0  0
  3  5  1  0  0  0  0
  3  6  1  0  0  0  0
  4  6  1  0  0  0  0
  4 11  1  0  0  0  0
  5 11  1  0  0  0  0
  6 13  1  1  0  0  0
  7 10  1  0  0  0  0
  8 10  1  0  0  0  0
  9 10  1  0  0  0  0
 10 14  1  0  0  0  0
  2 15  1  0  0  0  0
  2 16  1  0  0  0  0
  3 17  1  0  0  0  0
  3 18  1  0  0  0  0
  4 19  1  0  0  0  0
  4 20  1  0  0  0  0
  5 21  1  0  0  0  0
  7 22  1  0  0  0  0
  7 23  1  0  0  0  0
  7 24  1  0  0  0  0
  8 25  1  0  0  0  0
  8 26  1  0  0  0  0
  8 27  1  0  0  0  0
  9 28  1  0  0  0  0
  9 29  1  0  0  0  0
  9 30  1  0  0  0  0
 13 31  1  0  0  0  0
M  END
> <id>
EN300-37375337

> <smiles>
CC(C)(C)OC(=O)N1C[C@]2(O)C[C@H]1C2

> <IUPAC Name>
tert-butyl (4r)-4-hydroxy-2-azabicyclo[2.1.1]hexane-2-carboxylate

> <CAS>
2408971-50-4

> <URL>
https://www.enaminestore.com/catalog/EN300-37375337

> <ROCS_ShapeQuery>
_x1247relevant_x1083L0AP1_x1305L0BP1_

> <ROCS_TanimotoCombo>
1.018 

> <ROCS_ShapeTanimoto>
0.492 

> <ROCS_ColorTanimoto>
0.526 

> <ROCS_RefTversky>
0.426 

> <ROCS_RefColorTversky>
0.725 

> <ROCS_RefTverskyCombo>
1.151 

> <ROCS_FitTversky>
1.461 

> <ROCS_FitColorTversky>
0.657 

> <ROCS_FitTverskyCombo>
2.118 

> <ROCS_ColorScore>
-7.046

> <ROCS_Overlap>
1050.212

> <ROCS_Rank>
388                 

$$$$
untitled-dbase-22891_20
  -OEChem-06232314403D

 31 32  0     0  0  0  0  0  0999 V2000
   -9.9068   15.3314  -37.9213 C   0  0  0  0  0  0  0  0  0  0  0  0
  -13.2652   14.0810  -38.6101 C   0  0  0  0  0  0  0  0  0  0  0  0
  -13.4970   15.8283  -37.4875 C   0  0  0  0  0  0  0  0  0  0  0  0
  -11.8694   15.9979  -39.3671 C   0  0  0  0  0  0  0  0  0  0  0  0
  -12.3780   14.7203  -37.4773 C   0  0  0  0  0  0  0  0  0  0  0  0
  -13.3071   15.5917  -39.0250 C   0  0  0  0  0  0  0  0  0  0  0  0
   -7.4270   13.9938  -37.4508 C   0  0  0  0  0  0  0  0  0  0  0  0
   -8.6054   12.8773  -35.5340 C   0  0  0  0  0  0  0  0  0  0  0  0
   -9.4146   12.5116  -37.8834 C   0  0  0  0  0  0  0  0  0  0  0  0
   -8.7724   13.5050  -36.9162 C   0  0  0  0  0  0  0  0  0  0  0  0
  -11.2513   15.3411  -38.2134 N   0  0  0  0  0  0  0  0  0  0  0  0
   -9.0483   15.8825  -38.6055 O   0  0  0  0  0  0  0  0  0  0  0  0
  -14.3030   16.0404  -39.9403 O   0  0  0  0  0  0  0  0  0  0  0  0
   -9.6438   14.6326  -36.7755 O   0  0  0  0  0  0  0  0  0  0  0  0
  -12.7508   13.3993  -39.2943 H   0  0  0  0  0  0  0  0  0  0  0  0
  -14.2131   13.6284  -38.2985 H   0  0  0  0  0  0  0  0  0  0  0  0
  -14.4685   15.5535  -37.0623 H   0  0  0  0  0  0  0  0  0  0  0  0
  -13.2027   16.8099  -37.1037 H   0  0  0  0  0  0  0  0  0  0  0  0
  -11.4912   15.5614  -40.2952 H   0  0  0  0  0  0  0  0  0  0  0  0
  -11.6885   17.0753  -39.3270 H   0  0  0  0  0  0  0  0  0  0  0  0
  -12.1693   14.1629  -36.5670 H   0  0  0  0  0  0  0  0  0  0  0  0
   -7.5426   14.4450  -38.4427 H   0  0  0  0  0  0  0  0  0  0  0  0
   -6.9723   14.7331  -36.7833 H   0  0  0  0  0  0  0  0  0  0  0  0
   -6.7272   13.1589  -37.5706 H   0  0  0  0  0  0  0  0  0  0  0  0
   -9.5683   12.5252  -35.1465 H   0  0  0  0  0  0  0  0  0  0  0  0
   -8.2335   13.6143  -34.8130 H   0  0  0  0  0  0  0  0  0  0  0  0
   -7.9102   12.0319  -35.5555 H   0  0  0  0  0  0  0  0  0  0  0  0
  -10.3796   12.1608  -37.5001 H   0  0  0  0  0  0  0  0  0  0  0  0
   -9.5760   12.9567  -38.8705 H   0  0  0  0  0  0  0  0  0  0  0  0
   -8.7866   11.6211  -38.0014 H   0  0  0  0  0  0  0  0  0  0  0  0
  -14.1700   15.5402  -40.7604 H   0  0  0  0  0  0  0  0  0  0  0  0
  1 11  1  0  0  0  0
  1 12  2  0  0  0  0
  1 14  1  0  0  0  0
  2  5  1  0  0  0  0
  2  6  1  0  0  0  0
  3  5  1  0  0  0  0
  3  6  1  0  0  0  0
  4  6  1  0  0  0  0
  4 11  1  0  0  0  0
  5 11  1  0  0  0  0
  6 13  1  0  0  0  0
  7 10  1  0  0  0  0
  8 10  1  0  0  0  0
  9 10  1  0  0  0  0
 10 14  1  0  0  0  0
  2 15  1  0  0  0  0
  2 16  1  0  0  0  0
  3 17  1  0  0  0  0
  3 18  1  0  0  0  0
  4 19  1  0  0  0  0
  4 20  1  0  0  0  0
  5 21  1  0  0  0  0
  7 22  1  0  0  0  0
  7 23  1  0  0  0  0
  7 24  1  0  0  0  0
  8 25  1  0  0  0  0
  8 26  1  0  0  0  0
  8 27  1  0  0  0  0
  9 28  1  0  0  0  0
  9 29  1  0  0  0  0
  9 30  1  0  0  0  0
 13 31  1  0  0  0  0
M  END
> <id>
EN300-7455739

> <smiles>
CC(C)(C)OC(=O)N1CC2(O)CC1C2

> <MDLNUMBER>
MFCD32268559

> <IUPAC Name>
tert-butyl 4-hydroxy-2-azabicyclo[2.1.1]hexane-2-carboxylate

> <CAS>
2408971-50-4

> <Purity>
95

> <URL>
https://www.enaminestore.com/catalog/EN300-7455739

> <ROCS_ShapeQuery>
_x1247relevant_x1083L0AP1_x1305L0BP1_

> <ROCS_TanimotoCombo>
1.018 

> <ROCS_ShapeTanimoto>
0.492 

> <ROCS_ColorTanimoto>
0.526 

> <ROCS_RefTversky>
0.426 

> <ROCS_RefColorTversky>
0.725 

> <ROCS_RefTverskyCombo>
1.151 

> <ROCS_FitTversky>
1.460 

> <ROCS_FitColorTversky>
0.657 

> <ROCS_FitTverskyCombo>
2.118 

> <ROCS_ColorScore>
-7.046

> <ROCS_Overlap>
1050.185

> <ROCS_Rank>
389                 

$$$$
untitled-dbase-32298_0
  -OEChem-06232314403D

 21 23  0     1  0  0  0  0  0999 V2000
  -14.5198   14.6560  -39.6245 C   0  0  0  0  0  0  0  0  0  0  0  0
  -11.1549   14.3704  -37.6595 C   0  0  0  0  0  0  0  0  0  0  0  0
  -10.9550   15.8843  -37.8896 C   0  0  0  0  0  0  0  0  0  0  0  0
  -13.1709   15.5098  -37.1290 C   0  0  0  0  0  0  0  0  0  0  0  0
  -13.0496   14.3680  -39.2531 C   0  0  2  0  0  0  0  0  0  0  0  0
  -12.6843   14.2072  -37.7665 C   0  0  1  0  0  0  0  0  0  0  0  0
  -12.3958   16.3878  -38.1144 C   0  0  2  0  0  0  0  0  0  0  0  0
  -12.8210   15.8774  -39.4997 C   0  0  2  0  0  0  0  0  0  0  0  0
  -14.2439   15.9812  -39.7918 N   0  0  0  0  0  0  0  0  0  0  0  0
  -15.5418   14.0174  -39.7227 O   0  0  0  0  0  0  0  0  0  0  0  0
  -10.6139   13.7736  -38.4008 H   0  0  0  0  0  0  0  0  0  0  0  0
  -10.7991   14.0925  -36.6612 H   0  0  0  0  0  0  0  0  0  0  0  0
  -10.5127   16.3449  -36.9990 H   0  0  0  0  0  0  0  0  0  0  0  0
  -10.2994   16.0808  -38.7439 H   0  0  0  0  0  0  0  0  0  0  0  0
  -14.2552   15.6451  -37.1761 H   0  0  0  0  0  0  0  0  0  0  0  0
  -12.8425   15.6318  -36.0910 H   0  0  0  0  0  0  0  0  0  0  0  0
  -12.5520   13.6840  -39.9469 H   0  0  0  0  0  0  0  0  0  0  0  0
  -13.0686   13.2900  -37.3161 H   0  0  0  0  0  0  0  0  0  0  0  0
  -12.5147   17.4651  -37.9823 H   0  0  0  0  0  0  0  0  0  0  0  0
  -12.1912   16.1489  -40.3514 H   0  0  0  0  0  0  0  0  0  0  0  0
  -14.8494   16.7467  -40.0534 H   0  0  0  0  0  0  0  0  0  0  0  0
  1  5  1  0  0  0  0
  1  9  1  0  0  0  0
  1 10  2  0  0  0  0
  2  3  1  0  0  0  0
  2  6  1  0  0  0  0
  3  7  1  0  0  0  0
  4  6  1  0  0  0  0
  4  7  1  0  0  0  0
  5  6  1  0  0  0  0
  5  8  1  0  0  0  0
  7  8  1  0  0  0  0
  8  9  1  0  0  0  0
  2 11  1  0  0  0  0
  2 12  1  0  0  0  0
  3 13  1  0  0  0  0
  3 14  1  0  0  0  0
  4 15  1  0  0  0  0
  4 16  1  0  0  0  0
  5 17  1  0  0  0  0
  6 18  1  0  0  0  0
  7 19  1  0  0  0  0
  8 20  1  0  0  0  0
  9 21  1  0  0  0  0
M  END
> <id>
EN300-79903

> <smiles>
O=C1NC2C1C3CCC2C3

> <IUPAC Name>
3-azatricyclo[4.2.1.0,2,5]nonan-4-one

> <CAS>
7486-95-5

> <Purity>
95

> <URL>
https://www.enaminestore.com/catalog/EN300-79903

> <ROCS_ShapeQuery>
_x1247relevant_x1083L0AP1_x1305L0BP1_

> <ROCS_TanimotoCombo>
1.018 

> <ROCS_ShapeTanimoto>
0.452 

> <ROCS_ColorTanimoto>
0.566 

> <ROCS_RefTversky>
0.383 

> <ROCS_RefColorTversky>
0.854 

> <ROCS_RefTverskyCombo>
1.237 

> <ROCS_FitTversky>
1.657 

> <ROCS_FitColorTversky>
0.627 

> <ROCS_FitTverskyCombo>
2.283 

> <ROCS_ColorScore>
-8.424

> <ROCS_Overlap>
941.974

> <ROCS_Rank>
390                 

$$$$
untitled-dbase-9144_93
  -OEChem-06232314403D

 34 35  0     1  0  0  0  0  0999 V2000
  -10.2950   13.7709  -37.6196 C   0  0  0  0  0  0  0  0  0  0  0  0
  -13.4642   15.4748  -37.3282 C   0  0  0  0  0  0  0  0  0  0  0  0
  -13.2188   14.1792  -39.3030 C   0  0  0  0  0  0  0  0  0  0  0  0
  -11.2978   16.0563  -38.0907 C   0  0  0  0  0  0  0  0  0  0  0  0
  -12.7767   16.3704  -38.3714 C   0  0  1  0  0  0  0  0  0  0  0  0
  -12.7696   14.2098  -37.8303 C   0  0  1  0  0  0  0  0  0  0  0  0
  -13.1898   15.6755  -39.6889 C   0  0  2  0  0  0  0  0  0  0  0  0
   -8.9890   13.5850  -35.4655 C   0  0  0  0  0  0  0  0  0  0  0  0
   -6.9567   13.7132  -36.9361 C   0  0  0  0  0  0  0  0  0  0  0  0
   -8.0173   15.8235  -36.0818 C   0  0  0  0  0  0  0  0  0  0  0  0
   -8.2692   14.3898  -36.5467 C   0  0  0  0  0  0  0  0  0  0  0  0
  -11.3623   14.6221  -37.8138 N   0  0  0  0  0  0  0  0  0  0  0  0
  -10.4015   12.5689  -37.3889 O   0  0  0  0  0  0  0  0  0  0  0  0
  -14.4827   16.1151  -40.0785 O   0  0  0  0  0  0  0  0  0  0  0  0
   -9.0978   14.4280  -37.7139 O   0  0  0  0  0  0  0  0  0  0  0  0
  -13.1975   15.7312  -36.2973 H   0  0  0  0  0  0  0  0  0  0  0  0
  -14.5540   15.4434  -37.4281 H   0  0  0  0  0  0  0  0  0  0  0  0
  -12.5341   13.5867  -39.9193 H   0  0  0  0  0  0  0  0  0  0  0  0
  -14.2249   13.7559  -39.3986 H   0  0  0  0  0  0  0  0  0  0  0  0
  -10.6317   16.2560  -38.9351 H   0  0  0  0  0  0  0  0  0  0  0  0
  -10.9245   16.5647  -37.1958 H   0  0  0  0  0  0  0  0  0  0  0  0
  -13.0424   17.4273  -38.3064 H   0  0  0  0  0  0  0  0  0  0  0  0
  -12.9547   13.2874  -37.2769 H   0  0  0  0  0  0  0  0  0  0  0  0
  -12.4916   15.8765  -40.5078 H   0  0  0  0  0  0  0  0  0  0  0  0
   -9.9316   14.0675  -35.1832 H   0  0  0  0  0  0  0  0  0  0  0  0
   -9.2066   12.5653  -35.7994 H   0  0  0  0  0  0  0  0  0  0  0  0
   -8.3850   13.5288  -34.5526 H   0  0  0  0  0  0  0  0  0  0  0  0
   -6.4368   14.2872  -37.7116 H   0  0  0  0  0  0  0  0  0  0  0  0
   -7.1406   12.7190  -37.3591 H   0  0  0  0  0  0  0  0  0  0  0  0
   -6.2870   13.6058  -36.0767 H   0  0  0  0  0  0  0  0  0  0  0  0
   -7.5010   16.4010  -36.8572 H   0  0  0  0  0  0  0  0  0  0  0  0
   -8.9518   16.3369  -35.8332 H   0  0  0  0  0  0  0  0  0  0  0  0
   -7.3664   15.8385  -35.2001 H   0  0  0  0  0  0  0  0  0  0  0  0
  -14.7450   15.5757  -40.8424 H   0  0  0  0  0  0  0  0  0  0  0  0
  1 12  1  0  0  0  0
  1 13  2  0  0  0  0
  1 15  1  0  0  0  0
  2  5  1  0  0  0  0
  2  6  1  0  0  0  0
  3  6  1  6  0  0  0
  3  7  1  0  0  0  0
  4  5  1  6  0  0  0
  4 12  1  0  0  0  0
  5  7  1  0  0  0  0
  6 12  1  0  0  0  0
  7 14  1  1  0  0  0
  8 11  1  0  0  0  0
  9 11  1  0  0  0  0
 10 11  1  0  0  0  0
 11 15  1  0  0  0  0
  2 16  1  0  0  0  0
  2 17  1  0  0  0  0
  3 18  1  0  0  0  0
  3 19  1  0  0  0  0
  4 20  1  0  0  0  0
  4 21  1  0  0  0  0
  5 22  1  0  0  0  0
  6 23  1  0  0  0  0
  7 24  1  0  0  0  0
  8 25  1  0  0  0  0
  8 26  1  0  0  0  0
  8 27  1  0  0  0  0
  9 28  1  0  0  0  0
  9 29  1  0  0  0  0
  9 30  1  0  0  0  0
 10 31  1  0  0  0  0
 10 32  1  0  0  0  0
 10 33  1  0  0  0  0
 14 34  1  0  0  0  0
M  END
> <id>
EN300-315884

> <smiles>
CC(C)(C)OC(=O)N1C[C@@H]2C[C@H]1C[C@H]2O |&1:9,11,13,r|

> <IUPAC Name>
rac-tert-butyl (1R,4R,5S)-5-hydroxy-2-azabicyclo[2.2.1]heptane-2-carboxylate

> <CAS>
198835-03-9

> <Purity>
95

> <URL>
https://www.enaminestore.com/catalog/EN300-315884

> <MP>
96-98

> <ROCS_ShapeQuery>
_x1247relevant_x1083L0AP1_x1305L0BP1_

> <ROCS_TanimotoCombo>
1.018 

> <ROCS_ShapeTanimoto>
0.496 

> <ROCS_ColorTanimoto>
0.522 

> <ROCS_RefTversky>
0.434 

> <ROCS_RefColorTversky>
0.708 

> <ROCS_RefTverskyCombo>
1.142 

> <ROCS_FitTversky>
1.403 

> <ROCS_FitColorTversky>
0.665 

> <ROCS_FitTverskyCombo>
2.067 

> <ROCS_ColorScore>
-6.867

> <ROCS_Overlap>
1071.414

> <ROCS_Rank>
391                 

$$$$
untitled-dbase-8269_1
  -OEChem-06232314403D

 28 30  0     1  0  0  0  0  0999 V2000
  -12.1921   14.7469  -39.8301 C   0  0  0  0  0  0  0  0  0  0  0  0
  -12.0503   16.2361  -39.4894 C   0  0  0  0  0  0  0  0  0  0  0  0
  -14.0353   14.5408  -38.1798 C   0  0  0  0  0  0  0  0  0  0  0  0
  -13.8939   16.0365  -37.8387 C   0  0  0  0  0  0  0  0  0  0  0  0
  -10.2745   13.6518  -37.5959 C   0  0  0  0  0  0  0  0  0  0  0  0
  -10.0623   15.9011  -37.0797 C   0  0  0  0  0  0  0  0  0  0  0  0
  -12.6677   13.9557  -38.5968 C   0  0  0  0  0  0  0  0  0  0  0  0
  -12.4279   16.4897  -38.0175 C   0  0  0  0  0  0  0  0  0  0  0  0
  -11.7058   14.1443  -37.4059 C   0  0  2  0  0  0  0  0  0  0  0  0
  -11.5649   15.6382  -37.0639 C   0  0  1  0  0  0  0  0  0  0  0  0
   -9.4658   14.5871  -36.8014 N   0  0  0  0  0  0  0  0  0  0  0  0
  -12.9123   14.6265  -40.6504 H   0  0  0  0  0  0  0  0  0  0  0  0
  -11.2413   14.3529  -40.2080 H   0  0  0  0  0  0  0  0  0  0  0  0
  -11.0293   16.5767  -39.6983 H   0  0  0  0  0  0  0  0  0  0  0  0
  -12.7017   16.8256  -40.1481 H   0  0  0  0  0  0  0  0  0  0  0  0
  -14.4327   13.9987  -37.3132 H   0  0  0  0  0  0  0  0  0  0  0  0
  -14.7650   14.4135  -38.9888 H   0  0  0  0  0  0  0  0  0  0  0  0
  -14.5557   16.6275  -38.4837 H   0  0  0  0  0  0  0  0  0  0  0  0
  -14.2239   16.2144  -36.8077 H   0  0  0  0  0  0  0  0  0  0  0  0
  -10.1665   12.6438  -37.1862 H   0  0  0  0  0  0  0  0  0  0  0  0
   -9.9587   13.6358  -38.6388 H   0  0  0  0  0  0  0  0  0  0  0  0
   -9.7058   16.3106  -38.0247 H   0  0  0  0  0  0  0  0  0  0  0  0
   -9.7938   16.5958  -36.2795 H   0  0  0  0  0  0  0  0  0  0  0  0
  -12.7715   12.8992  -38.8450 H   0  0  0  0  0  0  0  0  0  0  0  0
  -12.3313   17.5494  -37.7821 H   0  0  0  0  0  0  0  0  0  0  0  0
  -12.1358   13.6145  -36.5276 H   0  0  0  0  0  0  0  0  0  0  0  0
  -11.9300   15.8048  -36.0266 H   0  0  0  0  0  0  0  0  0  0  0  0
   -9.5212   14.3658  -35.8166 H   0  0  0  0  0  0  0  0  0  0  0  0
  1  2  1  0  0  0  0
  1  7  1  0  0  0  0
  2  8  1  0  0  0  0
  3  4  1  0  0  0  0
  3  7  1  0  0  0  0
  4  8  1  0  0  0  0
  5  9  1  0  0  0  0
  5 11  1  0  0  0  0
  6 10  1  0  0  0  0
  6 11  1  0  0  0  0
  7  9  1  0  0  0  0
  8 10  1  0  0  0  0
  9 10  1  0  0  0  0
  1 12  1  0  0  0  0
  1 13  1  0  0  0  0
  2 14  1  0  0  0  0
  2 15  1  0  0  0  0
  3 16  1  0  0  0  0
  3 17  1  0  0  0  0
  4 18  1  0  0  0  0
  4 19  1  0  0  0  0
  5 20  1  0  0  0  0
  5 21  1  0  0  0  0
  6 22  1  0  0  0  0
  6 23  1  0  0  0  0
  7 24  1  0  0  0  0
  8 25  1  0  0  0  0
  9 26  1  0  0  0  0
 10 27  1  0  0  0  0
 11 28  1  0  0  0  0
M  END
> <id>
EN300-295425

> <smiles>
Cl.C1NCC2C1C3CCC2CC3

> <MDLNUMBER>
MFCD29991766

> <IUPAC Name>
4-azatricyclo[5.2.2.0,2,6]undecane hydrochloride

> <CAS>
1955553-56-6

> <Purity>
95

> <URL>
https://www.enaminestore.com/catalog/EN300-295425

> <Saltdate>
Cl

> <ROCS_ShapeQuery>
_x1247relevant_x1083L0AP1_x1305L0BP1_

> <ROCS_TanimotoCombo>
1.018 

> <ROCS_ShapeTanimoto>
0.474 

> <ROCS_ColorTanimoto>
0.544 

> <ROCS_RefTversky>
0.399 

> <ROCS_RefColorTversky>
0.685 

> <ROCS_RefTverskyCombo>
1.084 

> <ROCS_FitTversky>
1.654 

> <ROCS_FitColorTversky>
0.725 

> <ROCS_FitTverskyCombo>
2.379 

> <ROCS_ColorScore>
-6.601

> <ROCS_Overlap>
980.936

> <ROCS_Rank>
392                 

$$$$
untitled-dbase-39496_1
  -OEChem-06232314403D

 28 30  0     1  0  0  0  0  0999 V2000
  -12.1921   14.7469  -39.8301 C   0  0  0  0  0  0  0  0  0  0  0  0
  -12.0503   16.2361  -39.4894 C   0  0  0  0  0  0  0  0  0  0  0  0
  -14.0353   14.5408  -38.1798 C   0  0  0  0  0  0  0  0  0  0  0  0
  -13.8939   16.0365  -37.8387 C   0  0  0  0  0  0  0  0  0  0  0  0
  -10.2745   13.6518  -37.5959 C   0  0  0  0  0  0  0  0  0  0  0  0
  -10.0623   15.9011  -37.0797 C   0  0  0  0  0  0  0  0  0  0  0  0
  -12.6677   13.9557  -38.5968 C   0  0  0  0  0  0  0  0  0  0  0  0
  -12.4279   16.4897  -38.0175 C   0  0  0  0  0  0  0  0  0  0  0  0
  -11.7058   14.1443  -37.4059 C   0  0  2  0  0  0  0  0  0  0  0  0
  -11.5649   15.6382  -37.0639 C   0  0  1  0  0  0  0  0  0  0  0  0
   -9.4658   14.5871  -36.8014 N   0  0  0  0  0  0  0  0  0  0  0  0
  -12.9123   14.6265  -40.6504 H   0  0  0  0  0  0  0  0  0  0  0  0
  -11.2413   14.3529  -40.2080 H   0  0  0  0  0  0  0  0  0  0  0  0
  -11.0293   16.5767  -39.6983 H   0  0  0  0  0  0  0  0  0  0  0  0
  -12.7017   16.8256  -40.1481 H   0  0  0  0  0  0  0  0  0  0  0  0
  -14.4327   13.9987  -37.3132 H   0  0  0  0  0  0  0  0  0  0  0  0
  -14.7650   14.4135  -38.9888 H   0  0  0  0  0  0  0  0  0  0  0  0
  -14.5557   16.6275  -38.4837 H   0  0  0  0  0  0  0  0  0  0  0  0
  -14.2239   16.2144  -36.8077 H   0  0  0  0  0  0  0  0  0  0  0  0
  -10.1665   12.6438  -37.1862 H   0  0  0  0  0  0  0  0  0  0  0  0
   -9.9587   13.6358  -38.6388 H   0  0  0  0  0  0  0  0  0  0  0  0
   -9.7058   16.3106  -38.0247 H   0  0  0  0  0  0  0  0  0  0  0  0
   -9.7938   16.5958  -36.2795 H   0  0  0  0  0  0  0  0  0  0  0  0
  -12.7715   12.8992  -38.8450 H   0  0  0  0  0  0  0  0  0  0  0  0
  -12.3313   17.5494  -37.7821 H   0  0  0  0  0  0  0  0  0  0  0  0
  -12.1358   13.6145  -36.5276 H   0  0  0  0  0  0  0  0  0  0  0  0
  -11.9300   15.8048  -36.0266 H   0  0  0  0  0  0  0  0  0  0  0  0
   -9.5212   14.3658  -35.8166 H   0  0  0  0  0  0  0  0  0  0  0  0
  1  2  1  0  0  0  0
  1  7  1  0  0  0  0
  2  8  1  0  0  0  0
  3  4  1  0  0  0  0
  3  7  1  0  0  0  0
  4  8  1  0  0  0  0
  5  9  1  0  0  0  0
  5 11  1  0  0  0  0
  6 10  1  0  0  0  0
  6 11  1  0  0  0  0
  7  9  1  0  0  0  0
  8 10  1  0  0  0  0
  9 10  1  0  0  0  0
  1 12  1  0  0  0  0
  1 13  1  0  0  0  0
  2 14  1  0  0  0  0
  2 15  1  0  0  0  0
  3 16  1  0  0  0  0
  3 17  1  0  0  0  0
  4 18  1  0  0  0  0
  4 19  1  0  0  0  0
  5 20  1  0  0  0  0
  5 21  1  0  0  0  0
  6 22  1  0  0  0  0
  6 23  1  0  0  0  0
  7 24  1  0  0  0  0
  8 25  1  0  0  0  0
  9 26  1  0  0  0  0
 10 27  1  0  0  0  0
 11 28  1  0  0  0  0
M  END
> <id>
EN300-224909

> <smiles>
C1NCC2C1C3CCC2CC3

> <MDLNUMBER>
MFCD20665881

> <IUPAC Name>
4-azatricyclo[5.2.2.0,2,6]undecane

> <CAS>
4764-23-2

> <URL>
https://www.enaminestore.com/catalog/EN300-224909

> <ROCS_ShapeQuery>
_x1247relevant_x1083L0AP1_x1305L0BP1_

> <ROCS_TanimotoCombo>
1.018 

> <ROCS_ShapeTanimoto>
0.474 

> <ROCS_ColorTanimoto>
0.544 

> <ROCS_RefTversky>
0.399 

> <ROCS_RefColorTversky>
0.685 

> <ROCS_RefTverskyCombo>
1.084 

> <ROCS_FitTversky>
1.654 

> <ROCS_FitColorTversky>
0.725 

> <ROCS_FitTverskyCombo>
2.379 

> <ROCS_ColorScore>
-6.601

> <ROCS_Overlap>
980.936

> <ROCS_Rank>
393                 

$$$$
untitled-dbase-48679_0
  -OEChem-06232314403D

 26 28  0     1  0  0  0  0  0999 V2000
  -11.5483   15.7731  -38.7493 C   0  0  0  0  0  0  0  0  0  0  0  0
   -8.8864   14.4760  -36.3205 C   0  0  0  0  0  0  0  0  0  0  0  0
   -9.2372   13.7950  -37.6390 C   0  0  0  0  0  0  0  0  0  0  0  0
   -9.6481   15.7851  -36.1431 C   0  0  0  0  0  0  0  0  0  0  0  0
  -10.7414   13.5747  -37.7805 C   0  0  0  0  0  0  0  0  0  0  0  0
  -11.1561   15.5795  -36.2586 C   0  0  0  0  0  0  0  0  0  0  0  0
  -13.7906   14.9401  -39.7267 C   0  0  0  0  0  0  0  0  0  0  0  0
  -12.9273   16.0428  -39.1826 C   0  0  1  0  0  0  0  0  0  0  0  0
  -13.8003   15.2467  -38.2581 C   0  0  2  0  0  0  0  0  0  0  0  0
  -11.5637   14.8416  -37.5360 C   0  0  0  0  0  0  0  0  0  0  0  0
  -10.5746   16.2571  -39.3012 O   0  0  0  0  0  0  0  0  0  0  0  0
  -12.9533   14.4456  -37.4009 O   0  0  0  0  0  0  0  0  0  0  0  0
   -9.1207   13.8015  -35.4876 H   0  0  0  0  0  0  0  0  0  0  0  0
   -7.8084   14.6692  -36.2817 H   0  0  0  0  0  0  0  0  0  0  0  0
   -8.8687   14.4023  -38.4738 H   0  0  0  0  0  0  0  0  0  0  0  0
   -8.7201   12.8308  -37.7024 H   0  0  0  0  0  0  0  0  0  0  0  0
   -9.4125   16.2165  -35.1635 H   0  0  0  0  0  0  0  0  0  0  0  0
   -9.3123   16.5097  -36.8941 H   0  0  0  0  0  0  0  0  0  0  0  0
  -10.9577   13.1652  -38.7754 H   0  0  0  0  0  0  0  0  0  0  0  0
  -11.0560   12.7986  -37.0697 H   0  0  0  0  0  0  0  0  0  0  0  0
  -11.5081   15.0123  -35.3866 H   0  0  0  0  0  0  0  0  0  0  0  0
  -11.6617   16.5518  -36.2002 H   0  0  0  0  0  0  0  0  0  0  0  0
  -14.6612   15.2235  -40.3059 H   0  0  0  0  0  0  0  0  0  0  0  0
  -13.3142   14.0267  -40.0612 H   0  0  0  0  0  0  0  0  0  0  0  0
  -13.2046   17.0690  -39.3845 H   0  0  0  0  0  0  0  0  0  0  0  0
  -14.6720   15.7222  -37.8299 H   0  0  0  0  0  0  0  0  0  0  0  0
  1  8  1  0  0  0  0
  1 10  1  0  0  0  0
  1 11  2  0  0  0  0
  2  3  1  0  0  0  0
  2  4  1  0  0  0  0
  3  5  1  0  0  0  0
  4  6  1  0  0  0  0
  5 10  1  0  0  0  0
  6 10  1  0  0  0  0
  7  8  1  0  0  0  0
  7  9  1  0  0  0  0
  8  9  1  0  0  0  0
  9 12  1  0  0  0  0
 10 12  1  0  0  0  0
  2 13  1  0  0  0  0
  2 14  1  0  0  0  0
  3 15  1  0  0  0  0
  3 16  1  0  0  0  0
  4 17  1  0  0  0  0
  4 18  1  0  0  0  0
  5 19  1  0  0  0  0
  5 20  1  0  0  0  0
  6 21  1  0  0  0  0
  6 22  1  0  0  0  0
  7 23  1  0  0  0  0
  7 24  1  0  0  0  0
  8 25  1  0  0  0  0
  9 26  1  0  0  0  0
M  END
> <id>
EN300-737315

> <smiles>
O=C1C2CC2OC31CCCCC3

> <IUPAC Name>
2-oxaspiro[bicyclo[3.1.0]hexane-3,1'-cyclohexane]-4-one

> <CAS>
2138423-56-8

> <URL>
https://www.enaminestore.com/catalog/EN300-737315

> <ROCS_ShapeQuery>
_x1247relevant_x1083L0AP1_x1305L0BP1_

> <ROCS_TanimotoCombo>
1.017 

> <ROCS_ShapeTanimoto>
0.518 

> <ROCS_ColorTanimoto>
0.499 

> <ROCS_RefTversky>
0.430 

> <ROCS_RefColorTversky>
0.575 

> <ROCS_RefTverskyCombo>
1.005 

> <ROCS_FitTversky>
1.663 

> <ROCS_FitColorTversky>
0.789 

> <ROCS_FitTverskyCombo>
2.452 

> <ROCS_ColorScore>
-5.479

> <ROCS_Overlap>
1057.107

> <ROCS_Rank>
394                 

$$$$
untitled-dbase-45272_3
  -OEChem-06232314403D

 29 31  0     0  0  0  0  0  0999 V2000
  -13.0828   13.3091  -36.8278 C   0  0  0  0  0  0  0  0  0  0  0  0
   -8.7909   13.8025  -35.7620 C   0  0  0  0  0  0  0  0  0  0  0  0
  -13.1066   14.3653  -39.1962 C   0  0  0  0  0  0  0  0  0  0  0  0
  -13.6537   15.6940  -37.6713 C   0  0  0  0  0  0  0  0  0  0  0  0
  -10.7422   15.4035  -36.3315 C   0  0  0  0  0  0  0  0  0  0  0  0
  -10.1794   14.0360  -37.9007 C   0  0  0  0  0  0  0  0  0  0  0  0
  -12.7371   14.4144  -37.6669 C   0  0  0  0  0  0  0  0  0  0  0  0
  -11.3091   15.0520  -37.7102 C   0  0  0  0  0  0  0  0  0  0  0  0
  -12.8378   15.9164  -39.0118 C   0  0  0  0  0  0  0  0  0  0  0  0
  -13.3347   16.8918  -40.0398 C   0  0  0  0  0  0  0  0  0  0  0  0
   -9.0825   13.8366  -34.2857 C   0  0  0  0  0  0  0  0  0  0  0  0
  -13.3633   12.4125  -36.1470 N   0  0  0  0  0  0  0  0  0  0  0  0
   -9.7723   14.3466  -36.5436 N   0  0  0  0  0  0  0  0  0  0  0  0
   -7.7492   13.3161  -36.1994 O   0  0  0  0  0  0  0  0  0  0  0  0
  -11.4237   16.1241  -38.6856 O   0  0  0  0  0  0  0  0  0  0  0  0
  -10.2770   14.4103  -34.0509 F   0  0  0  0  0  0  0  0  0  0  0  0
   -9.1076   12.5912  -33.7760 F   0  0  0  0  0  0  0  0  0  0  0  0
   -8.1423   14.5401  -33.6279 F   0  0  0  0  0  0  0  0  0  0  0  0
  -12.4073   13.8385  -39.8524 H   0  0  0  0  0  0  0  0  0  0  0  0
  -14.1308   14.0703  -39.4529 H   0  0  0  0  0  0  0  0  0  0  0  0
  -14.7334   15.5339  -37.7730 H   0  0  0  0  0  0  0  0  0  0  0  0
  -13.4736   16.4283  -36.8802 H   0  0  0  0  0  0  0  0  0  0  0  0
  -10.2821   16.3931  -36.2568 H   0  0  0  0  0  0  0  0  0  0  0  0
  -11.3949   15.2330  -35.4714 H   0  0  0  0  0  0  0  0  0  0  0  0
  -10.4684   12.9910  -38.0393 H   0  0  0  0  0  0  0  0  0  0  0  0
   -9.4243   14.3123  -38.6425 H   0  0  0  0  0  0  0  0  0  0  0  0
  -13.0692   17.9215  -39.7678 H   0  0  0  0  0  0  0  0  0  0  0  0
  -14.4270   16.8409  -40.1365 H   0  0  0  0  0  0  0  0  0  0  0  0
  -12.8999   16.6819  -41.0257 H   0  0  0  0  0  0  0  0  0  0  0  0
  1  7  1  0  0  0  0
  1 12  3  0  0  0  0
  2 11  1  0  0  0  0
  2 13  1  0  0  0  0
  2 14  2  0  0  0  0
  3  7  1  0  0  0  0
  3  9  1  0  0  0  0
  4  7  1  0  0  0  0
  4  9  1  0  0  0  0
  5  8  1  0  0  0  0
  5 13  1  0  0  0  0
  6  8  1  0  0  0  0
  6 13  1  0  0  0  0
  7  8  1  0  0  0  0
  8 15  1  0  0  0  0
  9 10  1  0  0  0  0
  9 15  1  0  0  0  0
 11 16  1  0  0  0  0
 11 17  1  0  0  0  0
 11 18  1  0  0  0  0
  3 19  1  0  0  0  0
  3 20  1  0  0  0  0
  4 21  1  0  0  0  0
  4 22  1  0  0  0  0
  5 23  1  0  0  0  0
  5 24  1  0  0  0  0
  6 25  1  0  0  0  0
  6 26  1  0  0  0  0
 10 27  1  0  0  0  0
 10 28  1  0  0  0  0
 10 29  1  0  0  0  0
M  END
> <id>
EN300-28280729

> <smiles>
CC1(CC2(C1)C#N)OC32CN(C3)C(=O)C(F)(F)F

> <IUPAC Name>
4'-methyl-1-(2,2,2-trifluoroacetyl)-3'-oxaspiro[azetidine-3,2'-bicyclo[2.1.1]hexane]-1'-carbonitrile

> <CAS>
2680759-02-6

> <URL>
https://www.enaminestore.com/catalog/EN300-28280729

> <ROCS_ShapeQuery>
_x1247relevant_x1083L0AP1_x1305L0BP1_

> <ROCS_TanimotoCombo>
1.017 

> <ROCS_ShapeTanimoto>
0.499 

> <ROCS_ColorTanimoto>
0.518 

> <ROCS_RefTversky>
0.457 

> <ROCS_RefColorTversky>
0.718 

> <ROCS_RefTverskyCombo>
1.175 

> <ROCS_FitTversky>
1.226 

> <ROCS_FitColorTversky>
0.651 

> <ROCS_FitTverskyCombo>
1.877 

> <ROCS_ColorScore>
-6.981

> <ROCS_Overlap>
1131.093

> <ROCS_Rank>
395                 

$$$$
untitled-dbase-48283_1
  -OEChem-06232314403D

 24 26  0     1  0  0  0  0  0999 V2000
   -9.3474   14.2843  -36.6351 C   0  0  0  0  0  0  0  0  0  0  0  0
  -10.7444   13.6935  -36.9508 C   0  0  0  0  0  0  0  0  0  0  0  0
   -9.9698   15.6936  -36.7961 C   0  0  0  0  0  0  0  0  0  0  0  0
  -13.7008   15.4978  -39.5092 C   0  0  0  0  0  0  0  0  0  0  0  0
  -14.0783   14.3178  -38.6194 C   0  0  0  0  0  0  0  0  0  0  0  0
  -12.3639   15.9963  -38.9730 C   0  0  1  0  0  0  0  0  0  0  0  0
  -12.4635   15.5833  -37.4822 C   0  0  2  0  0  0  0  0  0  0  0  0
  -11.1060   15.0789  -39.1197 C   0  0  2  0  0  0  0  0  0  0  0  0
  -11.0644   15.0233  -37.6046 C   0  0  0  0  0  0  0  0  0  0  0  0
  -13.5668   14.6577  -37.3255 O   0  0  0  0  0  0  0  0  0  0  0  0
   -9.6450   15.8629  -40.1115 Br  0  0  0  0  0  0  0  0  0  0  0  0
   -8.9985   14.0699  -35.6174 H   0  0  0  0  0  0  0  0  0  0  0  0
   -8.5532   14.0299  -37.3430 H   0  0  0  0  0  0  0  0  0  0  0  0
  -10.7095   12.8484  -37.6491 H   0  0  0  0  0  0  0  0  0  0  0  0
  -11.3357   13.3998  -36.0795 H   0  0  0  0  0  0  0  0  0  0  0  0
  -10.2650   16.1854  -35.8636 H   0  0  0  0  0  0  0  0  0  0  0  0
   -9.3113   16.3716  -37.3519 H   0  0  0  0  0  0  0  0  0  0  0  0
  -13.6600   15.2222  -40.5669 H   0  0  0  0  0  0  0  0  0  0  0  0
  -14.4510   16.2896  -39.3951 H   0  0  0  0  0  0  0  0  0  0  0  0
  -15.1600   14.1675  -38.5678 H   0  0  0  0  0  0  0  0  0  0  0  0
  -13.5991   13.3900  -38.9478 H   0  0  0  0  0  0  0  0  0  0  0  0
  -12.1864   17.0647  -39.1331 H   0  0  0  0  0  0  0  0  0  0  0  0
  -12.5806   16.4249  -36.7897 H   0  0  0  0  0  0  0  0  0  0  0  0
  -11.3530   14.1008  -39.5613 H   0  0  0  0  0  0  0  0  0  0  0  0
  1  2  1  0  0  0  0
  1  3  1  0  0  0  0
  2  9  1  0  0  0  0
  3  9  1  0  0  0  0
  4  5  1  0  0  0  0
  4  6  1  0  0  0  0
  5 10  1  0  0  0  0
  6  7  1  0  0  0  0
  6  8  1  0  0  0  0
  7  9  1  0  0  0  0
  7 10  1  0  0  0  0
  8  9  1  0  0  0  0
  8 11  1  0  0  0  0
  1 12  1  0  0  0  0
  1 13  1  0  0  0  0
  2 14  1  0  0  0  0
  2 15  1  0  0  0  0
  3 16  1  0  0  0  0
  3 17  1  0  0  0  0
  4 18  1  0  0  0  0
  4 19  1  0  0  0  0
  5 20  1  0  0  0  0
  5 21  1  0  0  0  0
  6 22  1  0  0  0  0
  7 23  1  0  0  0  0
  8 24  1  0  0  0  0
M  END
> <id>
EN300-359557

> <smiles>
BrC1C2CCOC2C31CCC3

> <MDLNUMBER>
MFCD30538143

> <IUPAC Name>
7-bromo-4-oxaspiro[bicyclo[3.2.0]heptane-6,1'-cyclobutane]

> <CAS>
2138172-18-4

> <URL>
https://www.enaminestore.com/catalog/EN300-359557

> <ROCS_ShapeQuery>
_x1247relevant_x1083L0AP1_x1305L0BP1_

> <ROCS_TanimotoCombo>
1.017 

> <ROCS_ShapeTanimoto>
0.477 

> <ROCS_ColorTanimoto>
0.540 

> <ROCS_RefTversky>
0.399 

> <ROCS_RefColorTversky>
0.662 

> <ROCS_RefTverskyCombo>
1.062 

> <ROCS_FitTversky>
1.685 

> <ROCS_FitColorTversky>
0.746 

> <ROCS_FitTverskyCombo>
2.431 

> <ROCS_ColorScore>
-6.363

> <ROCS_Overlap>
980.981

> <ROCS_Rank>
396                 

$$$$
untitled-dbase-26160_40
  -OEChem-06232314403D

 48 50  0     1  0  0  0  0  0999 V2000
  -13.6323   14.4762  -40.6883 C   0  0  0  0  0  0  0  0  0  0  0  0
   -8.9029   13.5652  -37.0805 C   0  0  0  0  0  0  0  0  0  0  0  0
   -8.9377   14.3093  -35.7530 C   0  0  0  0  0  0  0  0  0  0  0  0
  -13.9073   15.2918  -37.1875 C   0  0  0  0  0  0  0  0  0  0  0  0
  -13.5208   16.6389  -37.8327 C   0  0  0  0  0  0  0  0  0  0  0  0
   -9.4786   14.4424  -38.1889 C   0  0  0  0  0  0  0  0  0  0  0  0
  -11.9448   13.7899  -37.8895 C   0  0  0  0  0  0  0  0  0  0  0  0
  -11.2860   16.0379  -38.9524 C   0  0  0  0  0  0  0  0  0  0  0  0
  -10.3354   14.8406  -35.4570 C   0  0  0  0  0  0  0  0  0  0  0  0
  -13.3993   14.2280  -38.1660 C   0  0  2  0  0  0  0  0  0  0  0  0
  -12.8035   16.2597  -39.1312 C   0  0  1  0  0  0  0  0  0  0  0  0
  -10.9031   14.9653  -37.8678 C   0  0  0  0  0  0  0  0  0  0  0  0
  -15.3764   13.8828  -42.8734 C   0  0  0  0  0  0  0  0  0  0  0  0
  -16.5766   12.3728  -41.2645 C   0  0  0  0  0  0  0  0  0  0  0  0
  -16.4701   14.8424  -40.8197 C   0  0  0  0  0  0  0  0  0  0  0  0
  -15.7350   13.6390  -41.4083 C   0  0  0  0  0  0  0  0  0  0  0  0
  -10.8691   15.6500  -36.5538 N   0  0  0  0  0  0  0  0  0  0  0  0
  -13.3739   14.9594  -39.4207 N   0  0  0  0  0  0  0  0  0  0  0  0
  -13.1222   14.9207  -41.7141 O   0  0  0  0  0  0  0  0  0  0  0  0
  -14.5245   13.4386  -40.6702 O   0  0  0  0  0  0  0  0  0  0  0  0
   -7.8713   13.2876  -37.3239 H   0  0  0  0  0  0  0  0  0  0  0  0
   -9.4739   12.6329  -37.0015 H   0  0  0  0  0  0  0  0  0  0  0  0
   -8.6130   13.6445  -34.9447 H   0  0  0  0  0  0  0  0  0  0  0  0
   -8.2267   15.1445  -35.7845 H   0  0  0  0  0  0  0  0  0  0  0  0
  -13.5432   15.1619  -36.1658 H   0  0  0  0  0  0  0  0  0  0  0  0
  -15.0023   15.2394  -37.1306 H   0  0  0  0  0  0  0  0  0  0  0  0
  -14.4446   17.1802  -38.0755 H   0  0  0  0  0  0  0  0  0  0  0  0
  -12.9445   17.3019  -37.1834 H   0  0  0  0  0  0  0  0  0  0  0  0
   -8.8016   15.2934  -38.3467 H   0  0  0  0  0  0  0  0  0  0  0  0
   -9.4837   13.8762  -39.1288 H   0  0  0  0  0  0  0  0  0  0  0  0
  -11.9191   13.2083  -36.9624 H   0  0  0  0  0  0  0  0  0  0  0  0
  -11.6577   13.0807  -38.6788 H   0  0  0  0  0  0  0  0  0  0  0  0
  -10.8760   15.7273  -39.9240 H   0  0  0  0  0  0  0  0  0  0  0  0
  -10.8025   16.9967  -38.7218 H   0  0  0  0  0  0  0  0  0  0  0  0
  -11.0131   14.0172  -35.2093 H   0  0  0  0  0  0  0  0  0  0  0  0
  -10.2849   15.4697  -34.5608 H   0  0  0  0  0  0  0  0  0  0  0  0
  -14.0595   13.3568  -38.2109 H   0  0  0  0  0  0  0  0  0  0  0  0
  -12.9931   16.9730  -39.9395 H   0  0  0  0  0  0  0  0  0  0  0  0
  -14.7723   14.7908  -42.9809 H   0  0  0  0  0  0  0  0  0  0  0  0
  -14.8183   13.0417  -43.2974 H   0  0  0  0  0  0  0  0  0  0  0  0
  -16.2785   14.0386  -43.4761 H   0  0  0  0  0  0  0  0  0  0  0  0
  -16.8362   12.1940  -40.2148 H   0  0  0  0  0  0  0  0  0  0  0  0
  -16.0164   11.4919  -41.5983 H   0  0  0  0  0  0  0  0  0  0  0  0
  -17.5028   12.4352  -41.8449 H   0  0  0  0  0  0  0  0  0  0  0  0
  -16.7274   14.6678  -39.7688 H   0  0  0  0  0  0  0  0  0  0  0  0
  -15.8659   15.7534  -40.8808 H   0  0  0  0  0  0  0  0  0  0  0  0
  -17.4162   15.0162  -41.3450 H   0  0  0  0  0  0  0  0  0  0  0  0
  -11.7674   16.0187  -36.2766 H   0  0  0  0  0  0  0  0  0  0  0  0
  1 18  1  0  0  0  0
  1 19  2  0  0  0  0
  1 20  1  0  0  0  0
  2  3  1  0  0  0  0
  2  6  1  0  0  0  0
  3  9  1  0  0  0  0
  4  5  1  0  0  0  0
  4 10  1  0  0  0  0
  5 11  1  0  0  0  0
  6 12  1  0  0  0  0
  7 10  1  0  0  0  0
  7 12  1  0  0  0  0
  8 11  1  0  0  0  0
  8 12  1  0  0  0  0
  9 17  1  0  0  0  0
 10 18  1  0  0  0  0
 11 18  1  0  0  0  0
 12 17  1  0  0  0  0
 13 16  1  0  0  0  0
 14 16  1  0  0  0  0
 15 16  1  0  0  0  0
 16 20  1  0  0  0  0
  2 21  1  0  0  0  0
  2 22  1  0  0  0  0
  3 23  1  0  0  0  0
  3 24  1  0  0  0  0
  4 25  1  0  0  0  0
  4 26  1  0  0  0  0
  5 27  1  0  0  0  0
  5 28  1  0  0  0  0
  6 29  1  0  0  0  0
  6 30  1  0  0  0  0
  7 31  1  0  0  0  0
  7 32  1  0  0  0  0
  8 33  1  0  0  0  0
  8 34  1  0  0  0  0
  9 35  1  0  0  0  0
  9 36  1  0  0  0  0
 10 37  1  0  0  0  0
 11 38  1  0  0  0  0
 13 39  1  0  0  0  0
 13 40  1  0  0  0  0
 13 41  1  0  0  0  0
 14 42  1  0  0  0  0
 14 43  1  0  0  0  0
 14 44  1  0  0  0  0
 15 45  1  0  0  0  0
 15 46  1  0  0  0  0
 15 47  1  0  0  0  0
 17 48  1  0  0  0  0
M  END
> <id>
EN300-6738470

> <smiles>
CC(C)(C)OC(=O)N1C2CCC1CC3(CCCCN3)C2

> <MDLNUMBER>
MFCD31746496

> <IUPAC Name>
tert-butyl 8-azaspiro[bicyclo[3.2.1]octane-3,2'-piperidine]-8-carboxylate

> <CAS>
2287345-38-2

> <Purity>
95

> <URL>
https://www.enaminestore.com/catalog/EN300-6738470

> <ROCS_ShapeQuery>
_x1247relevant_x1083L0AP1_x1305L0BP1_

> <ROCS_TanimotoCombo>
1.017 

> <ROCS_ShapeTanimoto>
0.548 

> <ROCS_ColorTanimoto>
0.469 

> <ROCS_RefTversky>
0.493 

> <ROCS_RefColorTversky>
0.671 

> <ROCS_RefTverskyCombo>
1.165 

> <ROCS_FitTversky>
1.256 

> <ROCS_FitColorTversky>
0.608 

> <ROCS_FitTverskyCombo>
1.864 

> <ROCS_ColorScore>
-6.528

> <ROCS_Overlap>
1221.857

> <ROCS_Rank>
397                 

$$$$
untitled-dbase-2169_0
  -OEChem-06232314403D

 23 25  0     1  0  0  0  0  0999 V2000
  -11.2977   16.2535  -38.4617 C   0  0  0  0  0  0  0  0  0  0  0  0
   -9.4159   14.6554  -36.3382 C   0  0  0  0  0  0  0  0  0  0  0  0
   -9.7386   14.1803  -37.7738 C   0  0  0  0  0  0  0  0  0  0  0  0
  -10.9273   14.9183  -36.1450 C   0  0  0  0  0  0  0  0  0  0  0  0
  -13.8210   15.9772  -39.1241 C   0  0  0  0  0  0  0  0  0  0  0  0
  -14.2030   15.5397  -37.7135 C   0  0  0  0  0  0  0  0  0  0  0  0
  -12.3769   15.5380  -39.3030 C   0  0  2  0  0  0  0  0  0  0  0  0
  -12.2675   14.3507  -38.2976 C   0  0  1  0  0  0  0  0  0  0  0  0
  -11.0233   14.9943  -37.6621 C   0  0  0  0  0  0  0  0  0  0  0  0
  -10.8514   17.3800  -38.4369 O   0  0  0  0  0  0  0  0  0  0  0  0
  -13.4825   14.3186  -37.5044 O   0  0  0  0  0  0  0  0  0  0  0  0
   -8.9766   13.9041  -35.6771 H   0  0  0  0  0  0  0  0  0  0  0  0
   -8.8047   15.5648  -36.3041 H   0  0  0  0  0  0  0  0  0  0  0  0
   -9.0270   14.5021  -38.5387 H   0  0  0  0  0  0  0  0  0  0  0  0
   -9.8810   13.0965  -37.8525 H   0  0  0  0  0  0  0  0  0  0  0  0
  -11.4587   14.0760  -35.6876 H   0  0  0  0  0  0  0  0  0  0  0  0
  -11.1726   15.8334  -35.5993 H   0  0  0  0  0  0  0  0  0  0  0  0
  -14.4490   15.4443  -39.8481 H   0  0  0  0  0  0  0  0  0  0  0  0
  -13.9658   17.0501  -39.2787 H   0  0  0  0  0  0  0  0  0  0  0  0
  -13.8788   16.2662  -36.9613 H   0  0  0  0  0  0  0  0  0  0  0  0
  -15.2770   15.3646  -37.6097 H   0  0  0  0  0  0  0  0  0  0  0  0
  -12.0619   15.3296  -40.3289 H   0  0  0  0  0  0  0  0  0  0  0  0
  -12.1016   13.3785  -38.7738 H   0  0  0  0  0  0  0  0  0  0  0  0
  1  7  1  0  0  0  0
  1  9  1  0  0  0  0
  1 10  2  0  0  0  0
  2  3  1  0  0  0  0
  2  4  1  0  0  0  0
  3  9  1  0  0  0  0
  4  9  1  0  0  0  0
  5  6  1  0  0  0  0
  5  7  1  0  0  0  0
  6 11  1  0  0  0  0
  7  8  1  0  0  0  0
  8  9  1  0  0  0  0
  8 11  1  0  0  0  0
  2 12  1  0  0  0  0
  2 13  1  0  0  0  0
  3 14  1  0  0  0  0
  3 15  1  0  0  0  0
  4 16  1  0  0  0  0
  4 17  1  0  0  0  0
  5 18  1  0  0  0  0
  5 19  1  0  0  0  0
  6 20  1  0  0  0  0
  6 21  1  0  0  0  0
  7 22  1  0  0  0  0
  8 23  1  0  0  0  0
M  END
> <id>
EN300-115479

> <smiles>
O=C1C2CCOC2C31CCC3

> <MDLNUMBER>
MFCD22565987

> <IUPAC Name>
4-oxaspiro[bicyclo[3.2.0]heptane-6,1'-cyclobutane]-7-one

> <CAS>
1423026-67-8

> <URL>
https://www.enaminestore.com/catalog/EN300-115479

> <ROCS_ShapeQuery>
_x1247relevant_x1083L0AP1_x1305L0BP1_

> <ROCS_TanimotoCombo>
1.017 

> <ROCS_ShapeTanimoto>
0.474 

> <ROCS_ColorTanimoto>
0.543 

> <ROCS_RefTversky>
0.399 

> <ROCS_RefColorTversky>
0.665 

> <ROCS_RefTverskyCombo>
1.064 

> <ROCS_FitTversky>
1.643 

> <ROCS_FitColorTversky>
0.748 

> <ROCS_FitTverskyCombo>
2.391 

> <ROCS_ColorScore>
-6.388

> <ROCS_Overlap>
981.990

> <ROCS_Rank>
398                 

$$$$
untitled-dbase-19818_59
  -OEChem-06232314403D

 42 45  0     1  0  0  0  0  0999 V2000
   -8.0422   14.4219  -36.8143 C   0  0  0  0  0  0  0  0  0  0  0  0
  -14.0580   14.4607  -37.9244 C   0  0  0  0  0  0  0  0  0  0  0  0
  -13.9298   15.9617  -37.5685 C   0  0  0  0  0  0  0  0  0  0  0  0
  -10.2709   13.6027  -37.5384 C   0  0  0  0  0  0  0  0  0  0  0  0
  -10.0690   15.9366  -36.9931 C   0  0  0  0  0  0  0  0  0  0  0  0
  -12.6983   13.9118  -38.4265 C   0  0  2  0  0  0  0  0  0  0  0  0
  -12.4818   16.4509  -37.8255 C   0  0  1  0  0  0  0  0  0  0  0  0
  -11.6877   14.0974  -37.2635 C   0  0  2  0  0  0  0  0  0  0  0  0
  -11.5573   15.6074  -36.9069 C   0  0  1  0  0  0  0  0  0  0  0  0
  -12.2244   14.7295  -39.6156 C   0  0  2  0  0  0  0  0  0  0  0  0
  -12.1014   16.1845  -39.2718 C   0  0  1  0  0  0  0  0  0  0  0  0
   -7.9811   13.5324  -34.1043 C   0  0  0  0  0  0  0  0  0  0  0  0
   -6.8345   11.4820  -34.9932 C   0  0  0  0  0  0  0  0  0  0  0  0
   -5.7496   13.7325  -35.2511 C   0  0  0  0  0  0  0  0  0  0  0  0
   -7.0760   12.9754  -35.2021 C   0  0  0  0  0  0  0  0  0  0  0  0
   -9.3860   14.6563  -37.0797 N   0  0  0  0  0  0  0  0  0  0  0  0
   -7.1536   15.2623  -36.9401 O   0  0  0  0  0  0  0  0  0  0  0  0
  -13.1187   15.7067  -40.1588 O   0  0  0  0  0  0  0  0  0  0  0  0
   -7.7389   13.1335  -36.4642 O   0  0  0  0  0  0  0  0  0  0  0  0
  -14.3953   13.8987  -37.0456 H   0  0  0  0  0  0  0  0  0  0  0  0
  -14.8280   14.3306  -38.6944 H   0  0  0  0  0  0  0  0  0  0  0  0
  -14.6395   16.5432  -38.1692 H   0  0  0  0  0  0  0  0  0  0  0  0
  -14.2048   16.1187  -36.5189 H   0  0  0  0  0  0  0  0  0  0  0  0
  -10.0498   12.7162  -36.9337 H   0  0  0  0  0  0  0  0  0  0  0  0
  -10.0718   13.3516  -38.5842 H   0  0  0  0  0  0  0  0  0  0  0  0
   -9.8010   16.5860  -37.8307 H   0  0  0  0  0  0  0  0  0  0  0  0
   -9.7269   16.4179  -36.0703 H   0  0  0  0  0  0  0  0  0  0  0  0
  -12.7934   12.8591  -38.7026 H   0  0  0  0  0  0  0  0  0  0  0  0
  -12.3962   17.5164  -37.6000 H   0  0  0  0  0  0  0  0  0  0  0  0
  -12.0765   13.5564  -36.3758 H   0  0  0  0  0  0  0  0  0  0  0  0
  -11.8836   15.7529  -35.8563 H   0  0  0  0  0  0  0  0  0  0  0  0
  -11.4873   14.2654  -40.2518 H   0  0  0  0  0  0  0  0  0  0  0  0
  -11.2766   16.7592  -39.6628 H   0  0  0  0  0  0  0  0  0  0  0  0
   -8.1569   14.6042  -34.2507 H   0  0  0  0  0  0  0  0  0  0  0  0
   -8.9490   13.0212  -34.0815 H   0  0  0  0  0  0  0  0  0  0  0  0
   -7.5112   13.4279  -33.1196 H   0  0  0  0  0  0  0  0  0  0  0  0
   -6.1855   11.0781  -35.7787 H   0  0  0  0  0  0  0  0  0  0  0  0
   -7.7751   10.9225  -35.0520 H   0  0  0  0  0  0  0  0  0  0  0  0
   -6.3708   11.2797  -34.0223 H   0  0  0  0  0  0  0  0  0  0  0  0
   -5.1002   13.3331  -36.0385 H   0  0  0  0  0  0  0  0  0  0  0  0
   -5.9016   14.8007  -35.4372 H   0  0  0  0  0  0  0  0  0  0  0  0
   -5.2005   13.6178  -34.3096 H   0  0  0  0  0  0  0  0  0  0  0  0
  1 16  1  0  0  0  0
  1 17  2  0  0  0  0
  1 19  1  0  0  0  0
  2  3  1  0  0  0  0
  2  6  1  0  0  0  0
  3  7  1  0  0  0  0
  4  8  1  0  0  0  0
  4 16  1  0  0  0  0
  5  9  1  0  0  0  0
  5 16  1  0  0  0  0
  6  8  1  0  0  0  0
  6 10  1  0  0  0  0
  7  9  1  0  0  0  0
  7 11  1  0  0  0  0
  8  9  1  0  0  0  0
 10 11  1  0  0  0  0
 10 18  1  0  0  0  0
 11 18  1  0  0  0  0
 12 15  1  0  0  0  0
 13 15  1  0  0  0  0
 14 15  1  0  0  0  0
 15 19  1  0  0  0  0
  2 20  1  0  0  0  0
  2 21  1  0  0  0  0
  3 22  1  0  0  0  0
  3 23  1  0  0  0  0
  4 24  1  0  0  0  0
  4 25  1  0  0  0  0
  5 26  1  0  0  0  0
  5 27  1  0  0  0  0
  6 28  1  0  0  0  0
  7 29  1  0  0  0  0
  8 30  1  0  0  0  0
  9 31  1  0  0  0  0
 10 32  1  0  0  0  0
 11 33  1  0  0  0  0
 12 34  1  0  0  0  0
 12 35  1  0  0  0  0
 12 36  1  0  0  0  0
 13 37  1  0  0  0  0
 13 38  1  0  0  0  0
 13 39  1  0  0  0  0
 14 40  1  0  0  0  0
 14 41  1  0  0  0  0
 14 42  1  0  0  0  0
M  END
> <id>
EN300-1708356

> <smiles>
CC(C)(C)OC(=O)N1CC2C(C1)C3CCC2C4OC43

> <IUPAC Name>
tert-butyl 9-oxa-4-azatetracyclo[5.3.2.0^{2,6}.0^{8,10}]dodecane-4-carboxylate

> <CAS>
2219407-46-0

> <URL>
https://www.enaminestore.com/catalog/EN300-1708356

> <ROCS_ShapeQuery>
_x1247relevant_x1083L0AP1_x1305L0BP1_

> <ROCS_TanimotoCombo>
1.017 

> <ROCS_ShapeTanimoto>
0.489 

> <ROCS_ColorTanimoto>
0.528 

> <ROCS_RefTversky>
0.455 

> <ROCS_RefColorTversky>
1.020 

> <ROCS_RefTverskyCombo>
1.475 

> <ROCS_FitTversky>
1.181 

> <ROCS_FitColorTversky>
0.522 

> <ROCS_FitTverskyCombo>
1.703 

> <ROCS_ColorScore>
-10.412

> <ROCS_Overlap>
1126.778

> <ROCS_Rank>
399                 

$$$$
untitled-dbase-36984_0
  -OEChem-06232314403D

 23 25  0     1  0  0  0  0  0999 V2000
  -11.2977   16.2543  -38.4613 C   0  0  0  0  0  0  0  0  0  0  0  0
   -9.4151   14.6563  -36.3392 C   0  0  0  0  0  0  0  0  0  0  0  0
   -9.7382   14.1807  -37.7745 C   0  0  0  0  0  0  0  0  0  0  0  0
  -10.9266   14.9180  -36.1454 C   0  0  0  0  0  0  0  0  0  0  0  0
  -13.8214   15.9783  -39.1224 C   0  0  0  0  0  0  0  0  0  0  0  0
  -14.2026   15.5397  -37.7119 C   0  0  0  0  0  0  0  0  0  0  0  0
  -12.3773   15.5394  -39.3025 C   0  0  2  0  0  0  0  0  0  0  0  0
  -12.2672   14.3513  -38.2981 C   0  0  1  0  0  0  0  0  0  0  0  0
  -11.0230   14.9946  -37.6624 C   0  0  0  0  0  0  0  0  0  0  0  0
  -10.8510   17.3807  -38.4363 O   0  0  0  0  0  0  0  0  0  0  0  0
  -13.4820   14.3182  -37.5045 O   0  0  0  0  0  0  0  0  0  0  0  0
   -8.9742   13.9060  -35.6782 H   0  0  0  0  0  0  0  0  0  0  0  0
   -8.8038   15.5656  -36.3048 H   0  0  0  0  0  0  0  0  0  0  0  0
   -9.0266   14.5027  -38.5397 H   0  0  0  0  0  0  0  0  0  0  0  0
   -9.8804   13.0968  -37.8525 H   0  0  0  0  0  0  0  0  0  0  0  0
  -11.4583   14.0755  -35.6889 H   0  0  0  0  0  0  0  0  0  0  0  0
  -11.1722   15.8324  -35.5990 H   0  0  0  0  0  0  0  0  0  0  0  0
  -14.4492   15.4457  -39.8468 H   0  0  0  0  0  0  0  0  0  0  0  0
  -13.9667   17.0514  -39.2757 H   0  0  0  0  0  0  0  0  0  0  0  0
  -13.8780   16.2661  -36.9597 H   0  0  0  0  0  0  0  0  0  0  0  0
  -15.2764   15.3643  -37.6073 H   0  0  0  0  0  0  0  0  0  0  0  0
  -12.0625   15.3322  -40.3287 H   0  0  0  0  0  0  0  0  0  0  0  0
  -12.1011   13.3794  -38.7750 H   0  0  0  0  0  0  0  0  0  0  0  0
  1  7  1  0  0  0  0
  1  9  1  0  0  0  0
  1 10  2  0  0  0  0
  2  3  1  0  0  0  0
  2  4  1  0  0  0  0
  3  9  1  0  0  0  0
  4  9  1  0  0  0  0
  5  6  1  0  0  0  0
  5  7  1  6  0  0  0
  6 11  1  0  0  0  0
  7  8  1  0  0  0  0
  8  9  1  0  0  0  0
  8 11  1  6  0  0  0
  2 12  1  0  0  0  0
  2 13  1  0  0  0  0
  3 14  1  0  0  0  0
  3 15  1  0  0  0  0
  4 16  1  0  0  0  0
  4 17  1  0  0  0  0
  5 18  1  0  0  0  0
  5 19  1  0  0  0  0
  6 20  1  0  0  0  0
  6 21  1  0  0  0  0
  7 22  1  0  0  0  0
  8 23  1  0  0  0  0
M  END
> <id>
EN300-331985

> <smiles>
O=C1[C@@H]2CCO[C@@H]2C31CCC3 |&1:2,6,r|

> <MDLNUMBER>
MFCD28118625

> <IUPAC Name>
rac-(1R,5S)-4-oxaspiro[bicyclo[3.2.0]heptane-6,1'-cyclobutane]-7-one

> <CAS>
1932810-72-4

> <Purity>
95

> <URL>
https://www.enaminestore.com/catalog/EN300-331985

> <ROCS_ShapeQuery>
_x1247relevant_x1083L0AP1_x1305L0BP1_

> <ROCS_TanimotoCombo>
1.017 

> <ROCS_ShapeTanimoto>
0.473 

> <ROCS_ColorTanimoto>
0.543 

> <ROCS_RefTversky>
0.399 

> <ROCS_RefColorTversky>
0.665 

> <ROCS_RefTverskyCombo>
1.064 

> <ROCS_FitTversky>
1.643 

> <ROCS_FitColorTversky>
0.748 

> <ROCS_FitTverskyCombo>
2.391 

> <ROCS_ColorScore>
-6.388

> <ROCS_Overlap>
981.914

> <ROCS_Rank>
400                 

$$$$
untitled-dbase-11159_0
  -OEChem-06232314403D

 20 22  0     1  0  0  0  0  0999 V2000
  -13.7996   16.0363  -38.2605 C   0  0  0  0  0  0  0  0  0  0  0  0
  -13.9402   14.7257  -38.5182 C   0  0  0  0  0  0  0  0  0  0  0  0
  -10.1751   15.8769  -37.0420 C   0  0  0  0  0  0  0  0  0  0  0  0
  -10.4119   13.6725  -37.4747 C   0  0  0  0  0  0  0  0  0  0  0  0
  -11.9511   15.3878  -39.4704 C   0  0  0  0  0  0  0  0  0  0  0  0
  -12.3211   16.3500  -38.3340 C   0  0  2  0  0  0  0  0  0  0  0  0
  -12.5551   14.1675  -38.7632 C   0  0  1  0  0  0  0  0  0  0  0  0
  -11.6575   15.6808  -37.1106 C   0  0  1  0  0  0  0  0  0  0  0  0
  -11.8188   14.1790  -37.4058 C   0  0  2  0  0  0  0  0  0  0  0  0
   -9.6104   16.9442  -36.8570 O   0  0  0  0  0  0  0  0  0  0  0  0
  -10.0855   12.5222  -37.7247 O   0  0  0  0  0  0  0  0  0  0  0  0
   -9.5376   14.6869  -37.2247 O   0  0  0  0  0  0  0  0  0  0  0  0
  -14.5846   16.7259  -37.9947 H   0  0  0  0  0  0  0  0  0  0  0  0
  -14.8600   14.1635  -38.4987 H   0  0  0  0  0  0  0  0  0  0  0  0
  -12.4430   15.6277  -40.4226 H   0  0  0  0  0  0  0  0  0  0  0  0
  -10.8742   15.3079  -39.6503 H   0  0  0  0  0  0  0  0  0  0  0  0
  -12.0703   17.3944  -38.5232 H   0  0  0  0  0  0  0  0  0  0  0  0
  -12.5159   13.2424  -39.3394 H   0  0  0  0  0  0  0  0  0  0  0  0
  -12.1113   15.9602  -36.1538 H   0  0  0  0  0  0  0  0  0  0  0  0
  -12.3582   13.6609  -36.6056 H   0  0  0  0  0  0  0  0  0  0  0  0
  1  2  2  0  0  0  0
  1  6  1  0  0  0  0
  2  7  1  0  0  0  0
  3  8  1  0  0  0  0
  3 10  2  0  0  0  0
  3 12  1  0  0  0  0
  4  9  1  0  0  0  0
  4 11  2  0  0  0  0
  4 12  1  0  0  0  0
  5  6  1  0  0  0  0
  5  7  1  0  0  0  0
  6  8  1  0  0  0  0
  7  9  1  0  0  0  0
  8  9  1  0  0  0  0
  1 13  1  0  0  0  0
  2 14  1  0  0  0  0
  5 15  1  0  0  0  0
  5 16  1  0  0  0  0
  6 17  1  0  0  0  0
  7 18  1  0  0  0  0
  8 19  1  0  0  0  0
  9 20  1  0  0  0  0
M  END
> <id>
EN300-18013

> <smiles>
O=C1OC(=O)C2C3CC(C=C3)C21

> <IUPAC Name>
4-oxatricyclo[5.2.1.0,2,6]dec-8-ene-3,5-dione

> <CAS>
826-62-0

> <URL>
https://www.enaminestore.com/catalog/EN300-18013

> <MP>
162-165

> <ROCS_ShapeQuery>
_x1247relevant_x1083L0AP1_x1305L0BP1_

> <ROCS_TanimotoCombo>
1.017 

> <ROCS_ShapeTanimoto>
0.485 

> <ROCS_ColorTanimoto>
0.532 

> <ROCS_RefTversky>
0.415 

> <ROCS_RefColorTversky>
0.690 

> <ROCS_RefTverskyCombo>
1.105 

> <ROCS_FitTversky>
1.525 

> <ROCS_FitColorTversky>
0.699 

> <ROCS_FitTverskyCombo>
2.224 

> <ROCS_ColorScore>
-6.661

> <ROCS_Overlap>
1022.451

> <ROCS_Rank>
401                 

$$$$
untitled-dbase-4942_1
  -OEChem-06232314403D

 29 31  0     1  0  0  0  0  0999 V2000
  -13.8545   14.5231  -39.0569 C   0  0  0  0  0  0  0  0  0  0  0  0
  -13.6036   14.2910  -37.5613 C   0  0  0  0  0  0  0  0  0  0  0  0
  -12.9537   16.5040  -38.0907 C   0  0  0  0  0  0  0  0  0  0  0  0
  -11.4639   15.1797  -39.4066 C   0  0  0  0  0  0  0  0  0  0  0  0
   -9.1759   14.3492  -35.9184 C   0  0  0  0  0  0  0  0  0  0  0  0
  -10.5944   13.5373  -37.6563 C   0  0  0  0  0  0  0  0  0  0  0  0
   -9.6685   15.7635  -36.1948 C   0  0  0  0  0  0  0  0  0  0  0  0
  -12.9159   15.6969  -39.3856 C   0  0  1  0  0  0  0  0  0  0  0  0
  -12.5033   15.3143  -37.2313 C   0  0  2  0  0  0  0  0  0  0  0  0
  -11.1450   14.9483  -37.9053 C   0  0  2  0  0  0  0  0  0  0  0  0
  -10.2023   13.3607  -36.2555 N   0  0  0  0  0  0  0  0  0  0  0  0
  -10.1247   15.9011  -37.5417 O   0  0  0  0  0  0  0  0  0  0  0  0
  -13.6370   13.6324  -39.6545 H   0  0  0  0  0  0  0  0  0  0  0  0
  -14.9013   14.7995  -39.2244 H   0  0  0  0  0  0  0  0  0  0  0  0
  -14.5149   14.5188  -36.9937 H   0  0  0  0  0  0  0  0  0  0  0  0
  -13.3343   13.2564  -37.3344 H   0  0  0  0  0  0  0  0  0  0  0  0
  -12.2527   17.3453  -38.0817 H   0  0  0  0  0  0  0  0  0  0  0  0
  -13.9562   16.8657  -37.8362 H   0  0  0  0  0  0  0  0  0  0  0  0
  -11.3839   14.2675  -40.0086 H   0  0  0  0  0  0  0  0  0  0  0  0
  -10.8168   15.9441  -39.8513 H   0  0  0  0  0  0  0  0  0  0  0  0
   -8.2660   14.1458  -36.5012 H   0  0  0  0  0  0  0  0  0  0  0  0
   -8.9023   14.2405  -34.8573 H   0  0  0  0  0  0  0  0  0  0  0  0
  -11.3496   12.7849  -37.9104 H   0  0  0  0  0  0  0  0  0  0  0  0
   -9.7161   13.3355  -38.2750 H   0  0  0  0  0  0  0  0  0  0  0  0
  -10.5163   15.9918  -35.5389 H   0  0  0  0  0  0  0  0  0  0  0  0
   -8.8917   16.5070  -35.9803 H   0  0  0  0  0  0  0  0  0  0  0  0
  -13.1979   16.2384  -40.2898 H   0  0  0  0  0  0  0  0  0  0  0  0
  -12.4186   15.5488  -36.1690 H   0  0  0  0  0  0  0  0  0  0  0  0
   -9.8206   12.4272  -36.1277 H   0  0  0  0  0  0  0  0  0  0  0  0
  1  2  1  0  0  0  0
  1  8  1  0  0  0  0
  2  9  1  0  0  0  0
  3  8  1  0  0  0  0
  3  9  1  0  0  0  0
  4  8  1  0  0  0  0
  4 10  1  0  0  0  0
  5  7  1  0  0  0  0
  5 11  1  0  0  0  0
  6 10  1  0  0  0  0
  6 11  1  0  0  0  0
  7 12  1  0  0  0  0
  9 10  1  0  0  0  0
 10 12  1  0  0  0  0
  1 13  1  0  0  0  0
  1 14  1  0  0  0  0
  2 15  1  0  0  0  0
  2 16  1  0  0  0  0
  3 17  1  0  0  0  0
  3 18  1  0  0  0  0
  4 19  1  0  0  0  0
  4 20  1  0  0  0  0
  5 21  1  0  0  0  0
  5 22  1  0  0  0  0
  6 23  1  0  0  0  0
  6 24  1  0  0  0  0
  7 25  1  0  0  0  0
  7 26  1  0  0  0  0
  8 27  1  0  0  0  0
  9 28  1  0  0  0  0
 11 29  1  0  0  0  0
M  END
> <id>
EN300-200685

> <smiles>
C1CC2CC1CC32CNCCO3

> <MDLNUMBER>
MFCD24121870

> <IUPAC Name>
spiro[bicyclo[2.2.1]heptane-2,2'-morpholine]

> <CAS>
1559914-99-6

> <Purity>
95

> <URL>
https://www.enaminestore.com/catalog/EN300-200685

> <ROCS_ShapeQuery>
_x1247relevant_x1083L0AP1_x1305L0BP1_

> <ROCS_TanimotoCombo>
1.016 

> <ROCS_ShapeTanimoto>
0.495 

> <ROCS_ColorTanimoto>
0.521 

> <ROCS_RefTversky>
0.417 

> <ROCS_RefColorTversky>
0.705 

> <ROCS_RefTverskyCombo>
1.123 

> <ROCS_FitTversky>
1.601 

> <ROCS_FitColorTversky>
0.667 

> <ROCS_FitTverskyCombo>
2.267 

> <ROCS_ColorScore>
-6.839

> <ROCS_Overlap>
1027.244

> <ROCS_Rank>
402                 

$$$$
untitled-dbase-8760_0
  -OEChem-06232314403D

 27 29  0     1  0  0  0  0  0999 V2000
  -10.3805   13.6610  -37.5372 C   0  0  0  0  0  0  0  0  0  0  0  0
  -13.8096   16.1565  -38.2773 C   0  0  0  0  0  0  0  0  0  0  0  0
  -14.0021   14.6600  -38.5733 C   0  0  0  0  0  0  0  0  0  0  0  0
  -11.9313   15.3446  -39.4738 C   0  0  0  0  0  0  0  0  0  0  0  0
  -10.1555   15.9435  -36.9430 C   0  0  0  0  0  0  0  0  0  0  0  0
  -12.2795   16.3344  -38.3618 C   0  0  2  0  0  0  0  0  0  0  0  0
  -12.5570   14.1528  -38.7338 C   0  0  1  0  0  0  0  0  0  0  0  0
  -11.6496   15.6959  -37.0978 C   0  0  1  0  0  0  0  0  0  0  0  0
  -11.8041   14.1765  -37.3761 C   0  0  2  0  0  0  0  0  0  0  0  0
  -12.4717   13.4160  -36.2356 C   0  0  0  0  0  0  0  0  0  0  0  0
   -9.5111   14.7081  -37.2838 N   0  0  0  0  0  0  0  0  0  0  0  0
  -10.0734   12.5170  -37.8409 O   0  0  0  0  0  0  0  0  0  0  0  0
  -14.3157   16.7584  -39.0405 H   0  0  0  0  0  0  0  0  0  0  0  0
  -14.2134   16.4374  -37.2995 H   0  0  0  0  0  0  0  0  0  0  0  0
  -14.5681   14.1469  -37.7923 H   0  0  0  0  0  0  0  0  0  0  0  0
  -14.5563   14.5376  -39.5117 H   0  0  0  0  0  0  0  0  0  0  0  0
  -12.4310   15.5705  -40.4227 H   0  0  0  0  0  0  0  0  0  0  0  0
  -10.8583   15.2454  -39.6591 H   0  0  0  0  0  0  0  0  0  0  0  0
   -9.7727   16.7423  -37.5843 H   0  0  0  0  0  0  0  0  0  0  0  0
   -9.8970   16.1704  -35.9039 H   0  0  0  0  0  0  0  0  0  0  0  0
  -11.9746   17.3681  -38.5387 H   0  0  0  0  0  0  0  0  0  0  0  0
  -12.4831   13.2038  -39.2706 H   0  0  0  0  0  0  0  0  0  0  0  0
  -12.1792   16.0247  -36.1958 H   0  0  0  0  0  0  0  0  0  0  0  0
  -13.4939   13.7689  -36.1017 H   0  0  0  0  0  0  0  0  0  0  0  0
  -11.9183   13.5730  -35.3102 H   0  0  0  0  0  0  0  0  0  0  0  0
  -12.4911   12.3500  -36.4609 H   0  0  0  0  0  0  0  0  0  0  0  0
   -8.5023   14.6031  -37.3225 H   0  0  0  0  0  0  0  0  0  0  0  0
  1  9  1  0  0  0  0
  1 11  1  0  0  0  0
  1 12  2  0  0  0  0
  2  3  1  0  0  0  0
  2  6  1  0  0  0  0
  3  7  1  0  0  0  0
  4  6  1  0  0  0  0
  4  7  1  0  0  0  0
  5  8  1  0  0  0  0
  5 11  1  0  0  0  0
  6  8  1  0  0  0  0
  7  9  1  0  0  0  0
  8  9  1  0  0  0  0
  9 10  1  0  0  0  0
  2 13  1  0  0  0  0
  2 14  1  0  0  0  0
  3 15  1  0  0  0  0
  3 16  1  0  0  0  0
  4 17  1  0  0  0  0
  4 18  1  0  0  0  0
  5 19  1  0  0  0  0
  5 20  1  0  0  0  0
  6 21  1  0  0  0  0
  7 22  1  0  0  0  0
  8 23  1  0  0  0  0
 10 24  1  0  0  0  0
 10 25  1  0  0  0  0
 10 26  1  0  0  0  0
 11 27  1  0  0  0  0
M  END
> <id>
EN300-297625

> <smiles>
CC12C3CCC(C3)C2CNC1=O

> <MDLNUMBER>
MFCD30180889

> <IUPAC Name>
2-methyl-4-azatricyclo[5.2.1.0,2,6]decan-3-one

> <CAS>
1936131-75-7

> <URL>
https://www.enaminestore.com/catalog/EN300-297625

> <ROCS_ShapeQuery>
_x1247relevant_x1083L0AP1_x1305L0BP1_

> <ROCS_TanimotoCombo>
1.016 

> <ROCS_ShapeTanimoto>
0.485 

> <ROCS_ColorTanimoto>
0.532 

> <ROCS_RefTversky>
0.413 

> <ROCS_RefColorTversky>
0.687 

> <ROCS_RefTverskyCombo>
1.100 

> <ROCS_FitTversky>
1.560 

> <ROCS_FitColorTversky>
0.702 

> <ROCS_FitTverskyCombo>
2.262 

> <ROCS_ColorScore>
-6.630

> <ROCS_Overlap>
1015.917

> <ROCS_Rank>
403                 

$$$$
untitled-dbase-21475_0
  -OEChem-06232314403D

 23 25  0     0  0  0  0  0  0999 V2000
   -8.9406   14.8227  -37.0583 C   0  0  0  0  0  0  0  0  0  0  0  0
   -9.5860   14.2286  -35.9697 C   0  0  0  0  0  0  0  0  0  0  0  0
   -9.6777   15.3227  -38.1374 C   0  0  0  0  0  0  0  0  0  0  0  0
  -10.9741   14.1279  -35.9474 C   0  0  0  0  0  0  0  0  0  0  0  0
  -11.0722   15.2363  -38.1443 C   0  0  0  0  0  0  0  0  0  0  0  0
  -11.6930   14.6288  -37.0259 C   0  0  0  0  0  0  0  0  0  0  0  0
  -13.2862   16.5281  -38.6435 C   0  0  0  0  0  0  0  0  0  0  0  0
  -13.1651   14.6547  -39.5937 C   0  0  0  0  0  0  0  0  0  0  0  0
  -13.7601   15.0927  -38.2034 C   0  0  0  0  0  0  0  0  0  0  0  0
  -12.0821   15.7212  -39.2288 C   0  0  0  0  0  0  0  0  0  0  0  0
  -11.5558   16.3577  -40.4207 N   0  0  0  0  0  0  0  0  0  0  0  0
  -13.0844   14.5365  -37.0208 O   0  0  0  0  0  0  0  0  0  0  0  0
   -7.8564   14.8970  -37.0668 H   0  0  0  0  0  0  0  0  0  0  0  0
   -9.0010   13.8450  -35.1387 H   0  0  0  0  0  0  0  0  0  0  0  0
   -9.1526   15.7797  -38.9714 H   0  0  0  0  0  0  0  0  0  0  0  0
  -11.4779   13.6676  -35.1038 H   0  0  0  0  0  0  0  0  0  0  0  0
  -13.9485   17.0277  -39.3614 H   0  0  0  0  0  0  0  0  0  0  0  0
  -13.0572   17.2247  -37.8313 H   0  0  0  0  0  0  0  0  0  0  0  0
  -12.8241   13.6172  -39.6608 H   0  0  0  0  0  0  0  0  0  0  0  0
  -13.8101   14.8711  -40.4543 H   0  0  0  0  0  0  0  0  0  0  0  0
  -14.8433   14.9747  -38.1088 H   0  0  0  0  0  0  0  0  0  0  0  0
  -11.0465   17.1702  -40.1524 H   0  0  0  0  0  0  0  0  0  0  0  0
  -10.9555   15.7154  -40.8884 H   0  0  0  0  0  0  0  0  0  0  0  0
  1  2  2  0  0  0  0
  1  3  1  0  0  0  0
  2  4  1  0  0  0  0
  3  5  2  0  0  0  0
  4  6  2  0  0  0  0
  5  6  1  0  0  0  0
  5 10  1  0  0  0  0
  6 12  1  0  0  0  0
  7  9  1  0  0  0  0
  7 10  1  0  0  0  0
  8  9  1  0  0  0  0
  8 10  1  0  0  0  0
  9 12  1  0  0  0  0
 10 11  1  0  0  0  0
  1 13  1  0  0  0  0
  2 14  1  0  0  0  0
  3 15  1  0  0  0  0
  4 16  1  0  0  0  0
  7 17  1  0  0  0  0
  7 18  1  0  0  0  0
  8 19  1  0  0  0  0
  8 20  1  0  0  0  0
  9 21  1  0  0  0  0
 11 22  1  0  0  0  0
 11 23  1  0  0  0  0
M  END
> <id>
EN300-37299474

> <smiles>
Cl.NC1(CC2C1)C=3C=CC=CC3O2

> <MDLNUMBER>
MFCD34594575

> <IUPAC Name>
8-oxatricyclo[7.1.1.0,2,7]undeca-2,4,6-trien-1-amine hydrochloride

> <CAS>
2751611-00-2

> <Purity>
95

> <URL>
https://www.enaminestore.com/catalog/EN300-37299474

> <ROCS_ShapeQuery>
_x1247relevant_x1083L0AP1_x1305L0BP1_

> <ROCS_TanimotoCombo>
1.016 

> <ROCS_ShapeTanimoto>
0.511 

> <ROCS_ColorTanimoto>
0.505 

> <ROCS_RefTversky>
0.428 

> <ROCS_RefColorTversky>
0.684 

> <ROCS_RefTverskyCombo>
1.111 

> <ROCS_FitTversky>
1.616 

> <ROCS_FitColorTversky>
0.659 

> <ROCS_FitTverskyCombo>
2.276 

> <ROCS_ColorScore>
-6.621

> <ROCS_Overlap>
1052.405

> <ROCS_Rank>
404                 

$$$$
untitled-dbase-21476_0
  -OEChem-06232314403D

 23 25  0     0  0  0  0  0  0999 V2000
   -8.9406   14.8227  -37.0583 C   0  0  0  0  0  0  0  0  0  0  0  0
   -9.5860   14.2286  -35.9697 C   0  0  0  0  0  0  0  0  0  0  0  0
   -9.6777   15.3227  -38.1374 C   0  0  0  0  0  0  0  0  0  0  0  0
  -10.9741   14.1279  -35.9474 C   0  0  0  0  0  0  0  0  0  0  0  0
  -11.0722   15.2363  -38.1443 C   0  0  0  0  0  0  0  0  0  0  0  0
  -11.6930   14.6288  -37.0259 C   0  0  0  0  0  0  0  0  0  0  0  0
  -13.2862   16.5281  -38.6435 C   0  0  0  0  0  0  0  0  0  0  0  0
  -13.1651   14.6547  -39.5937 C   0  0  0  0  0  0  0  0  0  0  0  0
  -13.7601   15.0927  -38.2034 C   0  0  0  0  0  0  0  0  0  0  0  0
  -12.0821   15.7212  -39.2288 C   0  0  0  0  0  0  0  0  0  0  0  0
  -11.5558   16.3577  -40.4207 N   0  0  0  0  0  0  0  0  0  0  0  0
  -13.0844   14.5365  -37.0208 O   0  0  0  0  0  0  0  0  0  0  0  0
   -7.8564   14.8970  -37.0668 H   0  0  0  0  0  0  0  0  0  0  0  0
   -9.0010   13.8450  -35.1387 H   0  0  0  0  0  0  0  0  0  0  0  0
   -9.1526   15.7797  -38.9714 H   0  0  0  0  0  0  0  0  0  0  0  0
  -11.4779   13.6676  -35.1038 H   0  0  0  0  0  0  0  0  0  0  0  0
  -13.9485   17.0277  -39.3614 H   0  0  0  0  0  0  0  0  0  0  0  0
  -13.0572   17.2247  -37.8313 H   0  0  0  0  0  0  0  0  0  0  0  0
  -12.8241   13.6172  -39.6608 H   0  0  0  0  0  0  0  0  0  0  0  0
  -13.8101   14.8711  -40.4543 H   0  0  0  0  0  0  0  0  0  0  0  0
  -14.8433   14.9747  -38.1088 H   0  0  0  0  0  0  0  0  0  0  0  0
  -11.0465   17.1702  -40.1524 H   0  0  0  0  0  0  0  0  0  0  0  0
  -10.9555   15.7154  -40.8884 H   0  0  0  0  0  0  0  0  0  0  0  0
  1  2  2  0  0  0  0
  1  3  1  0  0  0  0
  2  4  1  0  0  0  0
  3  5  2  0  0  0  0
  4  6  2  0  0  0  0
  5  6  1  0  0  0  0
  5 10  1  0  0  0  0
  6 12  1  0  0  0  0
  7  9  1  0  0  0  0
  7 10  1  0  0  0  0
  8  9  1  0  0  0  0
  8 10  1  0  0  0  0
  9 12  1  0  0  0  0
 10 11  1  0  0  0  0
  1 13  1  0  0  0  0
  2 14  1  0  0  0  0
  3 15  1  0  0  0  0
  4 16  1  0  0  0  0
  7 17  1  0  0  0  0
  7 18  1  0  0  0  0
  8 19  1  0  0  0  0
  8 20  1  0  0  0  0
  9 21  1  0  0  0  0
 11 22  1  0  0  0  0
 11 23  1  0  0  0  0
M  END
> <id>
EN300-37299475

> <smiles>
NC1(CC2C1)C=3C=CC=CC3O2

> <MDLNUMBER>
MFCD34594576

> <IUPAC Name>
8-oxatricyclo[7.1.1.0,2,7]undeca-2,4,6-trien-1-amine

> <CAS>
2751610-99-6

> <URL>
https://www.enaminestore.com/catalog/EN300-37299475

> <ROCS_ShapeQuery>
_x1247relevant_x1083L0AP1_x1305L0BP1_

> <ROCS_TanimotoCombo>
1.016 

> <ROCS_ShapeTanimoto>
0.511 

> <ROCS_ColorTanimoto>
0.505 

> <ROCS_RefTversky>
0.428 

> <ROCS_RefColorTversky>
0.684 

> <ROCS_RefTverskyCombo>
1.111 

> <ROCS_FitTversky>
1.616 

> <ROCS_FitColorTversky>
0.659 

> <ROCS_FitTverskyCombo>
2.276 

> <ROCS_ColorScore>
-6.621

> <ROCS_Overlap>
1052.405

> <ROCS_Rank>
405                 

$$$$
untitled-dbase-31757_0
  -OEChem-06232314403D

 26 27  0     0  0  0  0  0  0999 V2000
   -9.7716   13.9577  -35.7926 C   0  0  0  0  0  0  0  0  0  0  0  0
  -10.6163   14.3419  -36.5541 C   0  0  0  0  0  0  0  0  0  0  0  0
  -12.6233   15.7803  -36.7781 C   0  0  0  0  0  0  0  0  0  0  0  0
  -12.4686   13.6236  -38.0378 C   0  0  0  0  0  0  0  0  0  0  0  0
  -11.0122   15.5547  -38.6797 C   0  0  0  0  0  0  0  0  0  0  0  0
  -13.7053   16.2720  -37.7516 C   0  0  0  0  0  0  0  0  0  0  0  0
  -13.5503   14.1142  -39.0120 C   0  0  0  0  0  0  0  0  0  0  0  0
  -12.0926   16.0467  -39.6546 C   0  0  0  0  0  0  0  0  0  0  0  0
  -11.6528   14.8126  -37.4878 C   0  0  0  0  0  0  0  0  0  0  0  0
  -13.4945   15.6494  -39.1466 C   0  0  0  0  0  0  0  0  0  0  0  0
  -14.5186   16.1273  -40.0711 N   0  0  0  0  0  0  0  0  0  0  0  0
   -9.0220   13.6171  -35.1172 H   0  0  0  0  0  0  0  0  0  0  0  0
  -12.0803   16.6427  -36.3689 H   0  0  0  0  0  0  0  0  0  0  0  0
  -13.0999   15.2898  -35.9186 H   0  0  0  0  0  0  0  0  0  0  0  0
  -12.9406   13.0656  -37.2183 H   0  0  0  0  0  0  0  0  0  0  0  0
  -11.8123   12.9076  -38.5503 H   0  0  0  0  0  0  0  0  0  0  0  0
  -10.3103   14.8989  -39.2121 H   0  0  0  0  0  0  0  0  0  0  0  0
  -10.4185   16.4098  -38.3300 H   0  0  0  0  0  0  0  0  0  0  0  0
  -14.6954   16.0118  -37.3551 H   0  0  0  0  0  0  0  0  0  0  0  0
  -13.6730   17.3680  -37.8072 H   0  0  0  0  0  0  0  0  0  0  0  0
  -13.4048   13.6332  -39.9879 H   0  0  0  0  0  0  0  0  0  0  0  0
  -14.5360   13.7915  -38.6523 H   0  0  0  0  0  0  0  0  0  0  0  0
  -12.0145   17.1360  -39.7641 H   0  0  0  0  0  0  0  0  0  0  0  0
  -11.9047   15.6215  -40.6490 H   0  0  0  0  0  0  0  0  0  0  0  0
  -15.4066   15.8619  -39.7157 H   0  0  0  0  0  0  0  0  0  0  0  0
  -14.4460   17.1155  -40.1308 H   0  0  0  0  0  0  0  0  0  0  0  0
  1  2  3  0  0  0  0
  2  9  1  0  0  0  0
  3  6  1  0  0  0  0
  3  9  1  0  0  0  0
  4  7  1  0  0  0  0
  4  9  1  0  0  0  0
  5  8  1  0  0  0  0
  5  9  1  0  0  0  0
  6 10  1  0  0  0  0
  7 10  1  0  0  0  0
  8 10  1  0  0  0  0
 10 11  1  0  0  0  0
  1 12  1  0  0  0  0
  3 13  1  0  0  0  0
  3 14  1  0  0  0  0
  4 15  1  0  0  0  0
  4 16  1  0  0  0  0
  5 17  1  0  0  0  0
  5 18  1  0  0  0  0
  6 19  1  0  0  0  0
  6 20  1  0  0  0  0
  7 21  1  0  0  0  0
  7 22  1  0  0  0  0
  8 23  1  0  0  0  0
  8 24  1  0  0  0  0
 11 25  1  0  0  0  0
 11 26  1  0  0  0  0
M  END
> <id>
EN300-383894

> <smiles>
NC1(CCC2(CC1)C#C)CC2

> <IUPAC Name>
4-ethynylbicyclo[2.2.2]octan-1-amine

> <CAS>
2167024-13-5

> <URL>
https://www.enaminestore.com/catalog/EN300-383894

> <ROCS_ShapeQuery>
_x1247relevant_x1083L0AP1_x1305L0BP1_

> <ROCS_TanimotoCombo>
1.016 

> <ROCS_ShapeTanimoto>
0.475 

> <ROCS_ColorTanimoto>
0.541 

> <ROCS_RefTversky>
0.398 

> <ROCS_RefColorTversky>
0.680 

> <ROCS_RefTverskyCombo>
1.078 

> <ROCS_FitTversky>
1.687 

> <ROCS_FitColorTversky>
0.726 

> <ROCS_FitTverskyCombo>
2.413 

> <ROCS_ColorScore>
-6.551

> <ROCS_Overlap>
977.550

> <ROCS_Rank>
406                 

$$$$
untitled-dbase-19141_0
  -OEChem-06232314403D

 22 24  0     1  0  0  0  0  0999 V2000
   -9.1230   15.4400  -37.3804 C   0  0  0  0  0  0  0  0  0  0  0  0
  -10.1481   16.1905  -37.9628 C   0  0  0  0  0  0  0  0  0  0  0  0
   -9.3818   14.1717  -36.8399 C   0  0  0  0  0  0  0  0  0  0  0  0
  -11.4311   15.6622  -37.9988 C   0  0  0  0  0  0  0  0  0  0  0  0
  -11.6785   14.3866  -37.4531 C   0  0  0  0  0  0  0  0  0  0  0  0
  -10.6689   13.6344  -36.8740 C   0  0  0  0  0  0  0  0  0  0  0  0
  -13.1304   13.9983  -37.6046 C   0  0  0  0  0  0  0  0  0  0  0  0
  -12.6868   16.2549  -38.5575 C   0  0  2  0  0  0  0  0  0  0  0  0
  -13.7570   15.2057  -38.2861 C   0  0  1  0  0  0  0  0  0  0  0  0
  -13.4101   15.5883  -39.7040 C   0  0  1  0  0  0  0  0  0  0  0  0
  -14.3639   16.3557  -40.5134 N   0  0  0  0  0  0  0  0  0  0  0  0
  -10.9657   12.0771  -36.2095 Cl  0  0  0  0  0  0  0  0  0  0  0  0
   -8.1145   15.8432  -37.3455 H   0  0  0  0  0  0  0  0  0  0  0  0
   -9.9392   17.1709  -38.3791 H   0  0  0  0  0  0  0  0  0  0  0  0
   -8.5606   13.6151  -36.3944 H   0  0  0  0  0  0  0  0  0  0  0  0
  -13.2414   13.1048  -38.2264 H   0  0  0  0  0  0  0  0  0  0  0  0
  -13.5885   13.8400  -36.6232 H   0  0  0  0  0  0  0  0  0  0  0  0
  -12.9303   17.2842  -38.3187 H   0  0  0  0  0  0  0  0  0  0  0  0
  -14.7018   15.5150  -37.8618 H   0  0  0  0  0  0  0  0  0  0  0  0
  -12.8509   14.8640  -40.2886 H   0  0  0  0  0  0  0  0  0  0  0  0
  -13.8516   16.8375  -41.2106 H   0  0  0  0  0  0  0  0  0  0  0  0
  -15.0012   15.7152  -40.9188 H   0  0  0  0  0  0  0  0  0  0  0  0
  1  2  2  0  0  0  0
  1  3  1  0  0  0  0
  2  4  1  0  0  0  0
  3  6  2  0  0  0  0
  4  5  2  0  0  0  0
  4  8  1  0  0  0  0
  5  6  1  0  0  0  0
  5  7  1  0  0  0  0
  6 12  1  0  0  0  0
  7  9  1  0  0  0  0
  8  9  1  0  0  0  0
  8 10  1  0  0  0  0
  9 10  1  0  0  0  0
 10 11  1  0  0  0  0
  1 13  1  0  0  0  0
  2 14  1  0  0  0  0
  3 15  1  0  0  0  0
  7 16  1  0  0  0  0
  7 17  1  0  0  0  0
  8 18  1  0  0  0  0
  9 19  1  0  0  0  0
 10 20  1  0  0  0  0
 11 21  1  0  0  0  0
 11 22  1  0  0  0  0
M  END
> <id>
EN300-315322

> <smiles>
Cl.NC1C2CC=3C(=CC=CC3Cl)C12

> <MDLNUMBER>
MFCD30497580

> <IUPAC Name>
5-chloro-1H,1aH,6H,6aH-cyclopropa[a]inden-1-amine hydrochloride

> <CAS>
2060057-38-5

> <Purity>
95

> <URL>
https://www.enaminestore.com/catalog/EN300-315322

> <Saltdate>
Cl

> <ROCS_ShapeQuery>
_x1247relevant_x1083L0AP1_x1305L0BP1_

> <ROCS_TanimotoCombo>
1.016 

> <ROCS_ShapeTanimoto>
0.489 

> <ROCS_ColorTanimoto>
0.527 

> <ROCS_RefTversky>
0.413 

> <ROCS_RefColorTversky>
0.597 

> <ROCS_RefTverskyCombo>
1.010 

> <ROCS_FitTversky>
1.604 

> <ROCS_FitColorTversky>
0.818 

> <ROCS_FitTverskyCombo>
2.422 

> <ROCS_ColorScore>
-5.689

> <ROCS_Overlap>
1015.156

> <ROCS_Rank>
407                 

$$$$
untitled-dbase-13748_1
  -OEChem-06232314403D

 21 22  0     1  0  0  0  0  0999 V2000
  -15.2236   14.1024  -40.5410 C   0  0  0  0  0  0  0  0  0  0  0  0
  -14.7341   14.7068  -39.6267 C   0  0  0  0  0  0  0  0  0  0  0  0
  -12.2945   13.8998  -37.6454 C   0  0  0  0  0  0  0  0  0  0  0  0
  -13.6619   14.5254  -37.3795 C   0  0  0  0  0  0  0  0  0  0  0  0
  -11.2247   14.9809  -37.7753 C   0  0  0  0  0  0  0  0  0  0  0  0
  -12.0385   15.7641  -40.1202 C   0  0  0  0  0  0  0  0  0  0  0  0
  -14.1349   15.4466  -38.5066 C   0  0  1  0  0  0  0  0  0  0  0  0
  -11.6054   16.0790  -38.7187 C   0  0  1  0  0  0  0  0  0  0  0  0
  -13.0492   16.2910  -39.1170 C   0  0  1  0  0  0  0  0  0  0  0  0
  -15.6578   13.5664  -41.3524 H   0  0  0  0  0  0  0  0  0  0  0  0
  -12.0369   13.2211  -36.8263 H   0  0  0  0  0  0  0  0  0  0  0  0
  -12.3265   13.3066  -38.5629 H   0  0  0  0  0  0  0  0  0  0  0  0
  -14.4009   13.7173  -37.1920 H   0  0  0  0  0  0  0  0  0  0  0  0
  -13.6276   15.0981  -36.4296 H   0  0  0  0  0  0  0  0  0  0  0  0
  -11.0274   15.4055  -36.7812 H   0  0  0  0  0  0  0  0  0  0  0  0
  -10.2789   14.5248  -38.1023 H   0  0  0  0  0  0  0  0  0  0  0  0
  -11.7230   16.4376  -40.9078 H   0  0  0  0  0  0  0  0  0  0  0  0
  -12.1089   14.7294  -40.4299 H   0  0  0  0  0  0  0  0  0  0  0  0
  -14.8986   16.1363  -38.0875 H   0  0  0  0  0  0  0  0  0  0  0  0
  -10.9913   16.9725  -38.5739 H   0  0  0  0  0  0  0  0  0  0  0  0
  -13.3682   17.3227  -39.2542 H   0  0  0  0  0  0  0  0  0  0  0  0
  1  2  3  0  0  0  0
  2  7  1  0  0  0  0
  3  4  1  0  0  0  0
  3  5  1  0  0  0  0
  4  7  1  0  0  0  0
  5  8  1  0  0  0  0
  6  8  1  0  0  0  0
  6  9  1  0  0  0  0
  7  9  1  0  0  0  0
  8  9  1  0  0  0  0
  1 10  1  0  0  0  0
  3 11  1  0  0  0  0
  3 12  1  0  0  0  0
  4 13  1  0  0  0  0
  4 14  1  0  0  0  0
  5 15  1  0  0  0  0
  5 16  1  0  0  0  0
  6 17  1  0  0  0  0
  6 18  1  0  0  0  0
  7 19  1  0  0  0  0
  8 20  1  0  0  0  0
  9 21  1  0  0  0  0
M  END
> <id>
EN300-787725

> <smiles>
C#CC1CCCC2CC21

> <MDLNUMBER>
MFCD31463927

> <IUPAC Name>
2-ethynylbicyclo[4.1.0]heptane

> <CAS>
2138312-94-2

> <Purity>
95

> <URL>
https://www.enaminestore.com/catalog/EN300-787725

> <ROCS_ShapeQuery>
_x1247relevant_x1083L0AP1_x1305L0BP1_

> <ROCS_TanimotoCombo>
1.016 

> <ROCS_ShapeTanimoto>
0.407 

> <ROCS_ColorTanimoto>
0.609 

> <ROCS_RefTversky>
0.347 

> <ROCS_RefColorTversky>
0.582 

> <ROCS_RefTverskyCombo>
0.929 

> <ROCS_FitTversky>
1.749 

> <ROCS_FitColorTversky>
1.082 

> <ROCS_FitTverskyCombo>
2.831 

> <ROCS_ColorScore>
-5.483

> <ROCS_Overlap>
849.998

> <ROCS_Rank>
408                 

$$$$
untitled-dbase-51604_0
  -OEChem-06232314403D

 22 23  0     0  0  0  0  0  0999 V2000
  -14.2707   15.0641  -37.7715 C   0  0  0  0  0  0  0  0  0  0  0  0
  -13.1119   14.2555  -37.1764 C   0  0  0  0  0  0  0  0  0  0  0  0
  -13.9708   15.5883  -39.1799 C   0  0  0  0  0  0  0  0  0  0  0  0
  -11.7749   16.3415  -37.9914 C   0  0  0  0  0  0  0  0  0  0  0  0
  -11.6075   14.6159  -39.2054 C   0  0  0  0  0  0  0  0  0  0  0  0
  -11.7577   14.8076  -37.6620 C   0  0  0  0  0  0  0  0  0  0  0  0
  -12.4793   15.9016  -39.3142 C   0  0  0  0  0  0  0  0  0  0  0  0
  -10.5866   14.3123  -36.8339 C   0  0  0  0  0  0  0  0  0  0  0  0
  -10.5100   12.9704  -36.8841 F   0  0  0  0  0  0  0  0  0  0  0  0
   -9.4328   14.8233  -37.2994 F   0  0  0  0  0  0  0  0  0  0  0  0
  -10.7300   14.6836  -35.5490 F   0  0  0  0  0  0  0  0  0  0  0  0
  -11.9552   17.2302  -41.1795 I   0  0  0  0  0  0  0  0  0  0  0  0
  -15.1983   14.4814  -37.7619 H   0  0  0  0  0  0  0  0  0  0  0  0
  -14.4537   15.9284  -37.1191 H   0  0  0  0  0  0  0  0  0  0  0  0
  -13.1786   14.2970  -36.0828 H   0  0  0  0  0  0  0  0  0  0  0  0
  -13.2062   13.2008  -37.4624 H   0  0  0  0  0  0  0  0  0  0  0  0
  -14.2667   14.8439  -39.9285 H   0  0  0  0  0  0  0  0  0  0  0  0
  -14.5769   16.4837  -39.3596 H   0  0  0  0  0  0  0  0  0  0  0  0
  -12.3455   16.9841  -37.3150 H   0  0  0  0  0  0  0  0  0  0  0  0
  -10.7813   16.7884  -38.1242 H   0  0  0  0  0  0  0  0  0  0  0  0
  -10.5813   14.7186  -39.5805 H   0  0  0  0  0  0  0  0  0  0  0  0
  -12.0308   13.6987  -39.6268 H   0  0  0  0  0  0  0  0  0  0  0  0
  1  2  1  0  0  0  0
  1  3  1  0  0  0  0
  2  6  1  0  0  0  0
  3  7  1  0  0  0  0
  4  6  1  0  0  0  0
  4  7  1  0  0  0  0
  5  6  1  0  0  0  0
  5  7  1  0  0  0  0
  6  8  1  1  0  0  0
  7 12  1  1  0  0  0
  8  9  1  0  0  0  0
  8 10  1  0  0  0  0
  8 11  1  0  0  0  0
  1 13  1  0  0  0  0
  1 14  1  0  0  0  0
  2 15  1  0  0  0  0
  2 16  1  0  0  0  0
  3 17  1  0  0  0  0
  3 18  1  0  0  0  0
  4 19  1  0  0  0  0
  4 20  1  0  0  0  0
  5 21  1  0  0  0  0
  5 22  1  0  0  0  0
M  END
> <id>
EN300-43348402

> <smiles>
FC(F)(F)[C@]1(C[C@@]2(I)C1)CCC2

> <IUPAC Name>
1-iodo-5-(trifluoromethyl)bicyclo[3.1.1]heptane

> <URL>
https://www.enaminestore.com/catalog/EN300-43348402

> <ROCS_ShapeQuery>
_x1247relevant_x1083L0AP1_x1305L0BP1_

> <ROCS_TanimotoCombo>
1.016 

> <ROCS_ShapeTanimoto>
0.491 

> <ROCS_ColorTanimoto>
0.524 

> <ROCS_RefTversky>
0.412 

> <ROCS_RefColorTversky>
0.604 

> <ROCS_RefTverskyCombo>
1.016 

> <ROCS_FitTversky>
1.641 

> <ROCS_FitColorTversky>
0.798 

> <ROCS_FitTverskyCombo>
2.439 

> <ROCS_ColorScore>
-5.762

> <ROCS_Overlap>
1013.983

> <ROCS_Rank>
409                 

$$$$
untitled-dbase-51341_0
  -OEChem-06232314403D

 22 23  0     0  0  0  0  0  0999 V2000
  -14.2705   15.0641  -37.7713 C   0  0  0  0  0  0  0  0  0  0  0  0
  -13.1118   14.2548  -37.1770 C   0  0  0  0  0  0  0  0  0  0  0  0
  -13.9709   15.5888  -39.1796 C   0  0  0  0  0  0  0  0  0  0  0  0
  -11.6074   14.6162  -39.2056 C   0  0  0  0  0  0  0  0  0  0  0  0
  -11.7749   16.3415  -37.9912 C   0  0  0  0  0  0  0  0  0  0  0  0
  -11.7577   14.8073  -37.6622 C   0  0  0  0  0  0  0  0  0  0  0  0
  -12.4793   15.9019  -39.3140 C   0  0  0  0  0  0  0  0  0  0  0  0
  -10.5867   14.3119  -36.8340 C   0  0  0  0  0  0  0  0  0  0  0  0
  -10.5100   12.9700  -36.8850 F   0  0  0  0  0  0  0  0  0  0  0  0
   -9.4330   14.8234  -37.2991 F   0  0  0  0  0  0  0  0  0  0  0  0
  -10.7305   14.6825  -35.5491 F   0  0  0  0  0  0  0  0  0  0  0  0
  -11.9555   17.2312  -41.1790 I   0  0  0  0  0  0  0  0  0  0  0  0
  -15.1984   14.4816  -37.7616 H   0  0  0  0  0  0  0  0  0  0  0  0
  -14.4531   15.9280  -37.1182 H   0  0  0  0  0  0  0  0  0  0  0  0
  -13.1786   14.2952  -36.0833 H   0  0  0  0  0  0  0  0  0  0  0  0
  -13.2063   13.2003  -37.4640 H   0  0  0  0  0  0  0  0  0  0  0  0
  -14.2670   14.8446  -39.9284 H   0  0  0  0  0  0  0  0  0  0  0  0
  -14.5769   16.4842  -39.3588 H   0  0  0  0  0  0  0  0  0  0  0  0
  -10.5811   14.7193  -39.5806 H   0  0  0  0  0  0  0  0  0  0  0  0
  -12.0307   13.6992  -39.6274 H   0  0  0  0  0  0  0  0  0  0  0  0
  -12.3454   16.9839  -37.3146 H   0  0  0  0  0  0  0  0  0  0  0  0
  -10.7813   16.7884  -38.1239 H   0  0  0  0  0  0  0  0  0  0  0  0
  1  2  1  0  0  0  0
  1  3  1  0  0  0  0
  2  6  1  0  0  0  0
  3  7  1  0  0  0  0
  4  6  1  0  0  0  0
  4  7  1  0  0  0  0
  5  6  1  0  0  0  0
  5  7  1  0  0  0  0
  6  8  1  0  0  0  0
  7 12  1  0  0  0  0
  8  9  1  0  0  0  0
  8 10  1  0  0  0  0
  8 11  1  0  0  0  0
  1 13  1  0  0  0  0
  1 14  1  0  0  0  0
  2 15  1  0  0  0  0
  2 16  1  0  0  0  0
  3 17  1  0  0  0  0
  3 18  1  0  0  0  0
  4 19  1  0  0  0  0
  4 20  1  0  0  0  0
  5 21  1  0  0  0  0
  5 22  1  0  0  0  0
M  END
> <id>
EN300-39850951

> <smiles>
FC(F)(F)C1(CC2(I)C1)CCC2

> <IUPAC Name>
1-iodo-5-(trifluoromethyl)bicyclo[3.1.1]heptane

> <CAS>
2797179-29-2

> <Purity>
95

> <URL>
https://www.enaminestore.com/catalog/EN300-39850951

> <ROCS_ShapeQuery>
_x1247relevant_x1083L0AP1_x1305L0BP1_

> <ROCS_TanimotoCombo>
1.016 

> <ROCS_ShapeTanimoto>
0.491 

> <ROCS_ColorTanimoto>
0.524 

> <ROCS_RefTversky>
0.412 

> <ROCS_RefColorTversky>
0.604 

> <ROCS_RefTverskyCombo>
1.016 

> <ROCS_FitTversky>
1.641 

> <ROCS_FitColorTversky>
0.798 

> <ROCS_FitTverskyCombo>
2.439 

> <ROCS_ColorScore>
-5.762

> <ROCS_Overlap>
1013.969

> <ROCS_Rank>
410                 

$$$$
untitled-dbase-7128_0
  -OEChem-06232314403D

 32 33  0     1  0  0  0  0  0999 V2000
  -11.3507   14.6035  -37.5608 C   0  0  0  0  0  0  0  0  0  0  0  0
  -12.6423   13.7854  -37.6662 C   0  0  0  0  0  0  0  0  0  0  0  0
  -13.1719   16.0941  -37.4722 C   0  0  0  0  0  0  0  0  0  0  0  0
  -11.7713   15.9853  -38.0904 C   0  0  2  0  0  0  0  0  0  0  0  0
  -13.6808   14.8199  -38.1664 C   0  0  1  0  0  0  0  0  0  0  0  0
  -12.0667   15.9579  -39.6309 C   0  0  0  0  0  0  0  0  0  0  0  0
  -13.4467   15.1827  -39.6770 C   0  0  1  0  0  0  0  0  0  0  0  0
  -15.1069   14.4469  -37.7941 C   0  0  0  0  0  0  0  0  0  0  0  0
  -12.1693   17.4146  -40.1426 C   0  0  0  0  0  0  0  0  0  0  0  0
  -10.9330   15.2965  -40.4350 C   0  0  0  0  0  0  0  0  0  0  0  0
  -13.5318   13.9896  -40.6318 C   0  0  0  0  0  0  0  0  0  0  0  0
  -14.5048   16.0721  -40.0718 O   0  0  0  0  0  0  0  0  0  0  0  0
  -11.0499   14.6803  -36.5084 H   0  0  0  0  0  0  0  0  0  0  0  0
  -10.5142   14.1479  -38.0943 H   0  0  0  0  0  0  0  0  0  0  0  0
  -12.5310   12.9211  -38.3247 H   0  0  0  0  0  0  0  0  0  0  0  0
  -12.9098   13.3995  -36.6748 H   0  0  0  0  0  0  0  0  0  0  0  0
  -13.1642   16.0170  -36.3785 H   0  0  0  0  0  0  0  0  0  0  0  0
  -13.7166   17.0003  -37.7524 H   0  0  0  0  0  0  0  0  0  0  0  0
  -11.0820   16.7781  -37.7878 H   0  0  0  0  0  0  0  0  0  0  0  0
  -15.8021   15.2014  -38.1655 H   0  0  0  0  0  0  0  0  0  0  0  0
  -15.2073   14.3804  -36.7097 H   0  0  0  0  0  0  0  0  0  0  0  0
  -15.3694   13.4820  -38.2310 H   0  0  0  0  0  0  0  0  0  0  0  0
  -12.3731   17.3978  -41.2052 H   0  0  0  0  0  0  0  0  0  0  0  0
  -11.2310   17.9185  -39.9516 H   0  0  0  0  0  0  0  0  0  0  0  0
  -12.9734   17.9132  -39.6172 H   0  0  0  0  0  0  0  0  0  0  0  0
  -11.1902   15.3056  -41.4888 H   0  0  0  0  0  0  0  0  0  0  0  0
  -10.8061   14.2733  -40.0981 H   0  0  0  0  0  0  0  0  0  0  0  0
  -10.0136   15.8504  -40.2779 H   0  0  0  0  0  0  0  0  0  0  0  0
  -13.3590   14.3244  -41.6522 H   0  0  0  0  0  0  0  0  0  0  0  0
  -14.5185   13.5369  -40.5647 H   0  0  0  0  0  0  0  0  0  0  0  0
  -12.7789   13.2518  -40.3635 H   0  0  0  0  0  0  0  0  0  0  0  0
  -14.3409   16.2811  -41.0009 H   0  0  0  0  0  0  0  0  0  0  0  0
  1  2  1  0  0  0  0
  1  4  1  0  0  0  0
  2  5  1  0  0  0  0
  3  4  1  0  0  0  0
  3  5  1  0  0  0  0
  4  6  1  0  0  0  0
  5  7  1  0  0  0  0
  5  8  1  0  0  0  0
  6  7  1  0  0  0  0
  6  9  1  0  0  0  0
  6 10  1  0  0  0  0
  7 11  1  0  0  0  0
  7 12  1  0  0  0  0
  1 13  1  0  0  0  0
  1 14  1  0  0  0  0
  2 15  1  0  0  0  0
  2 16  1  0  0  0  0
  3 17  1  0  0  0  0
  3 18  1  0  0  0  0
  4 19  1  0  0  0  0
  8 20  1  0  0  0  0
  8 21  1  0  0  0  0
  8 22  1  0  0  0  0
  9 23  1  0  0  0  0
  9 24  1  0  0  0  0
  9 25  1  0  0  0  0
 10 26  1  0  0  0  0
 10 27  1  0  0  0  0
 10 28  1  0  0  0  0
 11 29  1  0  0  0  0
 11 30  1  0  0  0  0
 11 31  1  0  0  0  0
 12 32  1  0  0  0  0
M  END
> <id>
EN300-247580

> <smiles>
CC1(C)C2CCC(C)(C2)C1(C)O

> <MDLNUMBER>
MFCD24199105

> <IUPAC Name>
1,2,3,3-tetramethylbicyclo[2.2.1]heptan-2-ol

> <CAS>
77942-95-1

> <URL>
https://www.enaminestore.com/catalog/EN300-247580

> <ROCS_ShapeQuery>
_x1247relevant_x1083L0AP1_x1305L0BP1_

> <ROCS_TanimotoCombo>
1.016 

> <ROCS_ShapeTanimoto>
0.468 

> <ROCS_ColorTanimoto>
0.547 

> <ROCS_RefTversky>
0.400 

> <ROCS_RefColorTversky>
0.694 

> <ROCS_RefTverskyCombo>
1.094 

> <ROCS_FitTversky>
1.574 

> <ROCS_FitColorTversky>
0.722 

> <ROCS_FitTverskyCombo>
2.296 

> <ROCS_ColorScore>
-6.692

> <ROCS_Overlap>
983.408

> <ROCS_Rank>
411                 

$$$$
untitled-dbase-18509_1
  -OEChem-06232314403D

 29 31  0     1  0  0  0  0  0999 V2000
  -10.0676   13.9989  -35.9862 C   0  0  0  0  0  0  0  0  0  0  0  0
  -13.9589   15.4532  -37.3442 C   0  0  0  0  0  0  0  0  0  0  0  0
  -13.7861   14.0646  -38.0022 C   0  0  0  0  0  0  0  0  0  0  0  0
  -11.6560   16.5059  -37.6994 C   0  0  0  0  0  0  0  0  0  0  0  0
  -11.3602   14.1579  -38.8080 C   0  0  0  0  0  0  0  0  0  0  0  0
   -9.4228   15.3121  -37.6245 C   0  0  0  0  0  0  0  0  0  0  0  0
  -13.1302   16.4756  -38.1421 C   0  0  1  0  0  0  0  0  0  0  0  0
  -12.8456   14.2142  -39.2109 C   0  0  2  0  0  0  0  0  0  0  0  0
  -10.9415   15.1318  -37.6661 C   0  0  0  0  0  0  0  0  0  0  0  0
  -11.2146   14.4664  -36.3699 N   0  0  0  0  0  0  0  0  0  0  0  0
   -9.7906   13.2381  -34.8912 N   0  0  0  0  0  0  0  0  0  0  0  0
  -12.1361   16.3704  -40.6175 O   0  0  0  0  0  0  0  0  0  0  0  0
  -14.5963   15.8959  -40.2702 O   0  0  0  0  0  0  0  0  0  0  0  0
   -8.9739   14.2916  -36.7454 O   0  0  0  0  0  0  0  0  0  0  0  0
  -13.2223   15.8533  -39.8142 S   0  0  0  0  0  0  0  0  0  0  0  0
  -15.0201   15.7294  -37.3951 H   0  0  0  0  0  0  0  0  0  0  0  0
  -13.6972   15.4426  -36.2814 H   0  0  0  0  0  0  0  0  0  0  0  0
  -13.4334   13.3118  -37.2904 H   0  0  0  0  0  0  0  0  0  0  0  0
  -14.7697   13.7228  -38.3488 H   0  0  0  0  0  0  0  0  0  0  0  0
  -11.1155   17.1794  -38.3797 H   0  0  0  0  0  0  0  0  0  0  0  0
  -11.6035   16.9813  -36.7089 H   0  0  0  0  0  0  0  0  0  0  0  0
  -11.1165   13.1308  -38.5124 H   0  0  0  0  0  0  0  0  0  0  0  0
  -10.7542   14.3740  -39.6955 H   0  0  0  0  0  0  0  0  0  0  0  0
   -8.9462   15.1515  -38.5987 H   0  0  0  0  0  0  0  0  0  0  0  0
   -9.1126   16.2917  -37.2484 H   0  0  0  0  0  0  0  0  0  0  0  0
  -13.5701   17.4760  -38.1097 H   0  0  0  0  0  0  0  0  0  0  0  0
  -13.0660   13.4866  -39.9967 H   0  0  0  0  0  0  0  0  0  0  0  0
  -10.5384   12.9865  -34.2804 H   0  0  0  0  0  0  0  0  0  0  0  0
   -8.8476   12.9538  -34.7306 H   0  0  0  0  0  0  0  0  0  0  0  0
  1 10  2  0  0  0  0
  1 11  1  0  0  0  0
  1 14  1  0  0  0  0
  2  3  1  0  0  0  0
  2  7  1  0  0  0  0
  3  8  1  0  0  0  0
  4  7  1  0  0  0  0
  4  9  1  0  0  0  0
  5  8  1  0  0  0  0
  5  9  1  0  0  0  0
  6  9  1  0  0  0  0
  6 14  1  0  0  0  0
  7 15  1  0  0  0  0
  8 15  1  0  0  0  0
  9 10  1  0  0  0  0
 12 15  2  0  0  0  0
 13 15  2  0  0  0  0
  2 16  1  0  0  0  0
  2 17  1  0  0  0  0
  3 18  1  0  0  0  0
  3 19  1  0  0  0  0
  4 20  1  0  0  0  0
  4 21  1  0  0  0  0
  5 22  1  0  0  0  0
  5 23  1  0  0  0  0
  6 24  1  0  0  0  0
  6 25  1  0  0  0  0
  7 26  1  0  0  0  0
  8 27  1  0  0  0  0
 11 28  1  0  0  0  0
 11 29  1  0  0  0  0
M  END
> <id>
EN300-1651797

> <smiles>
NC1=NC2(CO1)CC3CCC(C2)S3(=O)=O

> <IUPAC Name>
5'-amino-2'H-8lambda6-thiaspiro[bicyclo[3.2.1]octane-3,3'-[1,4]oxazole]-8,8-dione

> <CAS>
2171776-69-3

> <URL>
https://www.enaminestore.com/catalog/EN300-1651797

> <ROCS_ShapeQuery>
_x1247relevant_x1083L0AP1_x1305L0BP1_

> <ROCS_TanimotoCombo>
1.015 

> <ROCS_ShapeTanimoto>
0.540 

> <ROCS_ColorTanimoto>
0.476 

> <ROCS_RefTversky>
0.458 

> <ROCS_RefColorTversky>
0.675 

> <ROCS_RefTverskyCombo>
1.133 

> <ROCS_FitTversky>
1.490 

> <ROCS_FitColorTversky>
0.617 

> <ROCS_FitTverskyCombo>
2.106 

> <ROCS_ColorScore>
-6.558

> <ROCS_Overlap>
1130.747

> <ROCS_Rank>
412                 

$$$$
untitled-dbase-18123_16
  -OEChem-06232314403D

 34 36  0     1  0  0  0  0  0999 V2000
  -10.4575   14.9248  -36.8604 C   0  0  0  0  0  0  0  0  0  0  0  0
  -13.7104   14.1390  -37.4638 C   0  0  0  0  0  0  0  0  0  0  0  0
  -13.7583   15.6468  -37.0361 C   0  0  0  0  0  0  0  0  0  0  0  0
  -11.6921   15.7945  -40.2008 C   0  0  0  0  0  0  0  0  0  0  0  0
  -12.6635   14.8100  -39.5983 C   0  0  2  0  0  0  0  0  0  0  0  0
  -12.7092   16.2581  -39.1875 C   0  0  1  0  0  0  0  0  0  0  0  0
  -12.4066   14.0653  -38.2909 C   0  0  1  0  0  0  0  0  0  0  0  0
  -12.4755   16.2197  -37.6801 C   0  0  2  0  0  0  0  0  0  0  0  0
   -9.6935   12.6209  -35.3540 C   0  0  0  0  0  0  0  0  0  0  0  0
   -8.0320   12.1999  -37.1901 C   0  0  0  0  0  0  0  0  0  0  0  0
   -7.8694   14.2934  -35.8120 C   0  0  0  0  0  0  0  0  0  0  0  0
   -8.8171   13.2648  -36.4273 C   0  0  0  0  0  0  0  0  0  0  0  0
  -11.6265   15.0512  -37.5643 N   0  0  0  0  0  0  0  0  0  0  0  0
  -10.1557   15.6182  -35.8924 O   0  0  0  0  0  0  0  0  0  0  0  0
   -9.6654   13.9321  -37.3683 O   0  0  0  0  0  0  0  0  0  0  0  0
  -13.6518   13.5031  -36.5735 H   0  0  0  0  0  0  0  0  0  0  0  0
  -14.5979   13.8629  -38.0421 H   0  0  0  0  0  0  0  0  0  0  0  0
  -14.6700   16.1327  -37.3979 H   0  0  0  0  0  0  0  0  0  0  0  0
  -13.7222   15.7233  -35.9437 H   0  0  0  0  0  0  0  0  0  0  0  0
  -10.6483   15.7468  -39.9175 H   0  0  0  0  0  0  0  0  0  0  0  0
  -11.8494   16.0826  -41.2339 H   0  0  0  0  0  0  0  0  0  0  0  0
  -13.4547   14.4045  -40.2112 H   0  0  0  0  0  0  0  0  0  0  0  0
  -13.5327   16.8779  -39.5098 H   0  0  0  0  0  0  0  0  0  0  0  0
  -11.9516   13.0790  -38.3897 H   0  0  0  0  0  0  0  0  0  0  0  0
  -12.0747   17.1324  -37.2364 H   0  0  0  0  0  0  0  0  0  0  0  0
  -10.2587   13.3820  -34.8042 H   0  0  0  0  0  0  0  0  0  0  0  0
  -10.4018   11.9067  -35.7865 H   0  0  0  0  0  0  0  0  0  0  0  0
   -9.0811   12.0951  -34.6126 H   0  0  0  0  0  0  0  0  0  0  0  0
   -7.4018   12.6574  -37.9612 H   0  0  0  0  0  0  0  0  0  0  0  0
   -8.7096   11.5144  -37.7119 H   0  0  0  0  0  0  0  0  0  0  0  0
   -7.3924   11.6138  -36.5224 H   0  0  0  0  0  0  0  0  0  0  0  0
   -7.2406   14.7554  -36.5817 H   0  0  0  0  0  0  0  0  0  0  0  0
   -8.4170   15.0858  -35.2916 H   0  0  0  0  0  0  0  0  0  0  0  0
   -7.1862   13.8167  -35.0998 H   0  0  0  0  0  0  0  0  0  0  0  0
  1 13  1  0  0  0  0
  1 14  2  0  0  0  0
  1 15  1  0  0  0  0
  2  3  1  0  0  0  0
  2  7  1  1  0  0  0
  3  8  1  1  0  0  0
  4  5  1  0  0  0  0
  4  6  1  0  0  0  0
  5  6  1  0  0  0  0
  5  7  1  0  0  0  0
  6  8  1  0  0  0  0
  7 13  1  0  0  0  0
  8 13  1  0  0  0  0
  9 12  1  0  0  0  0
 10 12  1  0  0  0  0
 11 12  1  0  0  0  0
 12 15  1  0  0  0  0
  2 16  1  0  0  0  0
  2 17  1  0  0  0  0
  3 18  1  0  0  0  0
  3 19  1  0  0  0  0
  4 20  1  0  0  0  0
  4 21  1  0  0  0  0
  5 22  1  0  0  0  0
  6 23  1  0  0  0  0
  7 24  1  0  0  0  0
  8 25  1  0  0  0  0
  9 26  1  0  0  0  0
  9 27  1  0  0  0  0
  9 28  1  0  0  0  0
 10 29  1  0  0  0  0
 10 30  1  0  0  0  0
 10 31  1  0  0  0  0
 11 32  1  0  0  0  0
 11 33  1  0  0  0  0
 11 34  1  0  0  0  0
M  END
> <id>
EN300-1653064

> <smiles>
CC(C)(C)OC(=O)N1[C@H]2CC[C@@H]1C3CC32

> <IUPAC Name>
tert-butyl (1R,5S)-8-azatricyclo[3.2.1.0,2,4]octane-8-carboxylate

> <CAS>
2171446-46-9

> <URL>
https://www.enaminestore.com/catalog/EN300-1653064

> <ROCS_ShapeQuery>
_x1247relevant_x1083L0AP1_x1305L0BP1_

> <ROCS_TanimotoCombo>
1.015 

> <ROCS_ShapeTanimoto>
0.511 

> <ROCS_ColorTanimoto>
0.505 

> <ROCS_RefTversky>
0.445 

> <ROCS_RefColorTversky>
0.955 

> <ROCS_RefTverskyCombo>
1.400 

> <ROCS_FitTversky>
1.411 

> <ROCS_FitColorTversky>
0.517 

> <ROCS_FitTverskyCombo>
1.928 

> <ROCS_ColorScore>
-9.687

> <ROCS_Overlap>
1096.947

> <ROCS_Rank>
413                 

$$$$
untitled-dbase-46609_0
  -OEChem-06232314403D

 32 33  0     1  0  0  0  0  0999 V2000
  -11.3606   14.5838  -37.5586 C   0  0  0  0  0  0  0  0  0  0  0  0
  -12.6796   13.8058  -37.6163 C   0  0  0  0  0  0  0  0  0  0  0  0
  -13.1328   16.1341  -37.4903 C   0  0  0  0  0  0  0  0  0  0  0  0
  -11.7458   15.9615  -38.1245 C   0  0  2  0  0  0  0  0  0  0  0  0
  -13.6906   14.8559  -38.1380 C   0  0  1  0  0  0  0  0  0  0  0  0
  -12.0657   15.8981  -39.6599 C   0  0  0  0  0  0  0  0  0  0  0  0
  -13.4686   15.1654  -39.6614 C   0  0  1  0  0  0  0  0  0  0  0  0
  -15.1225   14.5408  -37.7347 C   0  0  0  0  0  0  0  0  0  0  0  0
  -12.1310   17.3415  -40.2137 C   0  0  0  0  0  0  0  0  0  0  0  0
  -10.9648   15.1779  -40.4591 C   0  0  0  0  0  0  0  0  0  0  0  0
  -13.6045   13.9464  -40.5767 C   0  0  0  0  0  0  0  0  0  0  0  0
  -14.5046   16.0745  -40.0695 O   0  0  0  0  0  0  0  0  0  0  0  0
  -11.0388   14.6836  -36.5143 H   0  0  0  0  0  0  0  0  0  0  0  0
  -10.5489   14.0843  -38.0912 H   0  0  0  0  0  0  0  0  0  0  0  0
  -12.6072   12.9163  -38.2461 H   0  0  0  0  0  0  0  0  0  0  0  0
  -12.9440   13.4632  -36.6082 H   0  0  0  0  0  0  0  0  0  0  0  0
  -13.1114   16.0898  -36.3949 H   0  0  0  0  0  0  0  0  0  0  0  0
  -13.6526   17.0484  -37.7906 H   0  0  0  0  0  0  0  0  0  0  0  0
  -11.0274   16.7409  -37.8565 H   0  0  0  0  0  0  0  0  0  0  0  0
  -15.7988   15.3042  -38.1223 H   0  0  0  0  0  0  0  0  0  0  0  0
  -15.2094   14.5138  -36.6474 H   0  0  0  0  0  0  0  0  0  0  0  0
  -15.4209   13.5708  -38.1353 H   0  0  0  0  0  0  0  0  0  0  0  0
  -12.3515   17.2995  -41.2723 H   0  0  0  0  0  0  0  0  0  0  0  0
  -11.1746   17.8211  -40.0516 H   0  0  0  0  0  0  0  0  0  0  0  0
  -12.9110   17.8805  -39.6921 H   0  0  0  0  0  0  0  0  0  0  0  0
  -11.2371   15.1636  -41.5090 H   0  0  0  0  0  0  0  0  0  0  0  0
  -10.8646   14.1617  -40.0931 H   0  0  0  0  0  0  0  0  0  0  0  0
  -10.0266   15.7073  -40.3315 H   0  0  0  0  0  0  0  0  0  0  0  0
  -13.4372   14.2438  -41.6096 H   0  0  0  0  0  0  0  0  0  0  0  0
  -14.6034   13.5267  -40.4813 H   0  0  0  0  0  0  0  0  0  0  0  0
  -12.8704   13.1944  -40.2961 H   0  0  0  0  0  0  0  0  0  0  0  0
  -14.3479   16.2498  -41.0068 H   0  0  0  0  0  0  0  0  0  0  0  0
  1  2  1  0  0  0  0
  1  4  1  1  0  0  0
  2  5  1  0  0  0  0
  3  4  1  0  0  0  0
  3  5  1  0  0  0  0
  4  6  1  0  0  0  0
  5  7  1  0  0  0  0
  5  8  1  6  0  0  0
  6  7  1  0  0  0  0
  6  9  1  0  0  0  0
  6 10  1  0  0  0  0
  7 11  1  1  0  0  0
  7 12  1  0  0  0  0
  1 13  1  0  0  0  0
  1 14  1  0  0  0  0
  2 15  1  0  0  0  0
  2 16  1  0  0  0  0
  3 17  1  0  0  0  0
  3 18  1  0  0  0  0
  4 19  1  0  0  0  0
  8 20  1  0  0  0  0
  8 21  1  0  0  0  0
  8 22  1  0  0  0  0
  9 23  1  0  0  0  0
  9 24  1  0  0  0  0
  9 25  1  0  0  0  0
 10 26  1  0  0  0  0
 10 27  1  0  0  0  0
 10 28  1  0  0  0  0
 11 29  1  0  0  0  0
 11 30  1  0  0  0  0
 11 31  1  0  0  0  0
 12 32  1  0  0  0  0
M  END
> <id>
EN300-36596580

> <smiles>
CC1(C)[C@@H]2CC[C@@](C)(C2)[C@@]1(C)O

> <MDLNUMBER>
MFCD34550753

> <IUPAC Name>
(1S,2R,4R)-1,2,3,3-tetramethylbicyclo[2.2.1]heptan-2-ol

> <CAS>
139974-53-1

> <Purity>
95

> <URL>
https://www.enaminestore.com/catalog/EN300-36596580

> <ROCS_ShapeQuery>
_x1247relevant_x1083L0AP1_x1305L0BP1_

> <ROCS_TanimotoCombo>
1.015 

> <ROCS_ShapeTanimoto>
0.468 

> <ROCS_ColorTanimoto>
0.547 

> <ROCS_RefTversky>
0.400 

> <ROCS_RefColorTversky>
0.694 

> <ROCS_RefTverskyCombo>
1.093 

> <ROCS_FitTversky>
1.573 

> <ROCS_FitColorTversky>
0.722 

> <ROCS_FitTverskyCombo>
2.295 

> <ROCS_ColorScore>
-6.691

> <ROCS_Overlap>
982.950

> <ROCS_Rank>
414                 

$$$$
untitled-dbase-21216_0
  -OEChem-06232314403D

 33 35  0     1  0  0  0  0  0999 V2000
   -9.9778   14.7604  -36.9123 C   0  0  0  0  0  0  0  0  0  0  0  0
  -12.1025   16.0250  -36.8381 C   0  0  0  0  0  0  0  0  0  0  0  0
  -13.1459   16.8196  -38.9753 C   0  0  0  0  0  0  0  0  0  0  0  0
  -14.2098   14.9562  -37.6777 C   0  0  0  0  0  0  0  0  0  0  0  0
  -10.9806   15.5458  -39.0341 C   0  0  0  0  0  0  0  0  0  0  0  0
  -12.0466   13.6787  -37.7339 C   0  0  0  0  0  0  0  0  0  0  0  0
  -13.0923   14.4743  -39.8762 C   0  0  0  0  0  0  0  0  0  0  0  0
  -13.4322   16.2770  -37.5663 C   0  0  0  0  0  0  0  0  0  0  0  0
  -11.2520   14.9980  -37.6156 C   0  0  0  0  0  0  0  0  0  0  0  0
  -12.3081   15.8039  -39.7842 C   0  0  1  0  0  0  0  0  0  0  0  0
  -13.3884   13.9119  -38.4666 C   0  0  2  0  0  0  0  0  0  0  0  0
  -12.0258   16.3498  -41.1872 C   0  0  0  0  0  0  0  0  0  0  0  0
  -14.1680   12.5978  -38.5741 C   0  0  0  0  0  0  0  0  0  0  0  0
   -8.9753   14.5734  -36.3590 N   0  0  0  0  0  0  0  0  0  0  0  0
  -11.5561   16.9716  -36.7285 H   0  0  0  0  0  0  0  0  0  0  0  0
  -12.3014   15.6658  -35.8193 H   0  0  0  0  0  0  0  0  0  0  0  0
  -14.0933   17.0261  -39.4899 H   0  0  0  0  0  0  0  0  0  0  0  0
  -12.6139   17.7768  -38.9009 H   0  0  0  0  0  0  0  0  0  0  0  0
  -14.4400   14.5783  -36.6732 H   0  0  0  0  0  0  0  0  0  0  0  0
  -15.1721   15.1361  -38.1743 H   0  0  0  0  0  0  0  0  0  0  0  0
  -10.3976   16.4757  -38.9749 H   0  0  0  0  0  0  0  0  0  0  0  0
  -10.3622   14.8358  -39.6012 H   0  0  0  0  0  0  0  0  0  0  0  0
  -11.4512   12.9271  -38.2713 H   0  0  0  0  0  0  0  0  0  0  0  0
  -12.2336   13.2603  -36.7347 H   0  0  0  0  0  0  0  0  0  0  0  0
  -14.0335   14.6331  -40.4198 H   0  0  0  0  0  0  0  0  0  0  0  0
  -12.5177   13.7410  -40.4581 H   0  0  0  0  0  0  0  0  0  0  0  0
  -14.0263   17.0071  -37.0051 H   0  0  0  0  0  0  0  0  0  0  0  0
  -11.4363   15.6282  -41.7476 H   0  0  0  0  0  0  0  0  0  0  0  0
  -11.4743   17.2837  -41.1110 H   0  0  0  0  0  0  0  0  0  0  0  0
  -12.9652   16.5274  -41.7053 H   0  0  0  0  0  0  0  0  0  0  0  0
  -13.5818   11.8704  -39.1304 H   0  0  0  0  0  0  0  0  0  0  0  0
  -15.1086   12.7731  -39.0906 H   0  0  0  0  0  0  0  0  0  0  0  0
  -14.3704   12.2114  -37.5781 H   0  0  0  0  0  0  0  0  0  0  0  0
  1  9  1  0  0  0  0
  1 14  3  0  0  0  0
  2  8  1  0  0  0  0
  2  9  1  0  0  0  0
  3  8  1  0  0  0  0
  3 10  1  0  0  0  0
  4  8  1  0  0  0  0
  4 11  1  0  0  0  0
  5  9  1  0  0  0  0
  5 10  1  0  0  0  0
  6  9  1  0  0  0  0
  6 11  1  0  0  0  0
  7 10  1  0  0  0  0
  7 11  1  0  0  0  0
 10 12  1  0  0  0  0
 11 13  1  0  0  0  0
  2 15  1  0  0  0  0
  2 16  1  0  0  0  0
  3 17  1  0  0  0  0
  3 18  1  0  0  0  0
  4 19  1  0  0  0  0
  4 20  1  0  0  0  0
  5 21  1  0  0  0  0
  5 22  1  0  0  0  0
  6 23  1  0  0  0  0
  6 24  1  0  0  0  0
  7 25  1  0  0  0  0
  7 26  1  0  0  0  0
  8 27  1  0  0  0  0
 12 28  1  0  0  0  0
 12 29  1  0  0  0  0
 12 30  1  0  0  0  0
 13 31  1  0  0  0  0
 13 32  1  0  0  0  0
 13 33  1  0  0  0  0
M  END
> <id>
EN300-103661

> <smiles>
CC1(CC2CC3(C)C1)CC(C2)(C3)C#N

> <MDLNUMBER>
MFCD09035736

> <IUPAC Name>
3,5-dimethyladamantane-1-carbonitrile

> <CAS>
101901-50-2

> <Purity>
95

> <URL>
https://www.enaminestore.com/catalog/EN300-103661

> <ROCS_ShapeQuery>
_x1247relevant_x1083L0AP1_x1305L0BP1_

> <ROCS_TanimotoCombo>
1.015 

> <ROCS_ShapeTanimoto>
0.522 

> <ROCS_ColorTanimoto>
0.493 

> <ROCS_RefTversky>
0.443 

> <ROCS_RefColorTversky>
0.591 

> <ROCS_RefTverskyCombo>
1.035 

> <ROCS_FitTversky>
1.516 

> <ROCS_FitColorTversky>
0.747 

> <ROCS_FitTverskyCombo>
2.264 

> <ROCS_ColorScore>
-5.651

> <ROCS_Overlap>
1092.761

> <ROCS_Rank>
415                 

$$$$
untitled-dbase-19932_0
  -OEChem-06232314403D

 25 26  0     0  0  0  0  0  0999 V2000
  -10.6335   14.3433  -36.5413 C   0  0  0  0  0  0  0  0  0  0  0  0
  -12.7752   15.5785  -36.7268 C   0  0  0  0  0  0  0  0  0  0  0  0
  -12.3110   13.6246  -38.2199 C   0  0  0  0  0  0  0  0  0  0  0  0
  -11.0497   15.7638  -38.5299 C   0  0  0  0  0  0  0  0  0  0  0  0
  -13.8523   16.0711  -37.7053 C   0  0  0  0  0  0  0  0  0  0  0  0
  -13.3876   14.1163  -39.1992 C   0  0  0  0  0  0  0  0  0  0  0  0
  -12.1252   16.2570  -39.5096 C   0  0  0  0  0  0  0  0  0  0  0  0
  -11.6652   14.8150  -37.4797 C   0  0  0  0  0  0  0  0  0  0  0  0
  -13.4984   15.6536  -39.1470 C   0  0  0  0  0  0  0  0  0  0  0  0
   -9.8204   13.9715  -35.8017 N   0  0  0  0  0  0  0  0  0  0  0  0
  -14.5191   16.1325  -40.0747 N   0  0  0  0  0  0  0  0  0  0  0  0
  -12.3557   16.4354  -36.1831 H   0  0  0  0  0  0  0  0  0  0  0  0
  -13.2386   14.9369  -35.9652 H   0  0  0  0  0  0  0  0  0  0  0  0
  -12.7600   12.9219  -37.5056 H   0  0  0  0  0  0  0  0  0  0  0  0
  -11.5516   13.0517  -38.7687 H   0  0  0  0  0  0  0  0  0  0  0  0
  -10.2508   15.2575  -39.0882 H   0  0  0  0  0  0  0  0  0  0  0  0
  -10.5759   16.6262  -38.0425 H   0  0  0  0  0  0  0  0  0  0  0  0
  -14.8264   15.6603  -37.4095 H   0  0  0  0  0  0  0  0  0  0  0  0
  -13.9410   17.1627  -37.6285 H   0  0  0  0  0  0  0  0  0  0  0  0
  -13.1369   13.7792  -40.2133 H   0  0  0  0  0  0  0  0  0  0  0  0
  -14.3484   13.6490  -38.9468 H   0  0  0  0  0  0  0  0  0  0  0  0
  -12.1649   17.3535  -39.4839 H   0  0  0  0  0  0  0  0  0  0  0  0
  -11.8377   15.9817  -40.5326 H   0  0  0  0  0  0  0  0  0  0  0  0
  -15.3891   15.7325  -39.8134 H   0  0  0  0  0  0  0  0  0  0  0  0
  -14.5555   17.1225  -40.0120 H   0  0  0  0  0  0  0  0  0  0  0  0
  1  8  1  0  0  0  0
  1 10  3  0  0  0  0
  2  5  1  0  0  0  0
  2  8  1  0  0  0  0
  3  6  1  0  0  0  0
  3  8  1  0  0  0  0
  4  7  1  0  0  0  0
  4  8  1  0  0  0  0
  5  9  1  0  0  0  0
  6  9  1  0  0  0  0
  7  9  1  0  0  0  0
  9 11  1  0  0  0  0
  2 12  1  0  0  0  0
  2 13  1  0  0  0  0
  3 14  1  0  0  0  0
  3 15  1  0  0  0  0
  4 16  1  0  0  0  0
  4 17  1  0  0  0  0
  5 18  1  0  0  0  0
  5 19  1  0  0  0  0
  6 20  1  0  0  0  0
  6 21  1  0  0  0  0
  7 22  1  0  0  0  0
  7 23  1  0  0  0  0
 11 24  1  0  0  0  0
 11 25  1  0  0  0  0
M  END
> <id>
EN300-316527

> <smiles>
Cl.NC1(CCC2(CC1)C#N)CC2

> <MDLNUMBER>
MFCD23135491

> <IUPAC Name>
4-aminobicyclo[2.2.2]octane-1-carbonitrile hydrochloride

> <CAS>
160133-27-7

> <Purity>
95

> <URL>
https://www.enaminestore.com/catalog/EN300-316527

> <Saltdate>
Cl

> <ROCS_ShapeQuery>
_x1247relevant_x1083L0AP1_x1305L0BP1_

> <ROCS_TanimotoCombo>
1.015 

> <ROCS_ShapeTanimoto>
0.474 

> <ROCS_ColorTanimoto>
0.541 

> <ROCS_RefTversky>
0.397 

> <ROCS_RefColorTversky>
0.680 

> <ROCS_RefTverskyCombo>
1.078 

> <ROCS_FitTversky>
1.683 

> <ROCS_FitColorTversky>
0.726 

> <ROCS_FitTverskyCombo>
2.409 

> <ROCS_ColorScore>
-6.551

> <ROCS_Overlap>
976.623

> <ROCS_Rank>
416                 

$$$$
untitled-dbase-20292_0
  -OEChem-06232314403D

 25 26  0     0  0  0  0  0  0999 V2000
  -10.6335   14.3433  -36.5413 C   0  0  0  0  0  0  0  0  0  0  0  0
  -12.7752   15.5785  -36.7268 C   0  0  0  0  0  0  0  0  0  0  0  0
  -12.3110   13.6246  -38.2199 C   0  0  0  0  0  0  0  0  0  0  0  0
  -11.0497   15.7638  -38.5299 C   0  0  0  0  0  0  0  0  0  0  0  0
  -13.8523   16.0711  -37.7053 C   0  0  0  0  0  0  0  0  0  0  0  0
  -13.3876   14.1163  -39.1992 C   0  0  0  0  0  0  0  0  0  0  0  0
  -12.1252   16.2570  -39.5096 C   0  0  0  0  0  0  0  0  0  0  0  0
  -11.6652   14.8150  -37.4797 C   0  0  0  0  0  0  0  0  0  0  0  0
  -13.4984   15.6536  -39.1470 C   0  0  0  0  0  0  0  0  0  0  0  0
   -9.8204   13.9715  -35.8017 N   0  0  0  0  0  0  0  0  0  0  0  0
  -14.5191   16.1325  -40.0747 N   0  0  0  0  0  0  0  0  0  0  0  0
  -12.3557   16.4354  -36.1831 H   0  0  0  0  0  0  0  0  0  0  0  0
  -13.2386   14.9369  -35.9652 H   0  0  0  0  0  0  0  0  0  0  0  0
  -12.7600   12.9219  -37.5056 H   0  0  0  0  0  0  0  0  0  0  0  0
  -11.5516   13.0517  -38.7687 H   0  0  0  0  0  0  0  0  0  0  0  0
  -10.2508   15.2575  -39.0882 H   0  0  0  0  0  0  0  0  0  0  0  0
  -10.5759   16.6262  -38.0425 H   0  0  0  0  0  0  0  0  0  0  0  0
  -14.8264   15.6603  -37.4095 H   0  0  0  0  0  0  0  0  0  0  0  0
  -13.9410   17.1627  -37.6285 H   0  0  0  0  0  0  0  0  0  0  0  0
  -13.1369   13.7792  -40.2133 H   0  0  0  0  0  0  0  0  0  0  0  0
  -14.3484   13.6490  -38.9468 H   0  0  0  0  0  0  0  0  0  0  0  0
  -12.1649   17.3535  -39.4839 H   0  0  0  0  0  0  0  0  0  0  0  0
  -11.8377   15.9817  -40.5326 H   0  0  0  0  0  0  0  0  0  0  0  0
  -15.3891   15.7325  -39.8134 H   0  0  0  0  0  0  0  0  0  0  0  0
  -14.5555   17.1225  -40.0120 H   0  0  0  0  0  0  0  0  0  0  0  0
  1  8  1  0  0  0  0
  1 10  3  0  0  0  0
  2  5  1  0  0  0  0
  2  8  1  0  0  0  0
  3  6  1  0  0  0  0
  3  8  1  0  0  0  0
  4  7  1  0  0  0  0
  4  8  1  0  0  0  0
  5  9  1  0  0  0  0
  6  9  1  0  0  0  0
  7  9  1  0  0  0  0
  9 11  1  0  0  0  0
  2 12  1  0  0  0  0
  2 13  1  0  0  0  0
  3 14  1  0  0  0  0
  3 15  1  0  0  0  0
  4 16  1  0  0  0  0
  4 17  1  0  0  0  0
  5 18  1  0  0  0  0
  5 19  1  0  0  0  0
  6 20  1  0  0  0  0
  6 21  1  0  0  0  0
  7 22  1  0  0  0  0
  7 23  1  0  0  0  0
 11 24  1  0  0  0  0
 11 25  1  0  0  0  0
M  END
> <id>
EN300-6771650

> <smiles>
NC1(CCC2(CC1)C#N)CC2

> <MDLNUMBER>
MFCD18826894

> <IUPAC Name>
4-aminobicyclo[2.2.2]octane-1-carbonitrile

> <CAS>
135908-50-8

> <URL>
https://www.enaminestore.com/catalog/EN300-6771650

> <ROCS_ShapeQuery>
_x1247relevant_x1083L0AP1_x1305L0BP1_

> <ROCS_TanimotoCombo>
1.015 

> <ROCS_ShapeTanimoto>
0.474 

> <ROCS_ColorTanimoto>
0.541 

> <ROCS_RefTversky>
0.397 

> <ROCS_RefColorTversky>
0.680 

> <ROCS_RefTverskyCombo>
1.078 

> <ROCS_FitTversky>
1.683 

> <ROCS_FitColorTversky>
0.726 

> <ROCS_FitTverskyCombo>
2.409 

> <ROCS_ColorScore>
-6.551

> <ROCS_Overlap>
976.623

> <ROCS_Rank>
417                 

$$$$
untitled-dbase-2454_0
  -OEChem-06232314403D

 27 30  0     1  0  0  0  0  0999 V2000
  -13.7246   14.5981  -37.4975 C   0  0  0  0  0  0  0  0  0  0  0  0
  -13.5697   15.9236  -37.3537 C   0  0  0  0  0  0  0  0  0  0  0  0
  -13.5146   16.7155  -40.2451 C   0  0  0  0  0  0  0  0  0  0  0  0
  -14.3614   15.8235  -40.7661 C   0  0  0  0  0  0  0  0  0  0  0  0
  -13.8377   14.4815  -40.4319 C   0  0  0  0  0  0  0  0  0  0  0  0
   -9.2140   14.7666  -37.2425 C   0  0  0  0  0  0  0  0  0  0  0  0
   -9.9953   14.1614  -36.1095 C   0  0  0  0  0  0  0  0  0  0  0  0
  -12.5009   14.0767  -38.2283 C   0  0  1  0  0  0  0  0  0  0  0  0
  -12.3330   16.1230  -39.5385 C   0  0  2  0  0  0  0  0  0  0  0  0
  -12.5246   14.5783  -39.6963 C   0  0  2  0  0  0  0  0  0  0  0  0
  -12.2494   16.2726  -37.9958 C   0  0  2  0  0  0  0  0  0  0  0  0
  -11.4361   15.0207  -37.6124 C   0  0  0  0  0  0  0  0  0  0  0  0
  -14.4007   13.4337  -40.7113 O   0  0  0  0  0  0  0  0  0  0  0  0
  -10.1784   14.9000  -38.2849 O   0  0  0  0  0  0  0  0  0  0  0  0
  -11.2580   14.8147  -36.2085 O   0  0  0  0  0  0  0  0  0  0  0  0
  -15.9142   16.1118  -41.6877 Br  0  0  0  0  0  0  0  0  0  0  0  0
  -11.5174   17.9182  -37.3924 Br  0  0  0  0  0  0  0  0  0  0  0  0
  -14.5808   14.0162  -37.1963 H   0  0  0  0  0  0  0  0  0  0  0  0
  -14.2852   16.6009  -36.9144 H   0  0  0  0  0  0  0  0  0  0  0  0
  -13.6525   17.7866  -40.3217 H   0  0  0  0  0  0  0  0  0  0  0  0
   -8.8488   15.7674  -36.9887 H   0  0  0  0  0  0  0  0  0  0  0  0
   -8.3737   14.1492  -37.5690 H   0  0  0  0  0  0  0  0  0  0  0  0
  -10.1516   13.0868  -36.2537 H   0  0  0  0  0  0  0  0  0  0  0  0
   -9.5441   14.3342  -35.1294 H   0  0  0  0  0  0  0  0  0  0  0  0
  -12.3166   13.0098  -38.0927 H   0  0  0  0  0  0  0  0  0  0  0  0
  -11.4066   16.4445  -40.0309 H   0  0  0  0  0  0  0  0  0  0  0  0
  -11.7218   14.1474  -40.3045 H   0  0  0  0  0  0  0  0  0  0  0  0
  1  2  2  0  0  0  0
  1  8  1  0  0  0  0
  2 11  1  0  0  0  0
  3  4  2  0  0  0  0
  3  9  1  0  0  0  0
  4  5  1  0  0  0  0
  4 16  1  0  0  0  0
  5 10  1  0  0  0  0
  5 13  2  0  0  0  0
  6  7  1  0  0  0  0
  6 14  1  0  0  0  0
  7 15  1  0  0  0  0
  8 10  1  0  0  0  0
  8 12  1  0  0  0  0
  9 10  1  0  0  0  0
  9 11  1  0  0  0  0
 11 12  1  0  0  0  0
 11 17  1  0  0  0  0
 12 14  1  0  0  0  0
 12 15  1  0  0  0  0
  1 18  1  0  0  0  0
  2 19  1  0  0  0  0
  3 20  1  0  0  0  0
  6 21  1  0  0  0  0
  6 22  1  0  0  0  0
  7 23  1  0  0  0  0
  7 24  1  0  0  0  0
  8 25  1  0  0  0  0
  9 26  1  0  0  0  0
 10 27  1  0  0  0  0
M  END
> <id>
EN300-51318

> <smiles>
BrC1=CC2C(C3C=CC2(Br)C43OCCO4)C1=O

> <MDLNUMBER>
MFCD00498143

> <IUPAC Name>
1',4'-dibromospiro[1,3-dioxolane-2,10'-tricyclo[5.2.1.0,2,6]decane]-3',8'-dien-5'-one

> <CAS>
95272-45-0

> <Purity>
95

> <URL>
https://www.enaminestore.com/catalog/EN300-51318

> <MP>
172-173

> <ROCS_ShapeQuery>
_x1247relevant_x1083L0AP1_x1305L0BP1_

> <ROCS_TanimotoCombo>
1.015 

> <ROCS_ShapeTanimoto>
0.588 

> <ROCS_ColorTanimoto>
0.427 

> <ROCS_RefTversky>
0.501 

> <ROCS_RefColorTversky>
0.703 

> <ROCS_RefTverskyCombo>
1.204 

> <ROCS_FitTversky>
1.414 

> <ROCS_FitColorTversky>
0.522 

> <ROCS_FitTverskyCombo>
1.936 

> <ROCS_ColorScore>
-6.925

> <ROCS_Overlap>
1240.014

> <ROCS_Rank>
418                 

$$$$
untitled-dbase-3761_0
  -OEChem-06232314403D

 22 24  0     1  0  0  0  0  0999 V2000
   -9.3842   14.1675  -36.8358 C   0  0  0  0  0  0  0  0  0  0  0  0
   -9.1258   15.4395  -37.3677 C   0  0  0  0  0  0  0  0  0  0  0  0
  -10.6703   13.6282  -36.8773 C   0  0  0  0  0  0  0  0  0  0  0  0
  -10.1503   16.1919  -37.9488 C   0  0  0  0  0  0  0  0  0  0  0  0
  -11.6793   14.3824  -37.4550 C   0  0  0  0  0  0  0  0  0  0  0  0
  -11.4323   15.6616  -37.9921 C   0  0  0  0  0  0  0  0  0  0  0  0
  -13.1301   13.9926  -37.6135 C   0  0  0  0  0  0  0  0  0  0  0  0
  -12.6872   16.2557  -38.5512 C   0  0  2  0  0  0  0  0  0  0  0  0
  -13.7565   15.2031  -38.2897 C   0  0  1  0  0  0  0  0  0  0  0  0
  -13.4058   15.5949  -39.7040 C   0  0  1  0  0  0  0  0  0  0  0  0
  -14.3583   16.3656  -40.5118 N   0  0  0  0  0  0  0  0  0  0  0  0
   -8.5743   13.5977  -36.3884 H   0  0  0  0  0  0  0  0  0  0  0  0
   -8.1178   15.8433  -37.3273 H   0  0  0  0  0  0  0  0  0  0  0  0
  -10.8695   12.6437  -36.4682 H   0  0  0  0  0  0  0  0  0  0  0  0
   -9.9419   17.1753  -38.3582 H   0  0  0  0  0  0  0  0  0  0  0  0
  -13.2334   13.1007  -38.2387 H   0  0  0  0  0  0  0  0  0  0  0  0
  -13.5863   13.8245  -36.6331 H   0  0  0  0  0  0  0  0  0  0  0  0
  -12.9328   17.2832  -38.3070 H   0  0  0  0  0  0  0  0  0  0  0  0
  -14.7034   15.5081  -37.8662 H   0  0  0  0  0  0  0  0  0  0  0  0
  -12.8437   14.8752  -40.2915 H   0  0  0  0  0  0  0  0  0  0  0  0
  -13.8446   16.8525  -41.2044 H   0  0  0  0  0  0  0  0  0  0  0  0
  -14.9933   15.7266  -40.9229 H   0  0  0  0  0  0  0  0  0  0  0  0
  1  2  2  0  0  0  0
  1  3  1  0  0  0  0
  2  4  1  0  0  0  0
  3  5  2  0  0  0  0
  4  6  2  0  0  0  0
  5  6  1  0  0  0  0
  5  7  1  0  0  0  0
  6  8  1  0  0  0  0
  7  9  1  0  0  0  0
  8  9  1  0  0  0  0
  8 10  1  0  0  0  0
  9 10  1  0  0  0  0
 10 11  1  0  0  0  0
  1 12  1  0  0  0  0
  2 13  1  0  0  0  0
  3 14  1  0  0  0  0
  4 15  1  0  0  0  0
  7 16  1  0  0  0  0
  7 17  1  0  0  0  0
  8 18  1  0  0  0  0
  9 19  1  0  0  0  0
 10 20  1  0  0  0  0
 11 21  1  0  0  0  0
 11 22  1  0  0  0  0
M  END
> <id>
EN300-148685

> <smiles>
NC1C2CC=3C=CC=CC3C12

> <MDLNUMBER>
MFCD19206679

> <IUPAC Name>
1H,1aH,6H,6aH-cyclopropa[a]inden-1-amine

> <CAS>
13280-42-7

> <URL>
https://www.enaminestore.com/catalog/EN300-148685

> <ROCS_ShapeQuery>
_x1247relevant_x1083L0AP1_x1305L0BP1_

> <ROCS_TanimotoCombo>
1.015 

> <ROCS_ShapeTanimoto>
0.487 

> <ROCS_ColorTanimoto>
0.527 

> <ROCS_RefTversky>
0.408 

> <ROCS_RefColorTversky>
0.597 

> <ROCS_RefTverskyCombo>
1.005 

> <ROCS_FitTversky>
1.674 

> <ROCS_FitColorTversky>
0.818 

> <ROCS_FitTverskyCombo>
2.492 

> <ROCS_ColorScore>
-5.689

> <ROCS_Overlap>
1001.766

> <ROCS_Rank>
419                 

$$$$
untitled-dbase-37480_0
  -OEChem-06232314403D

 22 24  0     1  0  0  0  0  0999 V2000
   -9.3842   14.1675  -36.8358 C   0  0  0  0  0  0  0  0  0  0  0  0
   -9.1258   15.4395  -37.3677 C   0  0  0  0  0  0  0  0  0  0  0  0
  -10.6703   13.6282  -36.8773 C   0  0  0  0  0  0  0  0  0  0  0  0
  -10.1503   16.1919  -37.9488 C   0  0  0  0  0  0  0  0  0  0  0  0
  -11.6793   14.3824  -37.4550 C   0  0  0  0  0  0  0  0  0  0  0  0
  -11.4323   15.6616  -37.9921 C   0  0  0  0  0  0  0  0  0  0  0  0
  -13.1301   13.9926  -37.6135 C   0  0  0  0  0  0  0  0  0  0  0  0
  -12.6872   16.2557  -38.5512 C   0  0  2  0  0  0  0  0  0  0  0  0
  -13.7565   15.2031  -38.2897 C   0  0  1  0  0  0  0  0  0  0  0  0
  -13.4058   15.5949  -39.7040 C   0  0  1  0  0  0  0  0  0  0  0  0
  -14.3583   16.3656  -40.5118 N   0  0  0  0  0  0  0  0  0  0  0  0
   -8.5743   13.5977  -36.3884 H   0  0  0  0  0  0  0  0  0  0  0  0
   -8.1178   15.8433  -37.3273 H   0  0  0  0  0  0  0  0  0  0  0  0
  -10.8695   12.6437  -36.4682 H   0  0  0  0  0  0  0  0  0  0  0  0
   -9.9419   17.1753  -38.3582 H   0  0  0  0  0  0  0  0  0  0  0  0
  -13.2334   13.1007  -38.2387 H   0  0  0  0  0  0  0  0  0  0  0  0
  -13.5863   13.8245  -36.6331 H   0  0  0  0  0  0  0  0  0  0  0  0
  -12.9328   17.2832  -38.3070 H   0  0  0  0  0  0  0  0  0  0  0  0
  -14.7034   15.5081  -37.8662 H   0  0  0  0  0  0  0  0  0  0  0  0
  -12.8437   14.8752  -40.2915 H   0  0  0  0  0  0  0  0  0  0  0  0
  -13.8446   16.8525  -41.2044 H   0  0  0  0  0  0  0  0  0  0  0  0
  -14.9933   15.7266  -40.9229 H   0  0  0  0  0  0  0  0  0  0  0  0
  1  2  2  0  0  0  0
  1  3  1  0  0  0  0
  2  4  1  0  0  0  0
  3  5  2  0  0  0  0
  4  6  2  0  0  0  0
  5  6  1  0  0  0  0
  5  7  1  0  0  0  0
  6  8  1  0  0  0  0
  7  9  1  0  0  0  0
  8  9  1  0  0  0  0
  8 10  1  0  0  0  0
  9 10  1  0  0  0  0
 10 11  1  0  0  0  0
  1 12  1  0  0  0  0
  2 13  1  0  0  0  0
  3 14  1  0  0  0  0
  4 15  1  0  0  0  0
  7 16  1  0  0  0  0
  7 17  1  0  0  0  0
  8 18  1  0  0  0  0
  9 19  1  0  0  0  0
 10 20  1  0  0  0  0
 11 21  1  0  0  0  0
 11 22  1  0  0  0  0
M  END
> <id>
EN300-109722

> <smiles>
Cl.NC1C2CC=3C=CC=CC3C12

> <MDLNUMBER>
MFCD22378692

> <IUPAC Name>
1H,1aH,6H,6aH-cyclopropa[a]inden-1-amine hydrochloride

> <CAS>
20392-69-2

> <URL>
https://www.enaminestore.com/catalog/EN300-109722

> <Saltdate>
Cl

> <ROCS_ShapeQuery>
_x1247relevant_x1083L0AP1_x1305L0BP1_

> <ROCS_TanimotoCombo>
1.015 

> <ROCS_ShapeTanimoto>
0.487 

> <ROCS_ColorTanimoto>
0.527 

> <ROCS_RefTversky>
0.408 

> <ROCS_RefColorTversky>
0.597 

> <ROCS_RefTverskyCombo>
1.005 

> <ROCS_FitTversky>
1.674 

> <ROCS_FitColorTversky>
0.818 

> <ROCS_FitTverskyCombo>
2.492 

> <ROCS_ColorScore>
-5.689

> <ROCS_Overlap>
1001.766

> <ROCS_Rank>
420                 

$$$$
untitled-dbase-36279_2
  -OEChem-06232314403D

 29 31  0     1  0  0  0  0  0999 V2000
  -13.7482   14.4658  -39.2156 C   0  0  0  0  0  0  0  0  0  0  0  0
  -13.7736   14.3621  -37.6851 C   0  0  0  0  0  0  0  0  0  0  0  0
  -13.0163   16.5226  -38.2692 C   0  0  0  0  0  0  0  0  0  0  0  0
  -11.3240   15.0966  -39.1791 C   0  0  0  0  0  0  0  0  0  0  0  0
  -10.1673   13.5435  -36.0081 C   0  0  0  0  0  0  0  0  0  0  0  0
   -8.8260   14.2243  -36.2691 C   0  0  0  0  0  0  0  0  0  0  0  0
  -10.2439   15.9667  -37.0267 C   0  0  0  0  0  0  0  0  0  0  0  0
  -12.7509   15.6090  -39.4639 C   0  0  1  0  0  0  0  0  0  0  0  0
  -12.7335   15.4161  -37.2462 C   0  0  2  0  0  0  0  0  0  0  0  0
  -11.2809   14.9796  -37.6237 C   0  0  1  0  0  0  0  0  0  0  0  0
  -10.9965   13.5933  -37.2075 N   0  0  0  0  0  0  0  0  0  0  0  0
   -8.9377   15.3971  -37.0792 O   0  0  0  0  0  0  0  0  0  0  0  0
  -13.4379   13.5285  -39.6876 H   0  0  0  0  0  0  0  0  0  0  0  0
  -14.7439   14.7249  -39.5919 H   0  0  0  0  0  0  0  0  0  0  0  0
  -14.7687   14.6319  -37.3104 H   0  0  0  0  0  0  0  0  0  0  0  0
  -13.5568   13.3499  -37.3334 H   0  0  0  0  0  0  0  0  0  0  0  0
  -12.3320   17.3733  -38.2150 H   0  0  0  0  0  0  0  0  0  0  0  0
  -14.0471   16.8912  -38.2312 H   0  0  0  0  0  0  0  0  0  0  0  0
  -11.1337   14.1461  -39.6886 H   0  0  0  0  0  0  0  0  0  0  0  0
  -10.5833   15.8178  -39.5424 H   0  0  0  0  0  0  0  0  0  0  0  0
  -10.0041   12.5033  -35.7188 H   0  0  0  0  0  0  0  0  0  0  0  0
  -10.6818   14.0348  -35.1789 H   0  0  0  0  0  0  0  0  0  0  0  0
   -8.3683   14.5272  -35.3086 H   0  0  0  0  0  0  0  0  0  0  0  0
   -8.1057   13.5256  -36.7419 H   0  0  0  0  0  0  0  0  0  0  0  0
  -10.2455   16.9184  -37.5674 H   0  0  0  0  0  0  0  0  0  0  0  0
  -10.4578   16.1904  -35.9811 H   0  0  0  0  0  0  0  0  0  0  0  0
  -12.8571   16.0725  -40.4465 H   0  0  0  0  0  0  0  0  0  0  0  0
  -12.8556   15.7239  -36.2014 H   0  0  0  0  0  0  0  0  0  0  0  0
  -10.5083   13.1157  -37.9681 H   0  0  0  0  0  0  0  0  0  0  0  0
  1  2  1  0  0  0  0
  1  8  1  0  0  0  0
  2  9  1  0  0  0  0
  3  8  1  0  0  0  0
  3  9  1  0  0  0  0
  4  8  1  0  0  0  0
  4 10  1  0  0  0  0
  5  6  1  0  0  0  0
  5 11  1  0  0  0  0
  6 12  1  0  0  0  0
  7 10  1  0  0  0  0
  7 12  1  0  0  0  0
  9 10  1  0  0  0  0
 10 11  1  0  0  0  0
  1 13  1  0  0  0  0
  1 14  1  0  0  0  0
  2 15  1  0  0  0  0
  2 16  1  0  0  0  0
  3 17  1  0  0  0  0
  3 18  1  0  0  0  0
  4 19  1  0  0  0  0
  4 20  1  0  0  0  0
  5 21  1  0  0  0  0
  5 22  1  0  0  0  0
  6 23  1  0  0  0  0
  6 24  1  0  0  0  0
  7 25  1  0  0  0  0
  7 26  1  0  0  0  0
  8 27  1  0  0  0  0
  9 28  1  0  0  0  0
 11 29  1  0  0  0  0
M  END
> <id>
EN300-1645430

> <smiles>
C1CC2CC1CC32COCCN3

> <IUPAC Name>
spiro[bicyclo[2.2.1]heptane-2,3'-morpholine]

> <CAS>
1855009-37-8

> <URL>
https://www.enaminestore.com/catalog/EN300-1645430

> <ROCS_ShapeQuery>
_x1247relevant_x1083L0AP1_x1305L0BP1_

> <ROCS_TanimotoCombo>
1.015 

> <ROCS_ShapeTanimoto>
0.497 

> <ROCS_ColorTanimoto>
0.518 

> <ROCS_RefTversky>
0.418 

> <ROCS_RefColorTversky>
0.702 

> <ROCS_RefTverskyCombo>
1.121 

> <ROCS_FitTversky>
1.607 

> <ROCS_FitColorTversky>
0.664 

> <ROCS_FitTverskyCombo>
2.270 

> <ROCS_ColorScore>
-6.809

> <ROCS_Overlap>
1029.393

> <ROCS_Rank>
421                 

$$$$
untitled-dbase-12330_0
  -OEChem-06232314403D

 22 24  0     1  0  0  0  0  0999 V2000
   -9.3842   14.1672  -36.8358 C   0  0  0  0  0  0  0  0  0  0  0  0
   -9.1259   15.4395  -37.3670 C   0  0  0  0  0  0  0  0  0  0  0  0
  -10.6702   13.6279  -36.8776 C   0  0  0  0  0  0  0  0  0  0  0  0
  -10.1503   16.1920  -37.9481 C   0  0  0  0  0  0  0  0  0  0  0  0
  -11.6792   14.3823  -37.4550 C   0  0  0  0  0  0  0  0  0  0  0  0
  -11.4323   15.6617  -37.9919 C   0  0  0  0  0  0  0  0  0  0  0  0
  -13.1300   13.9925  -37.6136 C   0  0  0  0  0  0  0  0  0  0  0  0
  -12.6870   16.2560  -38.5512 C   0  0  2  0  0  0  0  0  0  0  0  0
  -13.7566   15.2030  -38.2896 C   0  0  1  0  0  0  0  0  0  0  0  0
  -13.4058   15.5950  -39.7044 C   0  0  1  0  0  0  0  0  0  0  0  0
  -14.3585   16.3657  -40.5119 N   0  0  0  0  0  0  0  0  0  0  0  0
   -8.5743   13.5973  -36.3886 H   0  0  0  0  0  0  0  0  0  0  0  0
   -8.1178   15.8434  -37.3263 H   0  0  0  0  0  0  0  0  0  0  0  0
  -10.8693   12.6433  -36.4686 H   0  0  0  0  0  0  0  0  0  0  0  0
   -9.9417   17.1754  -38.3570 H   0  0  0  0  0  0  0  0  0  0  0  0
  -13.2334   13.1005  -38.2386 H   0  0  0  0  0  0  0  0  0  0  0  0
  -13.5863   13.8245  -36.6333 H   0  0  0  0  0  0  0  0  0  0  0  0
  -12.9329   17.2834  -38.3069 H   0  0  0  0  0  0  0  0  0  0  0  0
  -14.7033   15.5078  -37.8664 H   0  0  0  0  0  0  0  0  0  0  0  0
  -12.8436   14.8754  -40.2918 H   0  0  0  0  0  0  0  0  0  0  0  0
  -13.8450   16.8528  -41.2045 H   0  0  0  0  0  0  0  0  0  0  0  0
  -14.9935   15.7267  -40.9231 H   0  0  0  0  0  0  0  0  0  0  0  0
  1  2  2  0  0  0  0
  1  3  1  0  0  0  0
  2  4  1  0  0  0  0
  3  5  2  0  0  0  0
  4  6  2  0  0  0  0
  5  6  1  0  0  0  0
  5  7  1  0  0  0  0
  6  8  1  1  0  0  0
  7  9  1  1  0  0  0
  8  9  1  0  0  0  0
  8 10  1  0  0  0  0
  9 10  1  0  0  0  0
 10 11  1  6  0  0  0
  1 12  1  0  0  0  0
  2 13  1  0  0  0  0
  3 14  1  0  0  0  0
  4 15  1  0  0  0  0
  7 16  1  0  0  0  0
  7 17  1  0  0  0  0
  8 18  1  0  0  0  0
  9 19  1  0  0  0  0
 10 20  1  0  0  0  0
 11 21  1  0  0  0  0
 11 22  1  0  0  0  0
M  END
> <id>
EN300-657405

> <smiles>
Cl.N[C@@H]1[C@H]2CC=3C=CC=CC3[C@@H]12 |&1:2,3,11,r|

> <IUPAC Name>
rac-(1R,1aS,6aS)-1H,1aH,6H,6aH-cyclopropa[a]inden-1-amine hydrochloride

> <CAS>
2137858-68-3

> <Purity>
95

> <URL>
https://www.enaminestore.com/catalog/EN300-657405

> <Saltdate>
Cl

> <ROCS_ShapeQuery>
_x1247relevant_x1083L0AP1_x1305L0BP1_

> <ROCS_TanimotoCombo>
1.015 

> <ROCS_ShapeTanimoto>
0.487 

> <ROCS_ColorTanimoto>
0.527 

> <ROCS_RefTversky>
0.407 

> <ROCS_RefColorTversky>
0.597 

> <ROCS_RefTverskyCombo>
1.005 

> <ROCS_FitTversky>
1.674 

> <ROCS_FitColorTversky>
0.818 

> <ROCS_FitTverskyCombo>
2.492 

> <ROCS_ColorScore>
-5.689

> <ROCS_Overlap>
1001.705

> <ROCS_Rank>
422                 

$$$$
untitled-dbase-12751_0
  -OEChem-06232314403D

 22 24  0     1  0  0  0  0  0999 V2000
   -9.3842   14.1672  -36.8358 C   0  0  0  0  0  0  0  0  0  0  0  0
   -9.1259   15.4395  -37.3670 C   0  0  0  0  0  0  0  0  0  0  0  0
  -10.6702   13.6279  -36.8776 C   0  0  0  0  0  0  0  0  0  0  0  0
  -10.1503   16.1920  -37.9481 C   0  0  0  0  0  0  0  0  0  0  0  0
  -11.6792   14.3823  -37.4550 C   0  0  0  0  0  0  0  0  0  0  0  0
  -11.4323   15.6617  -37.9919 C   0  0  0  0  0  0  0  0  0  0  0  0
  -13.1300   13.9925  -37.6136 C   0  0  0  0  0  0  0  0  0  0  0  0
  -12.6870   16.2560  -38.5512 C   0  0  2  0  0  0  0  0  0  0  0  0
  -13.7566   15.2030  -38.2896 C   0  0  1  0  0  0  0  0  0  0  0  0
  -13.4058   15.5950  -39.7044 C   0  0  1  0  0  0  0  0  0  0  0  0
  -14.3585   16.3657  -40.5119 N   0  0  0  0  0  0  0  0  0  0  0  0
   -8.5743   13.5973  -36.3886 H   0  0  0  0  0  0  0  0  0  0  0  0
   -8.1178   15.8434  -37.3263 H   0  0  0  0  0  0  0  0  0  0  0  0
  -10.8693   12.6433  -36.4686 H   0  0  0  0  0  0  0  0  0  0  0  0
   -9.9417   17.1754  -38.3570 H   0  0  0  0  0  0  0  0  0  0  0  0
  -13.2334   13.1005  -38.2386 H   0  0  0  0  0  0  0  0  0  0  0  0
  -13.5863   13.8245  -36.6333 H   0  0  0  0  0  0  0  0  0  0  0  0
  -12.9329   17.2834  -38.3069 H   0  0  0  0  0  0  0  0  0  0  0  0
  -14.7033   15.5078  -37.8664 H   0  0  0  0  0  0  0  0  0  0  0  0
  -12.8436   14.8754  -40.2918 H   0  0  0  0  0  0  0  0  0  0  0  0
  -13.8450   16.8528  -41.2045 H   0  0  0  0  0  0  0  0  0  0  0  0
  -14.9935   15.7267  -40.9231 H   0  0  0  0  0  0  0  0  0  0  0  0
  1  2  2  0  0  0  0
  1  3  1  0  0  0  0
  2  4  1  0  0  0  0
  3  5  2  0  0  0  0
  4  6  2  0  0  0  0
  5  6  1  0  0  0  0
  5  7  1  0  0  0  0
  6  8  1  1  0  0  0
  7  9  1  1  0  0  0
  8  9  1  0  0  0  0
  8 10  1  0  0  0  0
  9 10  1  0  0  0  0
 10 11  1  6  0  0  0
  1 12  1  0  0  0  0
  2 13  1  0  0  0  0
  3 14  1  0  0  0  0
  4 15  1  0  0  0  0
  7 16  1  0  0  0  0
  7 17  1  0  0  0  0
  8 18  1  0  0  0  0
  9 19  1  0  0  0  0
 10 20  1  0  0  0  0
 11 21  1  0  0  0  0
 11 22  1  0  0  0  0
M  END
> <id>
EN300-657406

> <smiles>
N[C@@H]1[C@H]2CC=3C=CC=CC3[C@@H]12 |&1:1,2,10,r|

> <IUPAC Name>
rac-(1R,1aS,6aS)-1H,1aH,6H,6aH-cyclopropa[a]inden-1-amine

> <CAS>
882188-75-2

> <URL>
https://www.enaminestore.com/catalog/EN300-657406

> <ROCS_ShapeQuery>
_x1247relevant_x1083L0AP1_x1305L0BP1_

> <ROCS_TanimotoCombo>
1.015 

> <ROCS_ShapeTanimoto>
0.487 

> <ROCS_ColorTanimoto>
0.527 

> <ROCS_RefTversky>
0.407 

> <ROCS_RefColorTversky>
0.597 

> <ROCS_RefTverskyCombo>
1.005 

> <ROCS_FitTversky>
1.674 

> <ROCS_FitColorTversky>
0.818 

> <ROCS_FitTverskyCombo>
2.492 

> <ROCS_ColorScore>
-5.689

> <ROCS_Overlap>
1001.705

> <ROCS_Rank>
423                 

$$$$
untitled-dbase-39601_0
  -OEChem-06232314403D

 22 24  0     1  0  0  0  0  0999 V2000
  -13.0440   15.2064  -36.8512 C   0  0  0  0  0  0  0  0  0  0  0  0
  -11.2236   14.4677  -38.1837 C   0  0  0  0  0  0  0  0  0  0  0  0
  -12.0165   16.6664  -38.6028 C   0  0  0  0  0  0  0  0  0  0  0  0
  -14.7573   15.0454  -38.7558 C   0  0  0  0  0  0  0  0  0  0  0  0
  -11.7157   15.7077  -37.4393 C   0  0  1  0  0  0  0  0  0  0  0  0
  -13.6314   14.3548  -38.0006 C   0  0  1  0  0  0  0  0  0  0  0  0
  -12.4855   14.3448  -39.0213 C   0  0  1  0  0  0  0  0  0  0  0  0
  -12.6717   15.7349  -39.6481 C   0  0  1  0  0  0  0  0  0  0  0  0
  -14.1212   15.9115  -39.7543 N   0  0  0  0  0  0  0  0  0  0  0  0
  -12.8484   14.5668  -35.9821 H   0  0  0  0  0  0  0  0  0  0  0  0
  -13.7011   16.0210  -36.5311 H   0  0  0  0  0  0  0  0  0  0  0  0
  -10.3274   14.6532  -38.7842 H   0  0  0  0  0  0  0  0  0  0  0  0
  -11.0600   13.6073  -37.5265 H   0  0  0  0  0  0  0  0  0  0  0  0
  -12.6557   17.5053  -38.3074 H   0  0  0  0  0  0  0  0  0  0  0  0
  -11.0852   17.0808  -39.0068 H   0  0  0  0  0  0  0  0  0  0  0  0
  -15.3682   14.2967  -39.2737 H   0  0  0  0  0  0  0  0  0  0  0  0
  -15.4184   15.6185  -38.0988 H   0  0  0  0  0  0  0  0  0  0  0  0
  -11.0260   16.1134  -36.6970 H   0  0  0  0  0  0  0  0  0  0  0  0
  -13.9112   13.3575  -37.6475 H   0  0  0  0  0  0  0  0  0  0  0  0
  -12.5248   13.5159  -39.7320 H   0  0  0  0  0  0  0  0  0  0  0  0
  -12.1788   15.8401  -40.6199 H   0  0  0  0  0  0  0  0  0  0  0  0
  -14.4268   15.6138  -40.6811 H   0  0  0  0  0  0  0  0  0  0  0  0
  1  5  1  0  0  0  0
  1  6  1  0  0  0  0
  2  5  1  0  0  0  0
  2  7  1  0  0  0  0
  3  5  1  0  0  0  0
  3  8  1  0  0  0  0
  4  6  1  0  0  0  0
  4  9  1  0  0  0  0
  6  7  1  0  0  0  0
  7  8  1  0  0  0  0
  8  9  1  0  0  0  0
  1 10  1  0  0  0  0
  1 11  1  0  0  0  0
  2 12  1  0  0  0  0
  2 13  1  0  0  0  0
  3 14  1  0  0  0  0
  3 15  1  0  0  0  0
  4 16  1  0  0  0  0
  4 17  1  0  0  0  0
  5 18  1  0  0  0  0
  6 19  1  0  0  0  0
  7 20  1  0  0  0  0
  8 21  1  0  0  0  0
  9 22  1  0  0  0  0
M  END
> <id>
EN300-393301

> <smiles>
Cl.C1NC2CC3CC1C2C3

> <MDLNUMBER>
MFCD30751374

> <IUPAC Name>
4-azatricyclo[4.2.1.0,3,7]nonane hydrochloride

> <CAS>
81089-81-8

> <Purity>
95

> <URL>
https://www.enaminestore.com/catalog/EN300-393301

> <Saltdate>
Cl

> <ROCS_ShapeQuery>
_x1247relevant_x1083L0AP1_x1305L0BP1_

> <ROCS_TanimotoCombo>
1.015 

> <ROCS_ShapeTanimoto>
0.414 

> <ROCS_ColorTanimoto>
0.601 

> <ROCS_RefTversky>
0.355 

> <ROCS_RefColorTversky>
0.918 

> <ROCS_RefTverskyCombo>
1.273 

> <ROCS_FitTversky>
1.668 

> <ROCS_FitColorTversky>
0.635 

> <ROCS_FitTverskyCombo>
2.302 

> <ROCS_ColorScore>
-9.101

> <ROCS_Overlap>
871.695

> <ROCS_Rank>
424                 

$$$$
untitled-dbase-11272_0
  -OEChem-06232314403D

 22 24  0     1  0  0  0  0  0999 V2000
  -13.0440   15.2064  -36.8512 C   0  0  0  0  0  0  0  0  0  0  0  0
  -11.2236   14.4677  -38.1837 C   0  0  0  0  0  0  0  0  0  0  0  0
  -12.0165   16.6664  -38.6028 C   0  0  0  0  0  0  0  0  0  0  0  0
  -14.7573   15.0454  -38.7558 C   0  0  0  0  0  0  0  0  0  0  0  0
  -11.7157   15.7077  -37.4393 C   0  0  1  0  0  0  0  0  0  0  0  0
  -13.6314   14.3548  -38.0006 C   0  0  1  0  0  0  0  0  0  0  0  0
  -12.4855   14.3448  -39.0213 C   0  0  1  0  0  0  0  0  0  0  0  0
  -12.6717   15.7349  -39.6481 C   0  0  1  0  0  0  0  0  0  0  0  0
  -14.1212   15.9115  -39.7543 N   0  0  0  0  0  0  0  0  0  0  0  0
  -12.8484   14.5668  -35.9821 H   0  0  0  0  0  0  0  0  0  0  0  0
  -13.7011   16.0210  -36.5311 H   0  0  0  0  0  0  0  0  0  0  0  0
  -10.3274   14.6532  -38.7842 H   0  0  0  0  0  0  0  0  0  0  0  0
  -11.0600   13.6073  -37.5265 H   0  0  0  0  0  0  0  0  0  0  0  0
  -12.6557   17.5053  -38.3074 H   0  0  0  0  0  0  0  0  0  0  0  0
  -11.0852   17.0808  -39.0068 H   0  0  0  0  0  0  0  0  0  0  0  0
  -15.3682   14.2967  -39.2737 H   0  0  0  0  0  0  0  0  0  0  0  0
  -15.4184   15.6185  -38.0988 H   0  0  0  0  0  0  0  0  0  0  0  0
  -11.0260   16.1134  -36.6970 H   0  0  0  0  0  0  0  0  0  0  0  0
  -13.9112   13.3575  -37.6475 H   0  0  0  0  0  0  0  0  0  0  0  0
  -12.5248   13.5159  -39.7320 H   0  0  0  0  0  0  0  0  0  0  0  0
  -12.1788   15.8401  -40.6199 H   0  0  0  0  0  0  0  0  0  0  0  0
  -14.4268   15.6138  -40.6811 H   0  0  0  0  0  0  0  0  0  0  0  0
  1  5  1  0  0  0  0
  1  6  1  0  0  0  0
  2  5  1  0  0  0  0
  2  7  1  0  0  0  0
  3  5  1  0  0  0  0
  3  8  1  0  0  0  0
  4  6  1  0  0  0  0
  4  9  1  0  0  0  0
  6  7  1  0  0  0  0
  7  8  1  0  0  0  0
  8  9  1  0  0  0  0
  1 10  1  0  0  0  0
  1 11  1  0  0  0  0
  2 12  1  0  0  0  0
  2 13  1  0  0  0  0
  3 14  1  0  0  0  0
  3 15  1  0  0  0  0
  4 16  1  0  0  0  0
  4 17  1  0  0  0  0
  5 18  1  0  0  0  0
  6 19  1  0  0  0  0
  7 20  1  0  0  0  0
  8 21  1  0  0  0  0
  9 22  1  0  0  0  0
M  END
> <id>
EN300-393302

> <smiles>
C1NC2CC3CC1C2C3

> <MDLNUMBER>
MFCD24496774

> <IUPAC Name>
4-azatricyclo[4.2.1.0,3,7]nonane

> <CAS>
6253-50-5

> <URL>
https://www.enaminestore.com/catalog/EN300-393302

> <ROCS_ShapeQuery>
_x1247relevant_x1083L0AP1_x1305L0BP1_

> <ROCS_TanimotoCombo>
1.015 

> <ROCS_ShapeTanimoto>
0.414 

> <ROCS_ColorTanimoto>
0.601 

> <ROCS_RefTversky>
0.355 

> <ROCS_RefColorTversky>
0.918 

> <ROCS_RefTverskyCombo>
1.273 

> <ROCS_FitTversky>
1.668 

> <ROCS_FitColorTversky>
0.635 

> <ROCS_FitTverskyCombo>
2.302 

> <ROCS_ColorScore>
-9.101

> <ROCS_Overlap>
871.695

> <ROCS_Rank>
425                 

$$$$
untitled-dbase-42973_0
  -OEChem-06232314403D

 27 29  0     0  0  0  0  0  0999 V2000
  -11.3398   15.3096  -37.0490 C   0  0  0  0  0  0  0  0  0  0  0  0
  -13.3178   13.8250  -37.4659 C   0  0  0  0  0  0  0  0  0  0  0  0
  -11.5546   14.1006  -39.2356 C   0  0  0  0  0  0  0  0  0  0  0  0
  -13.6143   16.3132  -37.3767 C   0  0  0  0  0  0  0  0  0  0  0  0
  -11.8548   16.5886  -39.1439 C   0  0  0  0  0  0  0  0  0  0  0  0
  -11.8098   14.0069  -37.7199 C   0  0  0  0  0  0  0  0  0  0  0  0
  -12.1094   16.5097  -37.6286 C   0  0  0  0  0  0  0  0  0  0  0  0
  -14.0984   15.0148  -38.0528 C   0  0  0  0  0  0  0  0  0  0  0  0
  -12.3294   15.2913  -39.8281 C   0  0  0  0  0  0  0  0  0  0  0  0
  -13.8349   15.0795  -39.5700 C   0  0  0  0  0  0  0  0  0  0  0  0
  -14.5973   16.1353  -40.1452 O   0  0  0  0  0  0  0  0  0  0  0  0
  -11.4977   15.2512  -35.9652 H   0  0  0  0  0  0  0  0  0  0  0  0
  -10.2626   15.4443  -37.2065 H   0  0  0  0  0  0  0  0  0  0  0  0
  -13.6639   12.8885  -37.9203 H   0  0  0  0  0  0  0  0  0  0  0  0
  -13.5091   13.7460  -36.3886 H   0  0  0  0  0  0  0  0  0  0  0  0
  -10.4813   14.2185  -39.4281 H   0  0  0  0  0  0  0  0  0  0  0  0
  -11.8657   13.1697  -39.7258 H   0  0  0  0  0  0  0  0  0  0  0  0
  -13.8085   16.2652  -36.2980 H   0  0  0  0  0  0  0  0  0  0  0  0
  -14.1747   17.1749  -37.7590 H   0  0  0  0  0  0  0  0  0  0  0  0
  -12.3763   17.4553  -39.5671 H   0  0  0  0  0  0  0  0  0  0  0  0
  -10.7852   16.7405  -39.3351 H   0  0  0  0  0  0  0  0  0  0  0  0
  -11.2591   13.1562  -37.3036 H   0  0  0  0  0  0  0  0  0  0  0  0
  -11.7704   17.4337  -37.1471 H   0  0  0  0  0  0  0  0  0  0  0  0
  -15.1715   14.8963  -37.8636 H   0  0  0  0  0  0  0  0  0  0  0  0
  -12.1399   15.3691  -40.9050 H   0  0  0  0  0  0  0  0  0  0  0  0
  -14.1695   14.1475  -40.0416 H   0  0  0  0  0  0  0  0  0  0  0  0
  -14.3988   16.1358  -41.0948 H   0  0  0  0  0  0  0  0  0  0  0  0
  1  6  1  0  0  0  0
  1  7  1  0  0  0  0
  2  6  1  0  0  0  0
  2  8  1  0  0  0  0
  3  6  1  0  0  0  0
  3  9  1  0  0  0  0
  4  7  1  0  0  0  0
  4  8  1  0  0  0  0
  5  7  1  0  0  0  0
  5  9  1  0  0  0  0
  8 10  1  0  0  0  0
  9 10  1  0  0  0  0
 10 11  1  0  0  0  0
  1 12  1  0  0  0  0
  1 13  1  0  0  0  0
  2 14  1  0  0  0  0
  2 15  1  0  0  0  0
  3 16  1  0  0  0  0
  3 17  1  0  0  0  0
  4 18  1  0  0  0  0
  4 19  1  0  0  0  0
  5 20  1  0  0  0  0
  5 21  1  0  0  0  0
  6 22  1  0  0  0  0
  7 23  1  0  0  0  0
  8 24  1  0  0  0  0
  9 25  1  0  0  0  0
 10 26  1  0  0  0  0
 11 27  1  0  0  0  0
M  END
> <id>
EN300-16725

> <smiles>
OC1C2CC3CC(C2)CC1C3

> <MDLNUMBER>
MFCD00074744

> <IUPAC Name>
adamantan-2-ol

> <CAS>
700-57-2

> <Purity>
95

> <URL>
https://www.enaminestore.com/catalog/EN300-16725

> <MP>
260-265

> <ROCS_ShapeQuery>
_x1247relevant_x1083L0AP1_x1305L0BP1_

> <ROCS_TanimotoCombo>
1.015 

> <ROCS_ShapeTanimoto>
0.449 

> <ROCS_ColorTanimoto>
0.565 

> <ROCS_RefTversky>
0.385 

> <ROCS_RefColorTversky>
0.682 

> <ROCS_RefTverskyCombo>
1.067 

> <ROCS_FitTversky>
1.589 

> <ROCS_FitColorTversky>
0.768 

> <ROCS_FitTverskyCombo>
2.357 

> <ROCS_ColorScore>
-6.548

> <ROCS_Overlap>
946.850

> <ROCS_Rank>
426                 

$$$$
untitled-dbase-31212_0
  -OEChem-06232314403D

 26 28  0     1  0  0  0  0  0999 V2000
  -10.6581   13.6536  -36.9784 C   0  0  0  0  0  0  0  0  0  0  0  0
   -9.9246   15.7128  -37.5023 C   0  0  0  0  0  0  0  0  0  0  0  0
  -14.0951   14.9522  -38.2264 C   0  0  0  0  0  0  0  0  0  0  0  0
  -13.5960   16.3538  -38.5826 C   0  0  0  0  0  0  0  0  0  0  0  0
  -11.9145   14.4654  -37.0944 C   0  0  1  0  0  0  0  0  0  0  0  0
  -11.4164   15.8638  -37.4499 C   0  0  2  0  0  0  0  0  0  0  0  0
  -12.8041   14.1213  -38.3005 C   0  0  1  0  0  0  0  0  0  0  0  0
  -12.0944   16.1143  -38.8072 C   0  0  2  0  0  0  0  0  0  0  0  0
  -13.0448   12.6555  -38.5893 C   0  0  0  0  0  0  0  0  0  0  0  0
  -11.4517   17.1300  -39.7268 C   0  0  0  0  0  0  0  0  0  0  0  0
  -10.6024   12.4672  -36.6918 O   0  0  0  0  0  0  0  0  0  0  0  0
   -9.1279   16.6066  -37.7451 O   0  0  0  0  0  0  0  0  0  0  0  0
   -9.5723   14.4300  -37.2288 O   0  0  0  0  0  0  0  0  0  0  0  0
  -12.1125   14.7863  -39.3864 O   0  0  0  0  0  0  0  0  0  0  0  0
  -14.5750   14.9088  -37.2438 H   0  0  0  0  0  0  0  0  0  0  0  0
  -14.8258   14.6287  -38.9769 H   0  0  0  0  0  0  0  0  0  0  0  0
  -14.0924   16.6904  -39.5002 H   0  0  0  0  0  0  0  0  0  0  0  0
  -13.7976   17.0896  -37.7978 H   0  0  0  0  0  0  0  0  0  0  0  0
  -12.4444   14.4414  -36.1366 H   0  0  0  0  0  0  0  0  0  0  0  0
  -11.6741   16.6062  -36.6878 H   0  0  0  0  0  0  0  0  0  0  0  0
  -12.0965   12.1125  -38.6311 H   0  0  0  0  0  0  0  0  0  0  0  0
  -13.5556   12.5329  -39.5485 H   0  0  0  0  0  0  0  0  0  0  0  0
  -13.6651   12.2079  -37.8077 H   0  0  0  0  0  0  0  0  0  0  0  0
  -10.3870   16.9138  -39.8519 H   0  0  0  0  0  0  0  0  0  0  0  0
  -11.5535   18.1379  -39.3151 H   0  0  0  0  0  0  0  0  0  0  0  0
  -11.9266   17.1093  -40.7117 H   0  0  0  0  0  0  0  0  0  0  0  0
  1  5  1  0  0  0  0
  1 11  2  0  0  0  0
  1 13  1  0  0  0  0
  2  6  1  0  0  0  0
  2 12  2  0  0  0  0
  2 13  1  0  0  0  0
  3  4  1  0  0  0  0
  3  7  1  0  0  0  0
  4  8  1  0  0  0  0
  5  6  1  0  0  0  0
  5  7  1  0  0  0  0
  6  8  1  0  0  0  0
  7  9  1  0  0  0  0
  7 14  1  0  0  0  0
  8 10  1  0  0  0  0
  8 14  1  0  0  0  0
  3 15  1  0  0  0  0
  3 16  1  0  0  0  0
  4 17  1  0  0  0  0
  4 18  1  0  0  0  0
  5 19  1  0  0  0  0
  6 20  1  0  0  0  0
  9 21  1  0  0  0  0
  9 22  1  0  0  0  0
  9 23  1  0  0  0  0
 10 24  1  0  0  0  0
 10 25  1  0  0  0  0
 10 26  1  0  0  0  0
M  END
> <id>
EN300-7455332

> <smiles>
CC1(CCC2(C)O1)C3C2C(=O)OC3=O

> <IUPAC Name>
1,7-dimethyl-4,10-dioxatricyclo[5.2.1.0,2,6]decane-3,5-dione

> <CAS>
111957-97-2

> <URL>
https://www.enaminestore.com/catalog/EN300-7455332

> <ROCS_ShapeQuery>
_x1247relevant_x1083L0AP1_x1305L0BP1_

> <ROCS_TanimotoCombo>
1.014 

> <ROCS_ShapeTanimoto>
0.523 

> <ROCS_ColorTanimoto>
0.492 

> <ROCS_RefTversky>
0.449 

> <ROCS_RefColorTversky>
0.685 

> <ROCS_RefTverskyCombo>
1.133 

> <ROCS_FitTversky>
1.462 

> <ROCS_FitColorTversky>
0.636 

> <ROCS_FitTverskyCombo>
2.098 

> <ROCS_ColorScore>
-6.646

> <ROCS_Overlap>
1106.290

> <ROCS_Rank>
427                 

$$$$
untitled-dbase-35049_1
  -OEChem-06232314403D

 35 38  0     1  0  0  0  0  0999 V2000
   -8.7938   14.1227  -36.2313 C   0  0  0  0  0  0  0  0  0  0  0  0
  -13.4832   16.2732  -37.1497 C   0  0  0  0  0  0  0  0  0  0  0  0
  -13.4050   13.8083  -37.6367 C   0  0  0  0  0  0  0  0  0  0  0  0
  -10.1498   13.8535  -35.5933 C   0  0  0  0  0  0  0  0  0  0  0  0
  -14.1593   15.4129  -39.3979 C   0  0  0  0  0  0  0  0  0  0  0  0
  -12.1135   16.6708  -39.1952 C   0  0  0  0  0  0  0  0  0  0  0  0
  -12.0354   14.3033  -39.6645 C   0  0  0  0  0  0  0  0  0  0  0  0
   -8.9442   14.3286  -37.7289 C   0  0  0  0  0  0  0  0  0  0  0  0
  -14.1743   15.1149  -37.8868 C   0  0  0  0  0  0  0  0  0  0  0  0
  -12.0361   16.4090  -37.6691 C   0  0  2  0  0  0  0  0  0  0  0  0
  -11.9595   13.9623  -38.1552 C   0  0  1  0  0  0  0  0  0  0  0  0
  -11.2040   15.1102  -37.4035 C   0  0  0  0  0  0  0  0  0  0  0  0
  -11.0957   14.9073  -35.9465 N   0  0  0  0  0  0  0  0  0  0  0  0
  -12.7785   15.5580  -39.9045 N   0  0  0  0  0  0  0  0  0  0  0  0
   -9.9054   15.3478  -37.9921 O   0  0  0  0  0  0  0  0  0  0  0  0
   -8.3211   14.9973  -35.7719 H   0  0  0  0  0  0  0  0  0  0  0  0
   -8.1388   13.2608  -36.0499 H   0  0  0  0  0  0  0  0  0  0  0  0
  -14.0301   17.2064  -37.3299 H   0  0  0  0  0  0  0  0  0  0  0  0
  -13.4994   16.1043  -36.0678 H   0  0  0  0  0  0  0  0  0  0  0  0
  -13.4192   13.5532  -36.5702 H   0  0  0  0  0  0  0  0  0  0  0  0
  -13.9003   12.9792  -38.1598 H   0  0  0  0  0  0  0  0  0  0  0  0
  -10.5377   12.8924  -35.9453 H   0  0  0  0  0  0  0  0  0  0  0  0
  -10.0549   13.7707  -34.5062 H   0  0  0  0  0  0  0  0  0  0  0  0
  -14.6694   14.6118  -39.9471 H   0  0  0  0  0  0  0  0  0  0  0  0
  -14.7256   16.3286  -39.6091 H   0  0  0  0  0  0  0  0  0  0  0  0
  -12.6601   17.6026  -39.3860 H   0  0  0  0  0  0  0  0  0  0  0  0
  -11.1118   16.8275  -39.6121 H   0  0  0  0  0  0  0  0  0  0  0  0
  -11.0301   14.3838  -40.0969 H   0  0  0  0  0  0  0  0  0  0  0  0
  -12.5209   13.4826  -40.2094 H   0  0  0  0  0  0  0  0  0  0  0  0
   -7.9893   14.5835  -38.1983 H   0  0  0  0  0  0  0  0  0  0  0  0
   -9.2989   13.4065  -38.1995 H   0  0  0  0  0  0  0  0  0  0  0  0
  -15.2081   15.0130  -37.5382 H   0  0  0  0  0  0  0  0  0  0  0  0
  -11.5693   17.2864  -37.2044 H   0  0  0  0  0  0  0  0  0  0  0  0
  -11.4162   13.0171  -38.0448 H   0  0  0  0  0  0  0  0  0  0  0  0
  -12.0182   14.6498  -35.5864 H   0  0  0  0  0  0  0  0  0  0  0  0
  1  4  1  0  0  0  0
  1  8  1  0  0  0  0
  2  9  1  0  0  0  0
  2 10  1  0  0  0  0
  3  9  1  0  0  0  0
  3 11  1  0  0  0  0
  4 13  1  0  0  0  0
  5  9  1  0  0  0  0
  5 14  1  0  0  0  0
  6 10  1  0  0  0  0
  6 14  1  0  0  0  0
  7 11  1  0  0  0  0
  7 14  1  0  0  0  0
  8 15  1  0  0  0  0
 10 12  1  0  0  0  0
 11 12  1  0  0  0  0
 12 13  1  0  0  0  0
 12 15  1  0  0  0  0
  1 16  1  0  0  0  0
  1 17  1  0  0  0  0
  2 18  1  0  0  0  0
  2 19  1  0  0  0  0
  3 20  1  0  0  0  0
  3 21  1  0  0  0  0
  4 22  1  0  0  0  0
  4 23  1  0  0  0  0
  5 24  1  0  0  0  0
  5 25  1  0  0  0  0
  6 26  1  0  0  0  0
  6 27  1  0  0  0  0
  7 28  1  0  0  0  0
  7 29  1  0  0  0  0
  8 30  1  0  0  0  0
  8 31  1  0  0  0  0
  9 32  1  0  0  0  0
 10 33  1  0  0  0  0
 11 34  1  0  0  0  0
 13 35  1  0  0  0  0
M  END
> <id>
EN300-1278457

> <smiles>
C1CNC2(OC1)C3CC4CC2CN(C4)C3

> <IUPAC Name>
5'-azaspiro[1,3-oxazinane-2,2'-tricyclo[3.3.1.1,3,7]decane]

> <CAS>
2168862-90-4

> <URL>
https://www.enaminestore.com/catalog/EN300-1278457

> <ROCS_ShapeQuery>
_x1247relevant_x1083L0AP1_x1305L0BP1_

> <ROCS_TanimotoCombo>
1.014 

> <ROCS_ShapeTanimoto>
0.559 

> <ROCS_ColorTanimoto>
0.455 

> <ROCS_RefTversky>
0.473 

> <ROCS_RefColorTversky>
0.679 

> <ROCS_RefTverskyCombo>
1.152 

> <ROCS_FitTversky>
1.484 

> <ROCS_FitColorTversky>
0.580 

> <ROCS_FitTverskyCombo>
2.064 

> <ROCS_ColorScore>
-6.626

> <ROCS_Overlap>
1167.722

> <ROCS_Rank>
428                 

$$$$
untitled-dbase-37428_0
  -OEChem-06232314403D

 26 28  0     1  0  0  0  0  0999 V2000
  -10.6553   13.6495  -36.9865 C   0  0  0  0  0  0  0  0  0  0  0  0
   -9.9254   15.7144  -37.4920 C   0  0  0  0  0  0  0  0  0  0  0  0
  -14.0926   14.9524  -38.2295 C   0  0  0  0  0  0  0  0  0  0  0  0
  -13.5935   16.3547  -38.5829 C   0  0  0  0  0  0  0  0  0  0  0  0
  -11.9134   14.4596  -37.0975 C   0  0  1  0  0  0  0  0  0  0  0  0
  -11.4177   15.8609  -37.4449 C   0  0  2  0  0  0  0  0  0  0  0  0
  -12.8018   14.1212  -38.3060 C   0  0  1  0  0  0  0  0  0  0  0  0
  -12.0913   16.1163  -38.8035 C   0  0  2  0  0  0  0  0  0  0  0  0
  -13.0433   12.6567  -38.6011 C   0  0  0  0  0  0  0  0  0  0  0  0
  -11.4455   17.1352  -39.7172 C   0  0  0  0  0  0  0  0  0  0  0  0
  -10.5974   12.4607  -36.7101 O   0  0  0  0  0  0  0  0  0  0  0  0
   -9.1303   16.6127  -37.7239 O   0  0  0  0  0  0  0  0  0  0  0  0
   -9.5706   14.4305  -37.2277 O   0  0  0  0  0  0  0  0  0  0  0  0
  -12.1082   14.7903  -39.3880 O   0  0  0  0  0  0  0  0  0  0  0  0
  -14.5720   14.9070  -37.2466 H   0  0  0  0  0  0  0  0  0  0  0  0
  -14.8244   14.6309  -38.9799 H   0  0  0  0  0  0  0  0  0  0  0  0
  -14.0871   16.6914  -39.5021 H   0  0  0  0  0  0  0  0  0  0  0  0
  -13.7983   17.0894  -37.7980 H   0  0  0  0  0  0  0  0  0  0  0  0
  -12.4438   14.4288  -36.1405 H   0  0  0  0  0  0  0  0  0  0  0  0
  -11.6800   16.5987  -36.6797 H   0  0  0  0  0  0  0  0  0  0  0  0
  -12.0953   12.1133  -38.6444 H   0  0  0  0  0  0  0  0  0  0  0  0
  -13.5535   12.5385  -39.5611 H   0  0  0  0  0  0  0  0  0  0  0  0
  -13.6645   12.2063  -37.8218 H   0  0  0  0  0  0  0  0  0  0  0  0
  -10.3804   16.9194  -39.8395 H   0  0  0  0  0  0  0  0  0  0  0  0
  -11.5486   18.1416  -39.3021 H   0  0  0  0  0  0  0  0  0  0  0  0
  -11.9170   17.1182  -40.7038 H   0  0  0  0  0  0  0  0  0  0  0  0
  1  5  1  1  0  0  0
  1 11  2  0  0  0  0
  1 13  1  0  0  0  0
  2  6  1  1  0  0  0
  2 12  2  0  0  0  0
  2 13  1  0  0  0  0
  3  4  1  0  0  0  0
  3  7  1  0  0  0  0
  4  8  1  0  0  0  0
  5  6  1  0  0  0  0
  5  7  1  0  0  0  0
  6  8  1  0  0  0  0
  7  9  1  1  0  0  0
  7 14  1  0  0  0  0
  8 10  1  1  0  0  0
  8 14  1  0  0  0  0
  3 15  1  0  0  0  0
  3 16  1  0  0  0  0
  4 17  1  0  0  0  0
  4 18  1  0  0  0  0
  5 19  1  0  0  0  0
  6 20  1  0  0  0  0
  9 21  1  0  0  0  0
  9 22  1  0  0  0  0
  9 23  1  0  0  0  0
 10 24  1  0  0  0  0
 10 25  1  0  0  0  0
 10 26  1  0  0  0  0
M  END
> <id>
EN300-26624414

> <smiles>
C[C@@]1(CC[C@]2(C)O1)[C@@H]3[C@H]2C(=O)OC3=O

> <MDLNUMBER>
MFCD00034574

> <IUPAC Name>
(1R,2S,6R,7S)-1,7-dimethyl-4,10-dioxatricyclo[5.2.1.0,2,6]decane-3,5-dione

> <CAS>
88980-52-3

> <Purity>
95

> <URL>
https://www.enaminestore.com/catalog/EN300-26624414

> <ROCS_ShapeQuery>
_x1247relevant_x1083L0AP1_x1305L0BP1_

> <ROCS_TanimotoCombo>
1.014 

> <ROCS_ShapeTanimoto>
0.522 

> <ROCS_ColorTanimoto>
0.492 

> <ROCS_RefTversky>
0.448 

> <ROCS_RefColorTversky>
0.685 

> <ROCS_RefTverskyCombo>
1.133 

> <ROCS_FitTversky>
1.461 

> <ROCS_FitColorTversky>
0.636 

> <ROCS_FitTverskyCombo>
2.097 

> <ROCS_ColorScore>
-6.646

> <ROCS_Overlap>
1106.106

> <ROCS_Rank>
429                 

$$$$
untitled-dbase-2148_0
  -OEChem-06232314403D

 21 23  0     1  0  0  0  0  0999 V2000
   -9.5663   13.8261  -36.6554 C   0  0  0  0  0  0  0  0  0  0  0  0
  -10.8017   13.3503  -37.0953 C   0  0  0  0  0  0  0  0  0  0  0  0
   -9.3064   15.2031  -36.7072 C   0  0  0  0  0  0  0  0  0  0  0  0
  -11.6991   14.2837  -37.5489 C   0  0  0  0  0  0  0  0  0  0  0  0
  -11.3449   15.6344  -37.5595 C   0  0  0  0  0  0  0  0  0  0  0  0
  -12.9820   14.5126  -39.6353 C   0  0  0  0  0  0  0  0  0  0  0  0
  -12.5922   16.0170  -39.6527 C   0  0  0  0  0  0  0  0  0  0  0  0
  -13.0827   14.2115  -38.1294 C   0  0  2  0  0  0  0  0  0  0  0  0
  -12.5352   16.3619  -38.1549 C   0  0  1  0  0  0  0  0  0  0  0  0
  -10.1749   16.1416  -37.1606 N   0  0  0  0  0  0  0  0  0  0  0  0
  -13.6752   15.5142  -37.7044 N   0  0  0  0  0  0  0  0  0  0  0  0
   -8.8131   13.1400  -36.2821 H   0  0  0  0  0  0  0  0  0  0  0  0
  -11.0341   12.2926  -37.0800 H   0  0  0  0  0  0  0  0  0  0  0  0
   -8.3489   15.5907  -36.3724 H   0  0  0  0  0  0  0  0  0  0  0  0
  -13.9449   14.3697  -40.1399 H   0  0  0  0  0  0  0  0  0  0  0  0
  -12.2288   13.9003  -40.1436 H   0  0  0  0  0  0  0  0  0  0  0  0
  -11.6358   16.1747  -40.1632 H   0  0  0  0  0  0  0  0  0  0  0  0
  -13.3647   16.5973  -40.1711 H   0  0  0  0  0  0  0  0  0  0  0  0
  -13.6666   13.3332  -37.8498 H   0  0  0  0  0  0  0  0  0  0  0  0
  -12.6098   17.4198  -37.8984 H   0  0  0  0  0  0  0  0  0  0  0  0
  -14.5212   15.7234  -38.2344 H   0  0  0  0  0  0  0  0  0  0  0  0
  1  2  1  0  0  0  0
  1  3  2  0  0  0  0
  2  4  2  0  0  0  0
  3 10  1  0  0  0  0
  4  5  1  0  0  0  0
  4  8  1  0  0  0  0
  5  9  1  0  0  0  0
  5 10  2  0  0  0  0
  6  7  1  0  0  0  0
  6  8  1  0  0  0  0
  7  9  1  0  0  0  0
  8 11  1  0  0  0  0
  9 11  1  0  0  0  0
  1 12  1  0  0  0  0
  2 13  1  0  0  0  0
  3 14  1  0  0  0  0
  6 15  1  0  0  0  0
  6 16  1  0  0  0  0
  7 17  1  0  0  0  0
  7 18  1  0  0  0  0
  8 19  1  0  0  0  0
  9 20  1  0  0  0  0
 11 21  1  0  0  0  0
M  END
> <id>
EN300-114942

> <smiles>
Cl.Cl.C1CC2NC1C=3C=CC=NC23

> <MDLNUMBER>
MFCD22565945

> <IUPAC Name>
3,11-diazatricyclo[6.2.1.0,2,7]undeca-2,4,6-triene dihydrochloride

> <CAS>
1423025-91-5

> <Purity>
95

> <URL>
https://www.enaminestore.com/catalog/EN300-114942

> <Saltdate>
Cl

> <MP>
175-176

> <ROCS_ShapeQuery>
_x1247relevant_x1083L0AP1_x1305L0BP1_

> <ROCS_TanimotoCombo>
1.014 

> <ROCS_ShapeTanimoto>
0.499 

> <ROCS_ColorTanimoto>
0.515 

> <ROCS_RefTversky>
0.417 

> <ROCS_RefColorTversky>
0.704 

> <ROCS_RefTverskyCombo>
1.121 

> <ROCS_FitTversky>
1.651 

> <ROCS_FitColorTversky>
0.658 

> <ROCS_FitTverskyCombo>
2.309 

> <ROCS_ColorScore>
-6.834

> <ROCS_Overlap>
1025.025

> <ROCS_Rank>
430                 

$$$$
untitled-dbase-20458_0
  -OEChem-06232314403D

 21 23  0     1  0  0  0  0  0999 V2000
   -9.5663   13.8261  -36.6554 C   0  0  0  0  0  0  0  0  0  0  0  0
  -10.8017   13.3503  -37.0953 C   0  0  0  0  0  0  0  0  0  0  0  0
   -9.3064   15.2031  -36.7072 C   0  0  0  0  0  0  0  0  0  0  0  0
  -11.6991   14.2837  -37.5489 C   0  0  0  0  0  0  0  0  0  0  0  0
  -11.3449   15.6344  -37.5595 C   0  0  0  0  0  0  0  0  0  0  0  0
  -12.9820   14.5126  -39.6353 C   0  0  0  0  0  0  0  0  0  0  0  0
  -12.5922   16.0170  -39.6527 C   0  0  0  0  0  0  0  0  0  0  0  0
  -13.0827   14.2115  -38.1294 C   0  0  2  0  0  0  0  0  0  0  0  0
  -12.5352   16.3619  -38.1549 C   0  0  1  0  0  0  0  0  0  0  0  0
  -10.1749   16.1416  -37.1606 N   0  0  0  0  0  0  0  0  0  0  0  0
  -13.6752   15.5142  -37.7044 N   0  0  0  0  0  0  0  0  0  0  0  0
   -8.8131   13.1400  -36.2821 H   0  0  0  0  0  0  0  0  0  0  0  0
  -11.0341   12.2926  -37.0800 H   0  0  0  0  0  0  0  0  0  0  0  0
   -8.3489   15.5907  -36.3724 H   0  0  0  0  0  0  0  0  0  0  0  0
  -13.9449   14.3697  -40.1399 H   0  0  0  0  0  0  0  0  0  0  0  0
  -12.2288   13.9003  -40.1436 H   0  0  0  0  0  0  0  0  0  0  0  0
  -11.6358   16.1747  -40.1632 H   0  0  0  0  0  0  0  0  0  0  0  0
  -13.3647   16.5973  -40.1711 H   0  0  0  0  0  0  0  0  0  0  0  0
  -13.6666   13.3332  -37.8498 H   0  0  0  0  0  0  0  0  0  0  0  0
  -12.6098   17.4198  -37.8984 H   0  0  0  0  0  0  0  0  0  0  0  0
  -14.5212   15.7234  -38.2344 H   0  0  0  0  0  0  0  0  0  0  0  0
  1  2  1  0  0  0  0
  1  3  2  0  0  0  0
  2  4  2  0  0  0  0
  3 10  1  0  0  0  0
  4  5  1  0  0  0  0
  4  8  1  0  0  0  0
  5  9  1  0  0  0  0
  5 10  2  0  0  0  0
  6  7  1  0  0  0  0
  6  8  1  0  0  0  0
  7  9  1  0  0  0  0
  8 11  1  0  0  0  0
  9 11  1  0  0  0  0
  1 12  1  0  0  0  0
  2 13  1  0  0  0  0
  3 14  1  0  0  0  0
  6 15  1  0  0  0  0
  6 16  1  0  0  0  0
  7 17  1  0  0  0  0
  7 18  1  0  0  0  0
  8 19  1  0  0  0  0
  9 20  1  0  0  0  0
 11 21  1  0  0  0  0
M  END
> <id>
EN300-148983

> <smiles>
C1CC2NC1C=3C=CC=NC23

> <MDLNUMBER>
MFCD19226234

> <IUPAC Name>
3,11-diazatricyclo[6.2.1.0,2,7]undeca-2,4,6-triene

> <CAS>
1001004-49-4

> <URL>
https://www.enaminestore.com/catalog/EN300-148983

> <ROCS_ShapeQuery>
_x1247relevant_x1083L0AP1_x1305L0BP1_

> <ROCS_TanimotoCombo>
1.014 

> <ROCS_ShapeTanimoto>
0.499 

> <ROCS_ColorTanimoto>
0.515 

> <ROCS_RefTversky>
0.417 

> <ROCS_RefColorTversky>
0.704 

> <ROCS_RefTverskyCombo>
1.121 

> <ROCS_FitTversky>
1.651 

> <ROCS_FitColorTversky>
0.658 

> <ROCS_FitTverskyCombo>
2.309 

> <ROCS_ColorScore>
-6.834

> <ROCS_Overlap>
1025.025

> <ROCS_Rank>
431                 

$$$$
untitled-dbase-9992_0
  -OEChem-06232314403D

 20 21  0     1  0  0  0  0  0999 V2000
  -13.4598   15.9903  -39.5029 C   0  0  0  0  0  0  0  0  0  0  0  0
  -14.0498   14.7944  -39.3243 C   0  0  0  0  0  0  0  0  0  0  0  0
  -11.0626   15.7596  -38.8992 C   0  0  0  0  0  0  0  0  0  0  0  0
  -11.1464   14.4102  -38.1616 C   0  0  0  0  0  0  0  0  0  0  0  0
  -12.6446   15.9655  -37.1420 C   0  0  0  0  0  0  0  0  0  0  0  0
  -12.3789   16.4725  -38.5612 C   0  0  2  0  0  0  0  0  0  0  0  0
  -13.6433   13.8909  -38.1831 C   0  0  1  0  0  0  0  0  0  0  0  0
  -12.4617   14.4560  -37.3512 C   0  0  1  0  0  0  0  0  0  0  0  0
  -15.2749   14.1102  -40.5587 Br  0  0  0  0  0  0  0  0  0  0  0  0
  -15.1827   13.6465  -36.9803 Br  0  0  0  0  0  0  0  0  0  0  0  0
  -13.7006   16.6153  -40.3577 H   0  0  0  0  0  0  0  0  0  0  0  0
  -10.2125   16.3340  -38.5116 H   0  0  0  0  0  0  0  0  0  0  0  0
  -10.9058   15.6254  -39.9751 H   0  0  0  0  0  0  0  0  0  0  0  0
  -11.1109   13.5638  -38.8554 H   0  0  0  0  0  0  0  0  0  0  0  0
  -10.2892   14.3145  -37.4846 H   0  0  0  0  0  0  0  0  0  0  0  0
  -11.8960   16.3548  -36.4408 H   0  0  0  0  0  0  0  0  0  0  0  0
  -13.6344   16.2433  -36.7662 H   0  0  0  0  0  0  0  0  0  0  0  0
  -12.2927   17.5620  -38.6012 H   0  0  0  0  0  0  0  0  0  0  0  0
  -13.4018   12.8838  -38.5408 H   0  0  0  0  0  0  0  0  0  0  0  0
  -12.3506   13.9190  -36.4030 H   0  0  0  0  0  0  0  0  0  0  0  0
  1  2  2  0  0  0  0
  1  6  1  0  0  0  0
  2  7  1  0  0  0  0
  2  9  1  0  0  0  0
  3  4  1  0  0  0  0
  3  6  1  6  0  0  0
  4  8  1  6  0  0  0
  5  6  1  0  0  0  0
  5  8  1  0  0  0  0
  7  8  1  0  0  0  0
  7 10  1  0  0  0  0
  1 11  1  0  0  0  0
  3 12  1  0  0  0  0
  3 13  1  0  0  0  0
  4 14  1  0  0  0  0
  4 15  1  0  0  0  0
  5 16  1  0  0  0  0
  5 17  1  0  0  0  0
  6 18  1  0  0  0  0
  7 19  1  0  0  0  0
  8 20  1  0  0  0  0
M  END
> <id>
EN300-306575

> <smiles>
BrC1[C@H]2CC[C@H](C2)C=C1Br

> <MDLNUMBER>
MFCD30619835

> <IUPAC Name>
(1R,5S)-3,4-dibromobicyclo[3.2.1]oct-2-ene

> <CAS>
2059923-91-8

> <URL>
https://www.enaminestore.com/catalog/EN300-306575

> <ROCS_ShapeQuery>
_x1247relevant_x1083L0AP1_x1305L0BP1_

> <ROCS_TanimotoCombo>
1.014 

> <ROCS_ShapeTanimoto>
0.410 

> <ROCS_ColorTanimoto>
0.604 

> <ROCS_RefTversky>
0.352 

> <ROCS_RefColorTversky>
0.686 

> <ROCS_RefTverskyCombo>
1.038 

> <ROCS_FitTversky>
1.676 

> <ROCS_FitColorTversky>
0.835 

> <ROCS_FitTverskyCombo>
2.511 

> <ROCS_ColorScore>
-6.561

> <ROCS_Overlap>
864.149

> <ROCS_Rank>
432                 

$$$$
untitled-dbase-43312_35
  -OEChem-06232314403D

 35 36  0     1  0  0  0  0  0999 V2000
   -9.8335   15.6135  -38.1356 C   0  0  0  0  0  0  0  0  0  0  0  0
  -12.8774   14.9569  -36.7971 C   0  0  0  0  0  0  0  0  0  0  0  0
  -13.8357   15.8840  -37.5759 C   0  0  0  0  0  0  0  0  0  0  0  0
  -13.0297   14.1880  -39.0433 C   0  0  0  0  0  0  0  0  0  0  0  0
  -12.0046   16.3228  -39.2462 C   0  0  0  0  0  0  0  0  0  0  0  0
  -12.0085   14.3562  -37.9148 C   0  0  1  0  0  0  0  0  0  0  0  0
  -13.3942   15.6804  -39.0458 C   0  0  2  0  0  0  0  0  0  0  0  0
   -9.4069   14.9874  -35.6285 C   0  0  0  0  0  0  0  0  0  0  0  0
   -8.6380   12.7152  -36.3735 C   0  0  0  0  0  0  0  0  0  0  0  0
   -7.1555   14.7128  -36.7195 C   0  0  0  0  0  0  0  0  0  0  0  0
   -8.5985   14.2130  -36.6685 C   0  0  0  0  0  0  0  0  0  0  0  0
  -11.1698   15.4427  -38.4303 N   0  0  0  0  0  0  0  0  0  0  0  0
  -14.3800   16.0934  -40.0143 N   0  0  0  0  0  0  0  0  0  0  0  0
   -9.2787   16.7060  -38.0455 O   0  0  0  0  0  0  0  0  0  0  0  0
   -9.1968   14.4155  -37.9536 O   0  0  0  0  0  0  0  0  0  0  0  0
  -12.2901   15.5019  -36.0508 H   0  0  0  0  0  0  0  0  0  0  0  0
  -13.4453   14.1746  -36.2812 H   0  0  0  0  0  0  0  0  0  0  0  0
  -14.8721   15.5639  -37.4137 H   0  0  0  0  0  0  0  0  0  0  0  0
  -13.7472   16.9268  -37.2528 H   0  0  0  0  0  0  0  0  0  0  0  0
  -12.5783   13.8459  -39.9815 H   0  0  0  0  0  0  0  0  0  0  0  0
  -13.8664   13.5319  -38.7787 H   0  0  0  0  0  0  0  0  0  0  0  0
  -11.6488   16.2667  -40.2811 H   0  0  0  0  0  0  0  0  0  0  0  0
  -11.9356   17.3560  -38.8908 H   0  0  0  0  0  0  0  0  0  0  0  0
  -11.4379   13.4720  -37.6257 H   0  0  0  0  0  0  0  0  0  0  0  0
   -9.3810   16.0630  -35.8367 H   0  0  0  0  0  0  0  0  0  0  0  0
  -10.4522   14.6625  -35.6064 H   0  0  0  0  0  0  0  0  0  0  0  0
   -8.9825   14.8563  -34.6265 H   0  0  0  0  0  0  0  0  0  0  0  0
   -8.0593   12.1557  -37.1173 H   0  0  0  0  0  0  0  0  0  0  0  0
   -9.6638   12.3333  -36.4295 H   0  0  0  0  0  0  0  0  0  0  0  0
   -8.2373   12.4883  -35.3803 H   0  0  0  0  0  0  0  0  0  0  0  0
   -6.5754   14.1575  -37.4655 H   0  0  0  0  0  0  0  0  0  0  0  0
   -7.1061   15.7783  -36.9666 H   0  0  0  0  0  0  0  0  0  0  0  0
   -6.6542   14.5548  -35.7578 H   0  0  0  0  0  0  0  0  0  0  0  0
  -15.2159   15.5650  -39.8779 H   0  0  0  0  0  0  0  0  0  0  0  0
  -14.5717   17.0654  -39.8929 H   0  0  0  0  0  0  0  0  0  0  0  0
  1 12  1  0  0  0  0
  1 14  2  0  0  0  0
  1 15  1  0  0  0  0
  2  3  1  0  0  0  0
  2  6  1  0  0  0  0
  3  7  1  0  0  0  0
  4  6  1  0  0  0  0
  4  7  1  0  0  0  0
  5  7  1  0  0  0  0
  5 12  1  0  0  0  0
  6 12  1  0  0  0  0
  7 13  1  0  0  0  0
  8 11  1  0  0  0  0
  9 11  1  0  0  0  0
 10 11  1  0  0  0  0
 11 15  1  0  0  0  0
  2 16  1  0  0  0  0
  2 17  1  0  0  0  0
  3 18  1  0  0  0  0
  3 19  1  0  0  0  0
  4 20  1  0  0  0  0
  4 21  1  0  0  0  0
  5 22  1  0  0  0  0
  5 23  1  0  0  0  0
  6 24  1  0  0  0  0
  8 25  1  0  0  0  0
  8 26  1  0  0  0  0
  8 27  1  0  0  0  0
  9 28  1  0  0  0  0
  9 29  1  0  0  0  0
  9 30  1  0  0  0  0
 10 31  1  0  0  0  0
 10 32  1  0  0  0  0
 10 33  1  0  0  0  0
 13 34  1  0  0  0  0
 13 35  1  0  0  0  0
M  END
> <id>
EN300-9500459

> <smiles>
CC(C)(C)OC(=O)N1CC2(N)CCC1C2

> <MDLNUMBER>
MFCD24644358

> <IUPAC Name>
tert-butyl 4-amino-2-azabicyclo[2.2.1]heptane-2-carboxylate

> <CAS>
1311390-88-1

> <URL>
https://www.enaminestore.com/catalog/EN300-9500459

> <ROCS_ShapeQuery>
_x1247relevant_x1083L0AP1_x1305L0BP1_

> <ROCS_TanimotoCombo>
1.014 

> <ROCS_ShapeTanimoto>
0.495 

> <ROCS_ColorTanimoto>
0.520 

> <ROCS_RefTversky>
0.433 

> <ROCS_RefColorTversky>
0.706 

> <ROCS_RefTverskyCombo>
1.139 

> <ROCS_FitTversky>
1.399 

> <ROCS_FitColorTversky>
0.663 

> <ROCS_FitTverskyCombo>
2.062 

> <ROCS_ColorScore>
-6.849

> <ROCS_Overlap>
1069.077

> <ROCS_Rank>
433                 

$$$$
untitled-dbase-43249_35
  -OEChem-06232314403D

 35 36  0     1  0  0  0  0  0999 V2000
   -9.8335   15.6135  -38.1356 C   0  0  0  0  0  0  0  0  0  0  0  0
  -12.8774   14.9569  -36.7971 C   0  0  0  0  0  0  0  0  0  0  0  0
  -13.8357   15.8840  -37.5759 C   0  0  0  0  0  0  0  0  0  0  0  0
  -13.0297   14.1880  -39.0433 C   0  0  0  0  0  0  0  0  0  0  0  0
  -12.0046   16.3228  -39.2462 C   0  0  0  0  0  0  0  0  0  0  0  0
  -12.0085   14.3562  -37.9148 C   0  0  1  0  0  0  0  0  0  0  0  0
  -13.3942   15.6804  -39.0458 C   0  0  2  0  0  0  0  0  0  0  0  0
   -9.4069   14.9874  -35.6285 C   0  0  0  0  0  0  0  0  0  0  0  0
   -8.6380   12.7152  -36.3735 C   0  0  0  0  0  0  0  0  0  0  0  0
   -7.1555   14.7128  -36.7195 C   0  0  0  0  0  0  0  0  0  0  0  0
   -8.5985   14.2130  -36.6685 C   0  0  0  0  0  0  0  0  0  0  0  0
  -11.1698   15.4427  -38.4303 N   0  0  0  0  0  0  0  0  0  0  0  0
  -14.3800   16.0934  -40.0143 N   0  0  0  0  0  0  0  0  0  0  0  0
   -9.2787   16.7060  -38.0455 O   0  0  0  0  0  0  0  0  0  0  0  0
   -9.1968   14.4155  -37.9536 O   0  0  0  0  0  0  0  0  0  0  0  0
  -12.2901   15.5019  -36.0508 H   0  0  0  0  0  0  0  0  0  0  0  0
  -13.4453   14.1746  -36.2812 H   0  0  0  0  0  0  0  0  0  0  0  0
  -14.8721   15.5639  -37.4137 H   0  0  0  0  0  0  0  0  0  0  0  0
  -13.7472   16.9268  -37.2528 H   0  0  0  0  0  0  0  0  0  0  0  0
  -12.5783   13.8459  -39.9815 H   0  0  0  0  0  0  0  0  0  0  0  0
  -13.8664   13.5319  -38.7787 H   0  0  0  0  0  0  0  0  0  0  0  0
  -11.6488   16.2667  -40.2811 H   0  0  0  0  0  0  0  0  0  0  0  0
  -11.9356   17.3560  -38.8908 H   0  0  0  0  0  0  0  0  0  0  0  0
  -11.4379   13.4720  -37.6257 H   0  0  0  0  0  0  0  0  0  0  0  0
   -9.3810   16.0630  -35.8367 H   0  0  0  0  0  0  0  0  0  0  0  0
  -10.4522   14.6625  -35.6064 H   0  0  0  0  0  0  0  0  0  0  0  0
   -8.9825   14.8563  -34.6265 H   0  0  0  0  0  0  0  0  0  0  0  0
   -8.0593   12.1557  -37.1173 H   0  0  0  0  0  0  0  0  0  0  0  0
   -9.6638   12.3333  -36.4295 H   0  0  0  0  0  0  0  0  0  0  0  0
   -8.2373   12.4883  -35.3803 H   0  0  0  0  0  0  0  0  0  0  0  0
   -6.5754   14.1575  -37.4655 H   0  0  0  0  0  0  0  0  0  0  0  0
   -7.1061   15.7783  -36.9666 H   0  0  0  0  0  0  0  0  0  0  0  0
   -6.6542   14.5548  -35.7578 H   0  0  0  0  0  0  0  0  0  0  0  0
  -15.2159   15.5650  -39.8779 H   0  0  0  0  0  0  0  0  0  0  0  0
  -14.5717   17.0654  -39.8929 H   0  0  0  0  0  0  0  0  0  0  0  0
  1 12  1  0  0  0  0
  1 14  2  0  0  0  0
  1 15  1  0  0  0  0
  2  3  1  0  0  0  0
  2  6  1  0  0  0  0
  3  7  1  0  0  0  0
  4  6  1  0  0  0  0
  4  7  1  0  0  0  0
  5  7  1  0  0  0  0
  5 12  1  0  0  0  0
  6 12  1  0  0  0  0
  7 13  1  0  0  0  0
  8 11  1  0  0  0  0
  9 11  1  0  0  0  0
 10 11  1  0  0  0  0
 11 15  1  0  0  0  0
  2 16  1  0  0  0  0
  2 17  1  0  0  0  0
  3 18  1  0  0  0  0
  3 19  1  0  0  0  0
  4 20  1  0  0  0  0
  4 21  1  0  0  0  0
  5 22  1  0  0  0  0
  5 23  1  0  0  0  0
  6 24  1  0  0  0  0
  8 25  1  0  0  0  0
  8 26  1  0  0  0  0
  8 27  1  0  0  0  0
  9 28  1  0  0  0  0
  9 29  1  0  0  0  0
  9 30  1  0  0  0  0
 10 31  1  0  0  0  0
 10 32  1  0  0  0  0
 10 33  1  0  0  0  0
 13 34  1  0  0  0  0
 13 35  1  0  0  0  0
M  END
> <id>
EN300-27755210

> <smiles>
Cl.CC(C)(C)OC(=O)N1CC2(N)CCC1C2

> <MDLNUMBER>
MFCD33549249

> <IUPAC Name>
tert-butyl 4-amino-2-azabicyclo[2.2.1]heptane-2-carboxylate hydrochloride

> <CAS>
2639412-96-5

> <Purity>
95

> <URL>
https://www.enaminestore.com/catalog/EN300-27755210

> <ROCS_ShapeQuery>
_x1247relevant_x1083L0AP1_x1305L0BP1_

> <ROCS_TanimotoCombo>
1.014 

> <ROCS_ShapeTanimoto>
0.495 

> <ROCS_ColorTanimoto>
0.520 

> <ROCS_RefTversky>
0.433 

> <ROCS_RefColorTversky>
0.706 

> <ROCS_RefTverskyCombo>
1.139 

> <ROCS_FitTversky>
1.399 

> <ROCS_FitColorTversky>
0.663 

> <ROCS_FitTverskyCombo>
2.062 

> <ROCS_ColorScore>
-6.849

> <ROCS_Overlap>
1069.077

> <ROCS_Rank>
434                 

$$$$
untitled-dbase-36511_1
  -OEChem-06232314403D

 32 34  0     1  0  0  0  0  0999 V2000
  -11.8217   15.9730  -39.0169 C   0  0  0  0  0  0  0  0  0  0  0  0
   -9.7034   13.2982  -37.1765 C   0  0  0  0  0  0  0  0  0  0  0  0
  -10.3341   14.0760  -38.3315 C   0  0  0  0  0  0  0  0  0  0  0  0
  -13.9998   14.6336  -39.3922 C   0  0  0  0  0  0  0  0  0  0  0  0
  -10.7650   16.0276  -36.7467 C   0  0  0  0  0  0  0  0  0  0  0  0
  -13.2895   15.9214  -39.0848 C   0  0  1  0  0  0  0  0  0  0  0  0
   -9.0749   14.2093  -36.1099 C   0  0  2  0  0  0  0  0  0  0  0  0
  -10.0754   15.2700  -35.5946 C   0  0  2  0  0  0  0  0  0  0  0  0
  -13.7075   15.0071  -37.9689 C   0  0  2  0  0  0  0  0  0  0  0  0
  -11.3356   15.1236  -37.8456 C   0  0  1  0  0  0  0  0  0  0  0  0
   -7.7933   14.8684  -36.6364 C   0  0  0  0  0  0  0  0  0  0  0  0
  -11.0926   14.6504  -34.6278 C   0  0  0  0  0  0  0  0  0  0  0  0
  -11.1382   16.6219  -39.7911 O   0  0  0  0  0  0  0  0  0  0  0  0
  -12.5181   14.4501  -37.3595 O   0  0  0  0  0  0  0  0  0  0  0  0
  -10.4780   12.6672  -36.7160 H   0  0  0  0  0  0  0  0  0  0  0  0
   -8.9452   12.6053  -37.5697 H   0  0  0  0  0  0  0  0  0  0  0  0
   -9.5470   14.5468  -38.9257 H   0  0  0  0  0  0  0  0  0  0  0  0
  -10.8402   13.3737  -39.0002 H   0  0  0  0  0  0  0  0  0  0  0  0
  -15.0282   14.6951  -39.7279 H   0  0  0  0  0  0  0  0  0  0  0  0
  -13.4352   13.8251  -39.8409 H   0  0  0  0  0  0  0  0  0  0  0  0
  -11.5798   16.6476  -36.3393 H   0  0  0  0  0  0  0  0  0  0  0  0
  -10.0570   16.7452  -37.1901 H   0  0  0  0  0  0  0  0  0  0  0  0
  -13.8263   16.8529  -39.2045 H   0  0  0  0  0  0  0  0  0  0  0  0
   -8.7800   13.5756  -35.2493 H   0  0  0  0  0  0  0  0  0  0  0  0
   -9.4915   16.0117  -34.9965 H   0  0  0  0  0  0  0  0  0  0  0  0
  -14.5259   15.3098  -37.3304 H   0  0  0  0  0  0  0  0  0  0  0  0
   -8.0323   15.5036  -37.4859 H   0  0  0  0  0  0  0  0  0  0  0  0
   -7.0897   14.1003  -36.9479 H   0  0  0  0  0  0  0  0  0  0  0  0
   -7.3441   15.4713  -35.8509 H   0  0  0  0  0  0  0  0  0  0  0  0
  -11.6950   13.9151  -35.1552 H   0  0  0  0  0  0  0  0  0  0  0  0
  -11.7393   15.4292  -34.2316 H   0  0  0  0  0  0  0  0  0  0  0  0
  -10.5676   14.1659  -33.8084 H   0  0  0  0  0  0  0  0  0  0  0  0
  1  6  1  0  0  0  0
  1 10  1  0  0  0  0
  1 13  2  0  0  0  0
  2  3  1  0  0  0  0
  2  7  1  0  0  0  0
  3 10  1  0  0  0  0
  4  6  1  0  0  0  0
  4  9  1  0  0  0  0
  5  8  1  0  0  0  0
  5 10  1  0  0  0  0
  6  9  1  0  0  0  0
  7  8  1  0  0  0  0
  7 11  1  0  0  0  0
  8 12  1  0  0  0  0
  9 14  1  0  0  0  0
 10 14  1  0  0  0  0
  2 15  1  0  0  0  0
  2 16  1  0  0  0  0
  3 17  1  0  0  0  0
  3 18  1  0  0  0  0
  4 19  1  0  0  0  0
  4 20  1  0  0  0  0
  5 21  1  0  0  0  0
  5 22  1  0  0  0  0
  6 23  1  0  0  0  0
  7 24  1  0  0  0  0
  8 25  1  0  0  0  0
  9 26  1  0  0  0  0
 11 27  1  0  0  0  0
 11 28  1  0  0  0  0
 11 29  1  0  0  0  0
 12 30  1  0  0  0  0
 12 31  1  0  0  0  0
 12 32  1  0  0  0  0
M  END
> <id>
EN300-737325

> <smiles>
CC1CCC2(CC1C)OC3CC3C2=O

> <IUPAC Name>
4',5'-dimethyl-2-oxaspiro[bicyclo[3.1.0]hexane-3,1'-cyclohexane]-4-one

> <CAS>
2137571-63-0

> <URL>
https://www.enaminestore.com/catalog/EN300-737325

> <ROCS_ShapeQuery>
_x1247relevant_x1083L0AP1_x1305L0BP1_

> <ROCS_TanimotoCombo>
1.014 

> <ROCS_ShapeTanimoto>
0.515 

> <ROCS_ColorTanimoto>
0.499 

> <ROCS_RefTversky>
0.438 

> <ROCS_RefColorTversky>
0.576 

> <ROCS_RefTverskyCombo>
1.014 

> <ROCS_FitTversky>
1.515 

> <ROCS_FitColorTversky>
0.790 

> <ROCS_FitTverskyCombo>
2.304 

> <ROCS_ColorScore>
-5.480

> <ROCS_Overlap>
1080.248

> <ROCS_Rank>
435                 

$$$$
untitled-dbase-24544_0
  -OEChem-06232314403D

 20 21  0     1  0  0  0  0  0999 V2000
  -13.4840   15.9950  -39.4842 C   0  0  0  0  0  0  0  0  0  0  0  0
  -14.0489   14.7851  -39.3211 C   0  0  0  0  0  0  0  0  0  0  0  0
  -11.0777   15.8016  -38.9035 C   0  0  0  0  0  0  0  0  0  0  0  0
  -11.1293   14.4387  -38.1886 C   0  0  0  0  0  0  0  0  0  0  0  0
  -12.6487   15.9469  -37.1307 C   0  0  0  0  0  0  0  0  0  0  0  0
  -12.4049   16.4826  -38.5431 C   0  0  2  0  0  0  0  0  0  0  0  0
  -13.6156   13.8710  -38.1984 C   0  0  1  0  0  0  0  0  0  0  0  0
  -12.4382   14.4452  -37.3668 C   0  0  1  0  0  0  0  0  0  0  0  0
  -15.2704   14.0975  -40.5570 Br  0  0  0  0  0  0  0  0  0  0  0  0
  -15.1396   13.5762  -36.9876 Br  0  0  0  0  0  0  0  0  0  0  0  0
  -13.7440   16.6294  -40.3264 H   0  0  0  0  0  0  0  0  0  0  0  0
  -10.2358   16.3861  -38.5127 H   0  0  0  0  0  0  0  0  0  0  0  0
  -10.9271   15.6888  -39.9828 H   0  0  0  0  0  0  0  0  0  0  0  0
  -11.0834   13.6050  -38.8970 H   0  0  0  0  0  0  0  0  0  0  0  0
  -10.2646   14.3480  -37.5204 H   0  0  0  0  0  0  0  0  0  0  0  0
  -11.9019   16.3392  -36.4291 H   0  0  0  0  0  0  0  0  0  0  0  0
  -13.6404   16.1990  -36.7423 H   0  0  0  0  0  0  0  0  0  0  0  0
  -12.3404   17.5741  -38.5655 H   0  0  0  0  0  0  0  0  0  0  0  0
  -13.3574   12.8749  -38.5748 H   0  0  0  0  0  0  0  0  0  0  0  0
  -12.3087   13.8947  -36.4287 H   0  0  0  0  0  0  0  0  0  0  0  0
  1  2  2  0  0  0  0
  1  6  1  0  0  0  0
  2  7  1  0  0  0  0
  2  9  1  0  0  0  0
  3  4  1  0  0  0  0
  3  6  1  6  0  0  0
  4  8  1  6  0  0  0
  5  6  1  0  0  0  0
  5  8  1  0  0  0  0
  7  8  1  0  0  0  0
  7 10  1  1  0  0  0
  1 11  1  0  0  0  0
  3 12  1  0  0  0  0
  3 13  1  0  0  0  0
  4 14  1  0  0  0  0
  4 15  1  0  0  0  0
  5 16  1  0  0  0  0
  5 17  1  0  0  0  0
  6 18  1  0  0  0  0
  7 19  1  0  0  0  0
  8 20  1  0  0  0  0
M  END
> <id>
EN300-6487976

> <smiles>
Br[C@@H]1[C@H]2CC[C@H](C2)C=C1Br |&1:1,2,5,r|

> <IUPAC Name>
rac-(1R,4R,5S)-3,4-dibromobicyclo[3.2.1]oct-2-ene

> <CAS>
2404-39-9

> <Purity>
95

> <URL>
https://www.enaminestore.com/catalog/EN300-6487976

> <ROCS_ShapeQuery>
_x1247relevant_x1083L0AP1_x1305L0BP1_

> <ROCS_TanimotoCombo>
1.014 

> <ROCS_ShapeTanimoto>
0.410 

> <ROCS_ColorTanimoto>
0.604 

> <ROCS_RefTversky>
0.352 

> <ROCS_RefColorTversky>
0.686 

> <ROCS_RefTverskyCombo>
1.038 

> <ROCS_FitTversky>
1.675 

> <ROCS_FitColorTversky>
0.835 

> <ROCS_FitTverskyCombo>
2.510 

> <ROCS_ColorScore>
-6.562

> <ROCS_Overlap>
863.632

> <ROCS_Rank>
436                 

$$$$
untitled-dbase-13749_0
  -OEChem-06232314403D

 21 22  0     1  0  0  0  0  0999 V2000
  -15.1550   14.1289  -40.4861 C   0  0  0  0  0  0  0  0  0  0  0  0
  -14.7181   14.8063  -39.5966 C   0  0  0  0  0  0  0  0  0  0  0  0
  -13.0695   16.5706  -39.0046 C   0  0  0  0  0  0  0  0  0  0  0  0
  -11.8451   15.8145  -39.5253 C   0  0  0  0  0  0  0  0  0  0  0  0
  -13.6872   14.7721  -37.3390 C   0  0  0  0  0  0  0  0  0  0  0  0
  -11.0982   14.8772  -37.1974 C   0  0  0  0  0  0  0  0  0  0  0  0
  -14.1810   15.6393  -38.5037 C   0  0  2  0  0  0  0  0  0  0  0  0
  -11.4196   14.6773  -38.6510 C   0  0  1  0  0  0  0  0  0  0  0  0
  -12.3522   14.1346  -37.5967 C   0  0  2  0  0  0  0  0  0  0  0  0
  -15.5427   13.5277  -41.2750 H   0  0  0  0  0  0  0  0  0  0  0  0
  -12.7623   17.2273  -38.1806 H   0  0  0  0  0  0  0  0  0  0  0  0
  -13.4479   17.2261  -39.7989 H   0  0  0  0  0  0  0  0  0  0  0  0
  -12.0695   15.4163  -40.5226 H   0  0  0  0  0  0  0  0  0  0  0  0
  -11.0101   16.5128  -39.6541 H   0  0  0  0  0  0  0  0  0  0  0  0
  -13.6138   15.3921  -36.4361 H   0  0  0  0  0  0  0  0  0  0  0  0
  -14.4221   13.9894  -37.1108 H   0  0  0  0  0  0  0  0  0  0  0  0
  -10.2860   14.2959  -36.7766 H   0  0  0  0  0  0  0  0  0  0  0  0
  -11.1887   15.8718  -36.7787 H   0  0  0  0  0  0  0  0  0  0  0  0
  -15.0067   16.2602  -38.1332 H   0  0  0  0  0  0  0  0  0  0  0  0
  -10.7988   13.9712  -39.1911 H   0  0  0  0  0  0  0  0  0  0  0  0
  -12.3672   13.0630  -37.4382 H   0  0  0  0  0  0  0  0  0  0  0  0
  1  2  3  0  0  0  0
  2  7  1  0  0  0  0
  3  4  1  0  0  0  0
  3  7  1  0  0  0  0
  4  8  1  0  0  0  0
  5  7  1  0  0  0  0
  5  9  1  0  0  0  0
  6  8  1  0  0  0  0
  6  9  1  0  0  0  0
  8  9  1  0  0  0  0
  1 10  1  0  0  0  0
  3 11  1  0  0  0  0
  3 12  1  0  0  0  0
  4 13  1  0  0  0  0
  4 14  1  0  0  0  0
  5 15  1  0  0  0  0
  5 16  1  0  0  0  0
  6 17  1  0  0  0  0
  6 18  1  0  0  0  0
  7 19  1  0  0  0  0
  8 20  1  0  0  0  0
  9 21  1  0  0  0  0
M  END
> <id>
EN300-787726

> <smiles>
C#CC1CCC2CC2C1

> <MDLNUMBER>
MFCD31463928

> <IUPAC Name>
3-ethynylbicyclo[4.1.0]heptane

> <CAS>
2107808-42-2

> <URL>
https://www.enaminestore.com/catalog/EN300-787726

> <ROCS_ShapeQuery>
_x1247relevant_x1083L0AP1_x1305L0BP1_

> <ROCS_TanimotoCombo>
1.014 

> <ROCS_ShapeTanimoto>
0.403 

> <ROCS_ColorTanimoto>
0.611 

> <ROCS_RefTversky>
0.344 

> <ROCS_RefColorTversky>
0.583 

> <ROCS_RefTverskyCombo>
0.927 

> <ROCS_FitTversky>
1.740 

> <ROCS_FitColorTversky>
1.084 

> <ROCS_FitTverskyCombo>
2.823 

> <ROCS_ColorScore>
-5.494

> <ROCS_Overlap>
844.064

> <ROCS_Rank>
437                 

$$$$
untitled-dbase-35709_0
  -OEChem-06232314403D

 26 28  0     1  0  0  0  0  0999 V2000
  -13.8302   14.4794  -39.0010 C   0  0  0  0  0  0  0  0  0  0  0  0
  -13.7900   14.6630  -37.4772 C   0  0  0  0  0  0  0  0  0  0  0  0
  -12.7722   16.5485  -38.4947 C   0  0  0  0  0  0  0  0  0  0  0  0
  -11.3414   14.7369  -39.1255 C   0  0  0  0  0  0  0  0  0  0  0  0
   -9.5643   13.7136  -36.6738 C   0  0  0  0  0  0  0  0  0  0  0  0
   -9.2950   15.1789  -36.4338 C   0  0  0  0  0  0  0  0  0  0  0  0
  -12.6910   15.3913  -39.4887 C   0  0  1  0  0  0  0  0  0  0  0  0
  -12.6090   15.6304  -37.2761 C   0  0  2  0  0  0  0  0  0  0  0  0
  -11.2573   14.9405  -37.5930 C   0  0  1  0  0  0  0  0  0  0  0  0
  -11.0133   13.6927  -36.8625 N   0  0  0  0  0  0  0  0  0  0  0  0
  -10.1885   15.8660  -37.3144 O   0  0  0  0  0  0  0  0  0  0  0  0
  -13.6874   13.4343  -39.2936 H   0  0  0  0  0  0  0  0  0  0  0  0
  -14.7962   14.8151  -39.3952 H   0  0  0  0  0  0  0  0  0  0  0  0
  -14.7244   15.1218  -37.1330 H   0  0  0  0  0  0  0  0  0  0  0  0
  -13.6725   13.7132  -36.9481 H   0  0  0  0  0  0  0  0  0  0  0  0
  -11.9633   17.2765  -38.6115 H   0  0  0  0  0  0  0  0  0  0  0  0
  -13.7355   17.0695  -38.5164 H   0  0  0  0  0  0  0  0  0  0  0  0
  -11.3277   13.6849  -39.4318 H   0  0  0  0  0  0  0  0  0  0  0  0
  -10.5169   15.2465  -39.6378 H   0  0  0  0  0  0  0  0  0  0  0  0
   -9.0650   13.3735  -37.5888 H   0  0  0  0  0  0  0  0  0  0  0  0
   -9.2417   13.0835  -35.8411 H   0  0  0  0  0  0  0  0  0  0  0  0
   -9.5306   15.4755  -35.4057 H   0  0  0  0  0  0  0  0  0  0  0  0
   -8.2640   15.4632  -36.6616 H   0  0  0  0  0  0  0  0  0  0  0  0
  -12.7731   15.6661  -40.5421 H   0  0  0  0  0  0  0  0  0  0  0  0
  -12.6228   16.1581  -36.3190 H   0  0  0  0  0  0  0  0  0  0  0  0
  -11.2957   12.8745  -37.3984 H   0  0  0  0  0  0  0  0  0  0  0  0
  1  2  1  0  0  0  0
  1  7  1  0  0  0  0
  2  8  1  0  0  0  0
  3  7  1  0  0  0  0
  3  8  1  0  0  0  0
  4  7  1  0  0  0  0
  4  9  1  0  0  0  0
  5  6  1  0  0  0  0
  5 10  1  0  0  0  0
  6 11  1  0  0  0  0
  8  9  1  0  0  0  0
  9 10  1  0  0  0  0
  9 11  1  0  0  0  0
  1 12  1  0  0  0  0
  1 13  1  0  0  0  0
  2 14  1  0  0  0  0
  2 15  1  0  0  0  0
  3 16  1  0  0  0  0
  3 17  1  0  0  0  0
  4 18  1  0  0  0  0
  4 19  1  0  0  0  0
  5 20  1  0  0  0  0
  5 21  1  0  0  0  0
  6 22  1  0  0  0  0
  6 23  1  0  0  0  0
  7 24  1  0  0  0  0
  8 25  1  0  0  0  0
 10 26  1  0  0  0  0
M  END
> <id>
EN300-1645495

> <smiles>
C1COC2(CC3CCC2C3)N1

> <IUPAC Name>
spiro[bicyclo[2.2.1]heptane-2,2'-[1,3]oxazolidine]

> <CAS>
56114-93-3

> <URL>
https://www.enaminestore.com/catalog/EN300-1645495

> <ROCS_ShapeQuery>
_x1247relevant_x1083L0AP1_x1305L0BP1_

> <ROCS_TanimotoCombo>
1.013 

> <ROCS_ShapeTanimoto>
0.489 

> <ROCS_ColorTanimoto>
0.525 

> <ROCS_RefTversky>
0.409 

> <ROCS_RefColorTversky>
0.709 

> <ROCS_RefTverskyCombo>
1.118 

> <ROCS_FitTversky>
1.660 

> <ROCS_FitColorTversky>
0.669 

> <ROCS_FitTverskyCombo>
2.329 

> <ROCS_ColorScore>
-6.874

> <ROCS_Overlap>
1005.932

> <ROCS_Rank>
438                 

$$$$
untitled-dbase-10716_0
  -OEChem-06232314403D

 25 27  0     1  0  0  0  0  0999 V2000
  -10.6819   13.6253  -36.8692 C   0  0  0  0  0  0  0  0  0  0  0  0
   -9.3927   14.1572  -36.8309 C   0  0  0  0  0  0  0  0  0  0  0  0
  -10.1468   16.1793  -37.9560 C   0  0  0  0  0  0  0  0  0  0  0  0
  -11.6864   14.3819  -37.4514 C   0  0  0  0  0  0  0  0  0  0  0  0
  -11.4320   15.6564  -37.9962 C   0  0  0  0  0  0  0  0  0  0  0  0
   -9.1268   15.4244  -37.3704 C   0  0  0  0  0  0  0  0  0  0  0  0
  -13.1395   13.9997  -37.6077 C   0  0  0  0  0  0  0  0  0  0  0  0
  -12.6833   16.2545  -38.5589 C   0  0  2  0  0  0  0  0  0  0  0  0
  -13.7588   15.2098  -38.2911 C   0  0  1  0  0  0  0  0  0  0  0  0
  -13.4058   15.5910  -39.7078 C   0  0  1  0  0  0  0  0  0  0  0  0
   -7.7388   15.9714  -37.3185 C   0  0  0  0  0  0  0  0  0  0  0  0
  -14.3539   16.3624  -40.5199 N   0  0  0  0  0  0  0  0  0  0  0  0
  -10.8870   12.6443  -36.4544 H   0  0  0  0  0  0  0  0  0  0  0  0
   -8.5919   13.5775  -36.3781 H   0  0  0  0  0  0  0  0  0  0  0  0
   -9.9413   17.1602  -38.3743 H   0  0  0  0  0  0  0  0  0  0  0  0
  -13.2479   13.1048  -38.2274 H   0  0  0  0  0  0  0  0  0  0  0  0
  -13.5968   13.8398  -36.6261 H   0  0  0  0  0  0  0  0  0  0  0  0
  -12.9234   17.2849  -38.3217 H   0  0  0  0  0  0  0  0  0  0  0  0
  -14.7036   15.5231  -37.8696 H   0  0  0  0  0  0  0  0  0  0  0  0
  -12.8481   14.8642  -40.2908 H   0  0  0  0  0  0  0  0  0  0  0  0
   -7.1811   15.6801  -38.2164 H   0  0  0  0  0  0  0  0  0  0  0  0
   -7.7458   17.0666  -37.2519 H   0  0  0  0  0  0  0  0  0  0  0  0
   -7.1992   15.6020  -36.4372 H   0  0  0  0  0  0  0  0  0  0  0  0
  -13.8376   16.8419  -41.2158 H   0  0  0  0  0  0  0  0  0  0  0  0
  -14.9930   15.7247  -40.9270 H   0  0  0  0  0  0  0  0  0  0  0  0
  1  2  1  0  0  0  0
  1  4  2  0  0  0  0
  2  6  2  0  0  0  0
  3  5  2  0  0  0  0
  3  6  1  0  0  0  0
  4  5  1  0  0  0  0
  4  7  1  0  0  0  0
  5  8  1  0  0  0  0
  6 11  1  0  0  0  0
  7  9  1  0  0  0  0
  8  9  1  0  0  0  0
  8 10  1  0  0  0  0
  9 10  1  0  0  0  0
 10 12  1  0  0  0  0
  1 13  1  0  0  0  0
  2 14  1  0  0  0  0
  3 15  1  0  0  0  0
  7 16  1  0  0  0  0
  7 17  1  0  0  0  0
  8 18  1  0  0  0  0
  9 19  1  0  0  0  0
 10 20  1  0  0  0  0
 11 21  1  0  0  0  0
 11 22  1  0  0  0  0
 11 23  1  0  0  0  0
 12 24  1  0  0  0  0
 12 25  1  0  0  0  0
M  END
> <id>
EN300-372409

> <smiles>
CC=1C=CC=2CC3C(N)C3C2C1

> <MDLNUMBER>
MFCD30731009

> <IUPAC Name>
3-methyl-1H,1aH,6H,6aH-cyclopropa[a]inden-1-amine

> <CAS>
2137730-05-1

> <URL>
https://www.enaminestore.com/catalog/EN300-372409

> <ROCS_ShapeQuery>
_x1247relevant_x1083L0AP1_x1305L0BP1_

> <ROCS_TanimotoCombo>
1.013 

> <ROCS_ShapeTanimoto>
0.486 

> <ROCS_ColorTanimoto>
0.527 

> <ROCS_RefTversky>
0.412 

> <ROCS_RefColorTversky>
0.597 

> <ROCS_RefTverskyCombo>
1.009 

> <ROCS_FitTversky>
1.588 

> <ROCS_FitColorTversky>
0.818 

> <ROCS_FitTverskyCombo>
2.406 

> <ROCS_ColorScore>
-5.689

> <ROCS_Overlap>
1013.713

> <ROCS_Rank>
439                 

$$$$
untitled-dbase-12703_0
  -OEChem-06232314403D

 19 20  0     0  0  0  0  0  0999 V2000
  -12.8930   15.5825  -36.8719 C   0  0  0  0  0  0  0  0  0  0  0  0
  -11.3693   15.9324  -38.8278 C   0  0  0  0  0  0  0  0  0  0  0  0
  -14.1079   15.5888  -37.8145 C   0  0  0  0  0  0  0  0  0  0  0  0
  -12.5816   15.9392  -39.7737 C   0  0  0  0  0  0  0  0  0  0  0  0
  -12.5845   13.9047  -38.5344 C   0  0  0  0  0  0  0  0  0  0  0  0
  -11.7912   14.9364  -37.7318 C   0  0  0  0  0  0  0  0  0  0  0  0
  -13.5377   14.9559  -39.0890 C   0  0  0  0  0  0  0  0  0  0  0  0
  -14.8747   14.2605  -40.2549 Br  0  0  0  0  0  0  0  0  0  0  0  0
  -12.6281   16.5897  -36.5351 H   0  0  0  0  0  0  0  0  0  0  0  0
  -13.1060   14.9701  -35.9884 H   0  0  0  0  0  0  0  0  0  0  0  0
  -10.4805   15.5730  -39.3585 H   0  0  0  0  0  0  0  0  0  0  0  0
  -11.1517   16.9288  -38.4303 H   0  0  0  0  0  0  0  0  0  0  0  0
  -14.9199   14.9929  -37.3804 H   0  0  0  0  0  0  0  0  0  0  0  0
  -14.4904   16.6016  -37.9802 H   0  0  0  0  0  0  0  0  0  0  0  0
  -13.0106   16.9413  -39.8798 H   0  0  0  0  0  0  0  0  0  0  0  0
  -12.2782   15.5994  -40.7713 H   0  0  0  0  0  0  0  0  0  0  0  0
  -11.9861   13.4009  -39.3018 H   0  0  0  0  0  0  0  0  0  0  0  0
  -13.0732   13.1513  -37.9064 H   0  0  0  0  0  0  0  0  0  0  0  0
  -10.9549   14.5434  -37.1506 H   0  0  0  0  0  0  0  0  0  0  0  0
  1  3  1  0  0  0  0
  1  6  1  0  0  0  0
  2  4  1  0  0  0  0
  2  6  1  0  0  0  0
  3  7  1  0  0  0  0
  4  7  1  0  0  0  0
  5  6  1  0  0  0  0
  5  7  1  0  0  0  0
  7  8  1  0  0  0  0
  1  9  1  0  0  0  0
  1 10  1  0  0  0  0
  2 11  1  0  0  0  0
  2 12  1  0  0  0  0
  3 13  1  0  0  0  0
  3 14  1  0  0  0  0
  4 15  1  0  0  0  0
  4 16  1  0  0  0  0
  5 17  1  0  0  0  0
  5 18  1  0  0  0  0
  6 19  1  0  0  0  0
M  END
> <id>
EN300-119056

> <smiles>
BrC1(CCC2CC1)C2

> <IUPAC Name>
1-bromobicyclo[2.2.1]heptane

> <CAS>
13474-70-9

> <Purity>
95

> <URL>
https://www.enaminestore.com/catalog/EN300-119056

> <ROCS_ShapeQuery>
_x1247relevant_x1083L0AP1_x1305L0BP1_

> <ROCS_TanimotoCombo>
1.013 

> <ROCS_ShapeTanimoto>
0.374 

> <ROCS_ColorTanimoto>
0.639 

> <ROCS_RefTversky>
0.322 

> <ROCS_RefColorTversky>
0.694 

> <ROCS_RefTverskyCombo>
1.016 

> <ROCS_FitTversky>
1.763 

> <ROCS_FitColorTversky>
0.891 

> <ROCS_FitTverskyCombo>
2.654 

> <ROCS_ColorScore>
-6.623

> <ROCS_Overlap>
788.832

> <ROCS_Rank>
440                 

$$$$
untitled-dbase-6156_0
  -OEChem-06232314403D

 26 28  0     1  0  0  0  0  0999 V2000
  -11.7956   14.1018  -37.5401 C   0  0  0  0  0  0  0  0  0  0  0  0
  -11.2791   15.3357  -37.4331 C   0  0  0  0  0  0  0  0  0  0  0  0
  -13.5550   15.5691  -37.4544 C   0  0  0  0  0  0  0  0  0  0  0  0
  -14.2712   14.7837  -40.4379 C   0  0  0  0  0  0  0  0  0  0  0  0
  -13.5026   16.9725  -40.2032 C   0  0  0  0  0  0  0  0  0  0  0  0
  -13.1783   14.2507  -38.1378 C   0  0  1  0  0  0  0  0  0  0  0  0
  -12.3139   16.2997  -37.9794 C   0  0  2  0  0  0  0  0  0  0  0  0
  -12.9828   14.6452  -39.6326 C   0  0  2  0  0  0  0  0  0  0  0  0
  -12.4199   16.1047  -39.5318 C   0  0  1  0  0  0  0  0  0  0  0  0
  -11.0822   16.2938  -40.2550 C   0  0  0  0  0  0  0  0  0  0  0  0
  -14.7170   16.1573  -40.2243 N   0  0  0  0  0  0  0  0  0  0  0  0
  -11.3057   13.1762  -37.2916 H   0  0  0  0  0  0  0  0  0  0  0  0
  -10.2915   15.5909  -37.0885 H   0  0  0  0  0  0  0  0  0  0  0  0
  -14.5067   15.9860  -37.7919 H   0  0  0  0  0  0  0  0  0  0  0  0
  -13.5878   15.4974  -36.3590 H   0  0  0  0  0  0  0  0  0  0  0  0
  -14.0978   14.5891  -41.5066 H   0  0  0  0  0  0  0  0  0  0  0  0
  -15.0506   14.0771  -40.1135 H   0  0  0  0  0  0  0  0  0  0  0  0
  -13.6958   17.9135  -39.6584 H   0  0  0  0  0  0  0  0  0  0  0  0
  -13.2210   17.2775  -41.2271 H   0  0  0  0  0  0  0  0  0  0  0  0
  -13.8498   13.4123  -37.9419 H   0  0  0  0  0  0  0  0  0  0  0  0
  -12.2055   17.3310  -37.6319 H   0  0  0  0  0  0  0  0  0  0  0  0
  -12.2835   13.9713  -40.1412 H   0  0  0  0  0  0  0  0  0  0  0  0
  -10.3244   15.6802  -39.7774 H   0  0  0  0  0  0  0  0  0  0  0  0
  -10.7894   17.3382  -40.2039 H   0  0  0  0  0  0  0  0  0  0  0  0
  -11.1890   15.9965  -41.2939 H   0  0  0  0  0  0  0  0  0  0  0  0
  -15.2890   16.4429  -41.0221 H   0  0  0  0  0  0  0  0  0  0  0  0
  1  2  2  0  0  0  0
  1  6  1  0  0  0  0
  2  7  1  0  0  0  0
  3  6  1  0  0  0  0
  3  7  1  0  0  0  0
  4  8  1  0  0  0  0
  4 11  1  0  0  0  0
  5  9  1  0  0  0  0
  5 11  1  0  0  0  0
  6  8  1  0  0  0  0
  7  9  1  0  0  0  0
  8  9  1  0  0  0  0
  9 10  1  0  0  0  0
  1 12  1  0  0  0  0
  2 13  1  0  0  0  0
  3 14  1  0  0  0  0
  3 15  1  0  0  0  0
  4 16  1  0  0  0  0
  4 17  1  0  0  0  0
  5 18  1  0  0  0  0
  5 19  1  0  0  0  0
  6 20  1  0  0  0  0
  7 21  1  0  0  0  0
  8 22  1  0  0  0  0
 10 23  1  0  0  0  0
 10 24  1  0  0  0  0
 10 25  1  0  0  0  0
 11 26  1  0  0  0  0
M  END
> <id>
EN300-244735

> <smiles>
CC12CNCC2C3CC1C=C3

> <MDLNUMBER>
MFCD29034944

> <IUPAC Name>
2-methyl-4-azatricyclo[5.2.1.0,2,6]dec-8-ene

> <CAS>
1934576-29-0

> <URL>
https://www.enaminestore.com/catalog/EN300-244735

> <ROCS_ShapeQuery>
_x1247relevant_x1083L0AP1_x1305L0BP1_

> <ROCS_TanimotoCombo>
1.013 

> <ROCS_ShapeTanimoto>
0.476 

> <ROCS_ColorTanimoto>
0.537 

> <ROCS_RefTversky>
0.402 

> <ROCS_RefColorTversky>
0.694 

> <ROCS_RefTverskyCombo>
1.096 

> <ROCS_FitTversky>
1.628 

> <ROCS_FitColorTversky>
0.705 

> <ROCS_FitTverskyCombo>
2.333 

> <ROCS_ColorScore>
-6.698

> <ROCS_Overlap>
988.412

> <ROCS_Rank>
441                 

$$$$
untitled-dbase-19232_0
  -OEChem-06232314403D

 29 30  0     1  0  0  0  0  0999 V2000
  -13.4631   15.3713  -37.1795 C   0  0  0  0  0  0  0  0  0  0  0  0
  -12.3045   16.6005  -39.1087 C   0  0  0  0  0  0  0  0  0  0  0  0
  -12.1761   16.1130  -37.6561 C   0  0  2  0  0  0  0  0  0  0  0  0
  -12.8415   14.1332  -37.9017 C   0  0  1  0  0  0  0  0  0  0  0  0
  -13.1158   14.1476  -39.4220 C   0  0  2  0  0  0  0  0  0  0  0  0
  -13.1231   15.6058  -39.9609 C   0  0  1  0  0  0  0  0  0  0  0  0
  -11.4323   14.7285  -37.4814 C   0  0  0  0  0  0  0  0  0  0  0  0
  -14.4071   13.3826  -39.7176 C   0  0  0  0  0  0  0  0  0  0  0  0
  -10.9972   14.4012  -36.0387 C   0  0  0  0  0  0  0  0  0  0  0  0
  -10.2342   14.4520  -38.3967 C   0  0  0  0  0  0  0  0  0  0  0  0
  -14.4673   16.0929  -40.0436 O   0  0  0  0  0  0  0  0  0  0  0  0
  -13.5732   15.2740  -36.0942 H   0  0  0  0  0  0  0  0  0  0  0  0
  -14.4227   15.7423  -37.5494 H   0  0  0  0  0  0  0  0  0  0  0  0
  -12.7830   17.5875  -39.1159 H   0  0  0  0  0  0  0  0  0  0  0  0
  -11.3056   16.7361  -39.5373 H   0  0  0  0  0  0  0  0  0  0  0  0
  -11.8233   16.9073  -36.9896 H   0  0  0  0  0  0  0  0  0  0  0  0
  -13.0642   13.1648  -37.4392 H   0  0  0  0  0  0  0  0  0  0  0  0
  -12.3088   13.6015  -39.9207 H   0  0  0  0  0  0  0  0  0  0  0  0
  -12.7439   15.6133  -40.9901 H   0  0  0  0  0  0  0  0  0  0  0  0
  -15.2477   13.8843  -39.2428 H   0  0  0  0  0  0  0  0  0  0  0  0
  -14.3298   12.3687  -39.3303 H   0  0  0  0  0  0  0  0  0  0  0  0
  -14.5730   13.3441  -40.7922 H   0  0  0  0  0  0  0  0  0  0  0  0
  -10.5002   13.4380  -36.0281 H   0  0  0  0  0  0  0  0  0  0  0  0
  -11.8742   14.3698  -35.4025 H   0  0  0  0  0  0  0  0  0  0  0  0
  -10.3172   15.1701  -35.6904 H   0  0  0  0  0  0  0  0  0  0  0  0
   -9.8217   13.4723  -38.1700 H   0  0  0  0  0  0  0  0  0  0  0  0
   -9.4720   15.2103  -38.2370 H   0  0  0  0  0  0  0  0  0  0  0  0
  -10.5562   14.4768  -39.4346 H   0  0  0  0  0  0  0  0  0  0  0  0
  -14.4131   16.9636  -40.4627 H   0  0  0  0  0  0  0  0  0  0  0  0
  1  3  1  6  0  0  0
  1  4  1  6  0  0  0
  2  3  1  0  0  0  0
  2  6  1  0  0  0  0
  3  7  1  0  0  0  0
  4  5  1  0  0  0  0
  4  7  1  0  0  0  0
  5  6  1  0  0  0  0
  5  8  1  6  0  0  0
  6 11  1  6  0  0  0
  7  9  1  0  0  0  0
  7 10  1  0  0  0  0
  1 12  1  0  0  0  0
  1 13  1  0  0  0  0
  2 14  1  0  0  0  0
  2 15  1  0  0  0  0
  3 16  1  0  0  0  0
  4 17  1  0  0  0  0
  5 18  1  0  0  0  0
  6 19  1  0  0  0  0
  8 20  1  0  0  0  0
  8 21  1  0  0  0  0
  8 22  1  0  0  0  0
  9 23  1  0  0  0  0
  9 24  1  0  0  0  0
  9 25  1  0  0  0  0
 10 26  1  0  0  0  0
 10 27  1  0  0  0  0
 10 28  1  0  0  0  0
 11 29  1  0  0  0  0
M  END
> <id>
EN300-20064426

> <smiles>
C[C@@H]1[C@@H]2C[C@H](C[C@@H]1O)C2(C)C

> <MDLNUMBER>
MFCD34562791

> <IUPAC Name>
(1S,2R,3S,5R)-2,6,6-trimethylbicyclo[3.1.1]heptan-3-ol

> <CAS>
73366-08-2

> <Purity>
95

> <URL>
https://www.enaminestore.com/catalog/EN300-20064426

> <ROCS_ShapeQuery>
_x1247relevant_x1083L0AP1_x1305L0BP1_

> <ROCS_TanimotoCombo>
1.013 

> <ROCS_ShapeTanimoto>
0.466 

> <ROCS_ColorTanimoto>
0.547 

> <ROCS_RefTversky>
0.391 

> <ROCS_RefColorTversky>
0.687 

> <ROCS_RefTverskyCombo>
1.079 

> <ROCS_FitTversky>
1.686 

> <ROCS_FitColorTversky>
0.728 

> <ROCS_FitTverskyCombo>
2.415 

> <ROCS_ColorScore>
-6.623

> <ROCS_Overlap>
961.652

> <ROCS_Rank>
442                 

$$$$
untitled-dbase-41084_0
  -OEChem-06232314403D

 23 25  0     1  0  0  0  0  0999 V2000
   -9.5611   13.7908  -36.6517 C   0  0  0  0  0  0  0  0  0  0  0  0
  -10.8001   13.3421  -37.1174 C   0  0  0  0  0  0  0  0  0  0  0  0
   -9.2386   15.1633  -36.6519 C   0  0  0  0  0  0  0  0  0  0  0  0
  -11.6877   14.2945  -37.5648 C   0  0  0  0  0  0  0  0  0  0  0  0
  -11.3670   15.6592  -37.5651 C   0  0  0  0  0  0  0  0  0  0  0  0
  -10.1481   16.1167  -37.1178 C   0  0  0  0  0  0  0  0  0  0  0  0
  -13.0128   14.5298  -39.6442 C   0  0  0  0  0  0  0  0  0  0  0  0
  -12.6584   16.0378  -39.6445 C   0  0  0  0  0  0  0  0  0  0  0  0
  -13.0617   14.2013  -38.1487 C   0  0  2  0  0  0  0  0  0  0  0  0
  -12.5557   16.3543  -38.1491 C   0  0  1  0  0  0  0  0  0  0  0  0
   -9.8214   17.4810  -37.1283 N   0  0  0  0  0  0  0  0  0  0  0  0
  -13.5929   15.4622  -37.6345 O   0  0  0  0  0  0  0  0  0  0  0  0
   -8.8318   13.0721  -36.2869 H   0  0  0  0  0  0  0  0  0  0  0  0
  -11.0455   12.2868  -37.1245 H   0  0  0  0  0  0  0  0  0  0  0  0
   -8.2618   15.4719  -36.2859 H   0  0  0  0  0  0  0  0  0  0  0  0
  -13.9985   14.3917  -40.1025 H   0  0  0  0  0  0  0  0  0  0  0  0
  -12.2834   13.9279  -40.1952 H   0  0  0  0  0  0  0  0  0  0  0  0
  -11.7368   16.2516  -40.1955 H   0  0  0  0  0  0  0  0  0  0  0  0
  -13.4796   16.5999  -40.1027 H   0  0  0  0  0  0  0  0  0  0  0  0
  -13.6649   13.3471  -37.8382 H   0  0  0  0  0  0  0  0  0  0  0  0
  -12.7203   17.3874  -37.8395 H   0  0  0  0  0  0  0  0  0  0  0  0
   -8.9407   17.7824  -36.7531 H   0  0  0  0  0  0  0  0  0  0  0  0
  -10.5071   18.1521  -37.4230 H   0  0  0  0  0  0  0  0  0  0  0  0
  1  2  2  0  0  0  0
  1  3  1  0  0  0  0
  2  4  1  0  0  0  0
  3  6  2  0  0  0  0
  4  5  2  0  0  0  0
  4  9  1  0  0  0  0
  5  6  1  0  0  0  0
  5 10  1  0  0  0  0
  6 11  1  0  0  0  0
  7  8  1  0  0  0  0
  7  9  1  0  0  0  0
  8 10  1  0  0  0  0
  9 12  1  0  0  0  0
 10 12  1  0  0  0  0
  1 13  1  0  0  0  0
  2 14  1  0  0  0  0
  3 15  1  0  0  0  0
  7 16  1  0  0  0  0
  7 17  1  0  0  0  0
  8 18  1  0  0  0  0
  8 19  1  0  0  0  0
  9 20  1  0  0  0  0
 10 21  1  0  0  0  0
 11 22  1  0  0  0  0
 11 23  1  0  0  0  0
M  END
> <id>
EN300-138929

> <smiles>
NC=1C=CC=C2C3CCC(O3)C21

> <MDLNUMBER>
MFCD20721468

> <IUPAC Name>
11-oxatricyclo[6.2.1.0,2,7]undeca-2(7),3,5-trien-3-amine

> <CAS>
668492-12-4

> <Purity>
95

> <URL>
https://www.enaminestore.com/catalog/EN300-138929

> <MP>
75-76

> <ROCS_ShapeQuery>
_x1247relevant_x1083L0AP1_x1305L0BP1_

> <ROCS_TanimotoCombo>
1.013 

> <ROCS_ShapeTanimoto>
0.496 

> <ROCS_ColorTanimoto>
0.516 

> <ROCS_RefTversky>
0.421 

> <ROCS_RefColorTversky>
0.705 

> <ROCS_RefTverskyCombo>
1.127 

> <ROCS_FitTversky>
1.562 

> <ROCS_FitColorTversky>
0.658 

> <ROCS_FitTverskyCombo>
2.221 

> <ROCS_ColorScore>
-6.846

> <ROCS_Overlap>
1036.638

> <ROCS_Rank>
443                 

$$$$
untitled-dbase-28134_0
  -OEChem-06232314403D

 27 29  0     0  0  0  0  0  0999 V2000
  -13.9093   15.7055  -39.5455 C   0  0  0  0  0  0  0  0  0  0  0  0
  -13.6721   13.9271  -37.7952 C   0  0  0  0  0  0  0  0  0  0  0  0
  -13.4027   16.3504  -37.1773 C   0  0  0  0  0  0  0  0  0  0  0  0
  -11.9181   14.1838  -39.5596 C   0  0  0  0  0  0  0  0  0  0  0  0
  -11.6487   16.6036  -38.9423 C   0  0  0  0  0  0  0  0  0  0  0  0
  -14.1702   15.3581  -38.0703 C   0  0  0  0  0  0  0  0  0  0  0  0
  -12.4037   15.6148  -39.8468 C   0  0  0  0  0  0  0  0  0  0  0  0
  -12.1571   13.8264  -38.0777 C   0  0  0  0  0  0  0  0  0  0  0  0
  -11.8868   16.2578  -37.4577 C   0  0  0  0  0  0  0  0  0  0  0  0
  -11.4316   14.8151  -37.1352 C   0  0  0  0  0  0  0  0  0  0  0  0
   -9.6130   14.6265  -37.2017 S   0  0  0  0  0  0  0  0  0  0  0  0
  -14.4646   15.0194  -40.1967 H   0  0  0  0  0  0  0  0  0  0  0  0
  -14.2753   16.7164  -39.7633 H   0  0  0  0  0  0  0  0  0  0  0  0
  -13.8781   13.6534  -36.7531 H   0  0  0  0  0  0  0  0  0  0  0  0
  -14.2182   13.2132  -38.4241 H   0  0  0  0  0  0  0  0  0  0  0  0
  -13.7559   17.3722  -37.3633 H   0  0  0  0  0  0  0  0  0  0  0  0
  -13.6023   16.1339  -36.1205 H   0  0  0  0  0  0  0  0  0  0  0  0
  -12.4556   13.4744  -40.2019 H   0  0  0  0  0  0  0  0  0  0  0  0
  -10.8573   14.0892  -39.8178 H   0  0  0  0  0  0  0  0  0  0  0  0
  -10.5792   16.5875  -39.1800 H   0  0  0  0  0  0  0  0  0  0  0  0
  -11.9932   17.6260  -39.1431 H   0  0  0  0  0  0  0  0  0  0  0  0
  -15.2433   15.4235  -37.8589 H   0  0  0  0  0  0  0  0  0  0  0  0
  -12.2235   15.8630  -40.8987 H   0  0  0  0  0  0  0  0  0  0  0  0
  -11.8281   12.7983  -37.8857 H   0  0  0  0  0  0  0  0  0  0  0  0
  -11.3635   16.9799  -36.8193 H   0  0  0  0  0  0  0  0  0  0  0  0
  -11.7022   14.5806  -36.0980 H   0  0  0  0  0  0  0  0  0  0  0  0
   -9.6024   13.3490  -36.8025 H   0  0  0  0  0  0  0  0  0  0  0  0
  1  6  1  0  0  0  0
  1  7  1  0  0  0  0
  2  6  1  0  0  0  0
  2  8  1  0  0  0  0
  3  6  1  0  0  0  0
  3  9  1  0  0  0  0
  4  7  1  0  0  0  0
  4  8  1  0  0  0  0
  5  7  1  0  0  0  0
  5  9  1  0  0  0  0
  8 10  1  0  0  0  0
  9 10  1  0  0  0  0
 10 11  1  0  0  0  0
  1 12  1  0  0  0  0
  1 13  1  0  0  0  0
  2 14  1  0  0  0  0
  2 15  1  0  0  0  0
  3 16  1  0  0  0  0
  3 17  1  0  0  0  0
  4 18  1  0  0  0  0
  4 19  1  0  0  0  0
  5 20  1  0  0  0  0
  5 21  1  0  0  0  0
  6 22  1  0  0  0  0
  7 23  1  0  0  0  0
  8 24  1  0  0  0  0
  9 25  1  0  0  0  0
 10 26  1  0  0  0  0
 11 27  1  0  0  0  0
M  END
> <id>
EN300-1288232

> <smiles>
SC1C2CC3CC(C2)CC1C3

> <IUPAC Name>
adamantane-2-thiol

> <CAS>
23695-66-1

> <URL>
https://www.enaminestore.com/catalog/EN300-1288232

> <ROCS_ShapeQuery>
_x1247relevant_x1083L0AP1_x1305L0BP1_

> <ROCS_TanimotoCombo>
1.013 

> <ROCS_ShapeTanimoto>
0.469 

> <ROCS_ColorTanimoto>
0.544 

> <ROCS_RefTversky>
0.395 

> <ROCS_RefColorTversky>
0.598 

> <ROCS_RefTverskyCombo>
0.992 

> <ROCS_FitTversky>
1.665 

> <ROCS_FitColorTversky>
0.858 

> <ROCS_FitTverskyCombo>
2.522 

> <ROCS_ColorScore>
-5.680

> <ROCS_Overlap>
970.396

> <ROCS_Rank>
444                 

$$$$
untitled-dbase-47889_0
  -OEChem-06232314403D

 22 23  0     1  0  0  0  0  0999 V2000
  -15.3952   13.6459  -40.6460 C   0  0  0  0  0  0  0  0  0  0  0  0
  -14.6532   14.4251  -40.1137 C   0  0  0  0  0  0  0  0  0  0  0  0
  -11.4970   16.0793  -37.6806 C   0  0  0  0  0  0  0  0  0  0  0  0
  -12.9486   16.3072  -37.2346 C   0  0  0  0  0  0  0  0  0  0  0  0
  -12.6852   14.0181  -37.7941 C   0  0  0  0  0  0  0  0  0  0  0  0
  -12.2739   15.1314  -39.8697 C   0  0  0  0  0  0  0  0  0  0  0  0
  -11.5918   14.7966  -38.5250 C   0  0  1  0  0  0  0  0  0  0  0  0
  -13.7040   15.1553  -37.9269 C   0  0  2  0  0  0  0  0  0  0  0  0
  -13.7427   15.3809  -39.4614 C   0  0  2  0  0  0  0  0  0  0  0  0
  -14.1705   16.6903  -39.8010 O   0  0  0  0  0  0  0  0  0  0  0  0
  -16.0536   12.9546  -41.1180 H   0  0  0  0  0  0  0  0  0  0  0  0
  -11.1036   16.9274  -38.2499 H   0  0  0  0  0  0  0  0  0  0  0  0
  -10.8545   15.9261  -36.8063 H   0  0  0  0  0  0  0  0  0  0  0  0
  -13.0211   16.2079  -36.1448 H   0  0  0  0  0  0  0  0  0  0  0  0
  -13.3189   17.3018  -37.4968 H   0  0  0  0  0  0  0  0  0  0  0  0
  -12.9779   13.0967  -38.3074 H   0  0  0  0  0  0  0  0  0  0  0  0
  -12.4291   13.7880  -36.7543 H   0  0  0  0  0  0  0  0  0  0  0  0
  -11.8068   15.9947  -40.3557 H   0  0  0  0  0  0  0  0  0  0  0  0
  -12.1792   14.2718  -40.5449 H   0  0  0  0  0  0  0  0  0  0  0  0
  -10.6379   14.2776  -38.6386 H   0  0  0  0  0  0  0  0  0  0  0  0
  -14.6799   14.9593  -37.4749 H   0  0  0  0  0  0  0  0  0  0  0  0
  -15.0800   16.7846  -39.4726 H   0  0  0  0  0  0  0  0  0  0  0  0
  1  2  3  0  0  0  0
  2  9  1  0  0  0  0
  3  4  1  0  0  0  0
  3  7  1  0  0  0  0
  4  8  1  0  0  0  0
  5  7  1  0  0  0  0
  5  8  1  0  0  0  0
  6  7  1  0  0  0  0
  6  9  1  0  0  0  0
  8  9  1  0  0  0  0
  9 10  1  0  0  0  0
  1 11  1  0  0  0  0
  3 12  1  0  0  0  0
  3 13  1  0  0  0  0
  4 14  1  0  0  0  0
  4 15  1  0  0  0  0
  5 16  1  0  0  0  0
  5 17  1  0  0  0  0
  6 18  1  0  0  0  0
  6 19  1  0  0  0  0
  7 20  1  0  0  0  0
  8 21  1  0  0  0  0
 10 22  1  0  0  0  0
M  END
> <id>
EN300-380916

> <smiles>
OC1(CC2CCC1C2)C#C

> <MDLNUMBER>
MFCD24121599

> <IUPAC Name>
2-ethynylbicyclo[2.2.1]heptan-2-ol

> <CAS>
18084-03-2

> <Purity>
95

> <URL>
https://www.enaminestore.com/catalog/EN300-380916

> <MP>
40-45

> <ROCS_ShapeQuery>
_x1247relevant_x1083L0AP1_x1305L0BP1_

> <ROCS_TanimotoCombo>
1.012 

> <ROCS_ShapeTanimoto>
0.409 

> <ROCS_ColorTanimoto>
0.603 

> <ROCS_RefTversky>
0.355 

> <ROCS_RefColorTversky>
0.740 

> <ROCS_RefTverskyCombo>
1.095 

> <ROCS_FitTversky>
1.596 

> <ROCS_FitColorTversky>
0.766 

> <ROCS_FitTverskyCombo>
2.362 

> <ROCS_ColorScore>
-7.136

> <ROCS_Overlap>
871.594

> <ROCS_Rank>
445                 

$$$$
untitled-dbase-3546_0
  -OEChem-06232314403D

 29 30  0     1  0  0  0  0  0999 V2000
  -13.4677   15.3561  -37.1811 C   0  0  0  0  0  0  0  0  0  0  0  0
  -12.3122   16.6089  -39.0967 C   0  0  0  0  0  0  0  0  0  0  0  0
  -12.1848   16.1111  -37.6476 C   0  0  2  0  0  0  0  0  0  0  0  0
  -12.8346   14.1283  -37.9109 C   0  0  1  0  0  0  0  0  0  0  0  0
  -13.1042   14.1525  -39.4318 C   0  0  2  0  0  0  0  0  0  0  0  0
  -13.1203   15.6148  -39.9595 C   0  0  1  0  0  0  0  0  0  0  0  0
  -11.4312   14.7308  -37.4813 C   0  0  0  0  0  0  0  0  0  0  0  0
  -14.3888   13.3802  -39.7372 C   0  0  0  0  0  0  0  0  0  0  0  0
  -10.2281   14.4706  -38.3949 C   0  0  0  0  0  0  0  0  0  0  0  0
  -10.9983   14.3953  -36.0397 C   0  0  0  0  0  0  0  0  0  0  0  0
  -14.4679   16.0926  -40.0435 O   0  0  0  0  0  0  0  0  0  0  0  0
  -13.5806   15.2492  -36.0970 H   0  0  0  0  0  0  0  0  0  0  0  0
  -14.4288   15.7228  -37.5512 H   0  0  0  0  0  0  0  0  0  0  0  0
  -12.7981   17.5924  -39.0980 H   0  0  0  0  0  0  0  0  0  0  0  0
  -11.3129   16.7554  -39.5209 H   0  0  0  0  0  0  0  0  0  0  0  0
  -11.8398   16.9029  -36.9741 H   0  0  0  0  0  0  0  0  0  0  0  0
  -13.0512   13.1549  -37.4561 H   0  0  0  0  0  0  0  0  0  0  0  0
  -12.2914   13.6163  -39.9321 H   0  0  0  0  0  0  0  0  0  0  0  0
  -12.7373   15.6331  -40.9871 H   0  0  0  0  0  0  0  0  0  0  0  0
  -15.2346   13.8722  -39.2614 H   0  0  0  0  0  0  0  0  0  0  0  0
  -14.3051   12.3642  -39.3573 H   0  0  0  0  0  0  0  0  0  0  0  0
  -14.5510   13.3488  -40.8127 H   0  0  0  0  0  0  0  0  0  0  0  0
   -9.8091   13.4922  -38.1745 H   0  0  0  0  0  0  0  0  0  0  0  0
   -9.4723   15.2332  -38.2266 H   0  0  0  0  0  0  0  0  0  0  0  0
  -10.5471   14.5012  -39.4335 H   0  0  0  0  0  0  0  0  0  0  0  0
  -10.4943   13.4359  -36.0353 H   0  0  0  0  0  0  0  0  0  0  0  0
  -11.8772   14.3524  -35.4069 H   0  0  0  0  0  0  0  0  0  0  0  0
  -10.3252   15.1666  -35.6834 H   0  0  0  0  0  0  0  0  0  0  0  0
  -14.4187   16.9669  -40.4557 H   0  0  0  0  0  0  0  0  0  0  0  0
  1  3  1  0  0  0  0
  1  4  1  0  0  0  0
  2  3  1  0  0  0  0
  2  6  1  0  0  0  0
  3  7  1  0  0  0  0
  4  5  1  0  0  0  0
  4  7  1  0  0  0  0
  5  6  1  0  0  0  0
  5  8  1  0  0  0  0
  6 11  1  0  0  0  0
  7  9  1  0  0  0  0
  7 10  1  0  0  0  0
  1 12  1  0  0  0  0
  1 13  1  0  0  0  0
  2 14  1  0  0  0  0
  2 15  1  0  0  0  0
  3 16  1  0  0  0  0
  4 17  1  0  0  0  0
  5 18  1  0  0  0  0
  6 19  1  0  0  0  0
  8 20  1  0  0  0  0
  8 21  1  0  0  0  0
  8 22  1  0  0  0  0
  9 23  1  0  0  0  0
  9 24  1  0  0  0  0
  9 25  1  0  0  0  0
 10 26  1  0  0  0  0
 10 27  1  0  0  0  0
 10 28  1  0  0  0  0
 11 29  1  0  0  0  0
M  END
> <id>
EN300-20761

> <smiles>
CC1C2CC(CC1O)C2(C)C

> <MDLNUMBER>
MFCD13351959

> <IUPAC Name>
2,6,6-trimethylbicyclo[3.1.1]heptan-3-ol

> <CAS>
473-61-0

> <URL>
https://www.enaminestore.com/catalog/EN300-20761

> <MP>
51-53

> <ROCS_ShapeQuery>
_x1247relevant_x1083L0AP1_x1305L0BP1_

> <ROCS_TanimotoCombo>
1.012 

> <ROCS_ShapeTanimoto>
0.465 

> <ROCS_ColorTanimoto>
0.547 

> <ROCS_RefTversky>
0.391 

> <ROCS_RefColorTversky>
0.687 

> <ROCS_RefTverskyCombo>
1.079 

> <ROCS_FitTversky>
1.686 

> <ROCS_FitColorTversky>
0.728 

> <ROCS_FitTverskyCombo>
2.414 

> <ROCS_ColorScore>
-6.622

> <ROCS_Overlap>
961.253

> <ROCS_Rank>
446                 

$$$$
untitled-dbase-30191_0
  -OEChem-06232314403D

 22 24  0     1  0  0  0  0  0999 V2000
  -10.6748   13.6255  -36.8752 C   0  0  0  0  0  0  0  0  0  0  0  0
   -9.3875   14.1617  -36.8340 C   0  0  0  0  0  0  0  0  0  0  0  0
  -10.1483   16.1861  -37.9505 C   0  0  0  0  0  0  0  0  0  0  0  0
  -11.6818   14.3811  -37.4544 C   0  0  0  0  0  0  0  0  0  0  0  0
  -11.4316   15.6589  -37.9935 C   0  0  0  0  0  0  0  0  0  0  0  0
   -9.1258   15.4322  -37.3678 C   0  0  0  0  0  0  0  0  0  0  0  0
  -13.1335   13.9945  -37.6129 C   0  0  0  0  0  0  0  0  0  0  0  0
  -12.6848   16.2551  -38.5540 C   0  0  2  0  0  0  0  0  0  0  0  0
  -13.7568   15.2054  -38.2912 C   0  0  1  0  0  0  0  0  0  0  0  0
  -13.4046   15.5942  -39.7060 C   0  0  1  0  0  0  0  0  0  0  0  0
  -14.3545   16.3657  -40.5152 N   0  0  0  0  0  0  0  0  0  0  0  0
   -7.5268   16.0701  -37.3052 Cl  0  0  0  0  0  0  0  0  0  0  0  0
  -10.8767   12.6423  -36.4640 H   0  0  0  0  0  0  0  0  0  0  0  0
   -8.5880   13.5788  -36.3826 H   0  0  0  0  0  0  0  0  0  0  0  0
   -9.9524   17.1706  -38.3657 H   0  0  0  0  0  0  0  0  0  0  0  0
  -13.2390   13.1020  -38.2366 H   0  0  0  0  0  0  0  0  0  0  0  0
  -13.5903   13.8290  -36.6322 H   0  0  0  0  0  0  0  0  0  0  0  0
  -12.9286   17.2834  -38.3111 H   0  0  0  0  0  0  0  0  0  0  0  0
  -14.7032   15.5132  -37.8691 H   0  0  0  0  0  0  0  0  0  0  0  0
  -12.8437   14.8721  -40.2917 H   0  0  0  0  0  0  0  0  0  0  0  0
  -13.8395   16.8505  -41.2085 H   0  0  0  0  0  0  0  0  0  0  0  0
  -14.9911   15.7278  -40.9260 H   0  0  0  0  0  0  0  0  0  0  0  0
  1  2  1  0  0  0  0
  1  4  2  0  0  0  0
  2  6  2  0  0  0  0
  3  5  2  0  0  0  0
  3  6  1  0  0  0  0
  4  5  1  0  0  0  0
  4  7  1  0  0  0  0
  5  8  1  0  0  0  0
  6 12  1  0  0  0  0
  7  9  1  0  0  0  0
  8  9  1  0  0  0  0
  8 10  1  0  0  0  0
  9 10  1  0  0  0  0
 10 11  1  0  0  0  0
  1 13  1  0  0  0  0
  2 14  1  0  0  0  0
  3 15  1  0  0  0  0
  7 16  1  0  0  0  0
  7 17  1  0  0  0  0
  8 18  1  0  0  0  0
  9 19  1  0  0  0  0
 10 20  1  0  0  0  0
 11 21  1  0  0  0  0
 11 22  1  0  0  0  0
M  END
> <id>
EN300-7546564

> <smiles>
Cl.NC1C2CC=3C=CC(Cl)=CC3C12

> <MDLNUMBER>
MFCD32647930

> <IUPAC Name>
3-chloro-1H,1aH,6H,6aH-cyclopropa[a]inden-1-amine hydrochloride

> <CAS>
93507-10-9

> <Purity>
95

> <URL>
https://www.enaminestore.com/catalog/EN300-7546564

> <Saltdate>
Cl

> <ROCS_ShapeQuery>
_x1247relevant_x1083L0AP1_x1305L0BP1_

> <ROCS_TanimotoCombo>
1.012 

> <ROCS_ShapeTanimoto>
0.485 

> <ROCS_ColorTanimoto>
0.527 

> <ROCS_RefTversky>
0.410 

> <ROCS_RefColorTversky>
0.597 

> <ROCS_RefTverskyCombo>
1.008 

> <ROCS_FitTversky>
1.597 

> <ROCS_FitColorTversky>
0.818 

> <ROCS_FitTverskyCombo>
2.415 

> <ROCS_ColorScore>
-5.689

> <ROCS_Overlap>
1009.710

> <ROCS_Rank>
447                 

$$$$
untitled-dbase-38524_0
  -OEChem-06232314403D

 22 24  0     1  0  0  0  0  0999 V2000
  -10.6748   13.6255  -36.8752 C   0  0  0  0  0  0  0  0  0  0  0  0
   -9.3875   14.1617  -36.8340 C   0  0  0  0  0  0  0  0  0  0  0  0
  -10.1483   16.1861  -37.9505 C   0  0  0  0  0  0  0  0  0  0  0  0
  -11.6818   14.3811  -37.4544 C   0  0  0  0  0  0  0  0  0  0  0  0
  -11.4316   15.6589  -37.9935 C   0  0  0  0  0  0  0  0  0  0  0  0
   -9.1258   15.4322  -37.3678 C   0  0  0  0  0  0  0  0  0  0  0  0
  -13.1335   13.9945  -37.6129 C   0  0  0  0  0  0  0  0  0  0  0  0
  -12.6848   16.2551  -38.5540 C   0  0  2  0  0  0  0  0  0  0  0  0
  -13.7568   15.2054  -38.2912 C   0  0  1  0  0  0  0  0  0  0  0  0
  -13.4046   15.5942  -39.7060 C   0  0  1  0  0  0  0  0  0  0  0  0
  -14.3545   16.3657  -40.5152 N   0  0  0  0  0  0  0  0  0  0  0  0
   -7.5268   16.0701  -37.3052 Cl  0  0  0  0  0  0  0  0  0  0  0  0
  -10.8767   12.6423  -36.4640 H   0  0  0  0  0  0  0  0  0  0  0  0
   -8.5880   13.5788  -36.3826 H   0  0  0  0  0  0  0  0  0  0  0  0
   -9.9524   17.1706  -38.3657 H   0  0  0  0  0  0  0  0  0  0  0  0
  -13.2390   13.1020  -38.2366 H   0  0  0  0  0  0  0  0  0  0  0  0
  -13.5903   13.8290  -36.6322 H   0  0  0  0  0  0  0  0  0  0  0  0
  -12.9286   17.2834  -38.3111 H   0  0  0  0  0  0  0  0  0  0  0  0
  -14.7032   15.5132  -37.8691 H   0  0  0  0  0  0  0  0  0  0  0  0
  -12.8437   14.8721  -40.2917 H   0  0  0  0  0  0  0  0  0  0  0  0
  -13.8395   16.8505  -41.2085 H   0  0  0  0  0  0  0  0  0  0  0  0
  -14.9911   15.7278  -40.9260 H   0  0  0  0  0  0  0  0  0  0  0  0
  1  2  1  0  0  0  0
  1  4  2  0  0  0  0
  2  6  2  0  0  0  0
  3  5  2  0  0  0  0
  3  6  1  0  0  0  0
  4  5  1  0  0  0  0
  4  7  1  0  0  0  0
  5  8  1  0  0  0  0
  6 12  1  0  0  0  0
  7  9  1  0  0  0  0
  8  9  1  0  0  0  0
  8 10  1  0  0  0  0
  9 10  1  0  0  0  0
 10 11  1  0  0  0  0
  1 13  1  0  0  0  0
  2 14  1  0  0  0  0
  3 15  1  0  0  0  0
  7 16  1  0  0  0  0
  7 17  1  0  0  0  0
  8 18  1  0  0  0  0
  9 19  1  0  0  0  0
 10 20  1  0  0  0  0
 11 21  1  0  0  0  0
 11 22  1  0  0  0  0
M  END
> <id>
EN300-7546565

> <smiles>
NC1C2CC=3C=CC(Cl)=CC3C12

> <MDLNUMBER>
MFCD32648955

> <IUPAC Name>
3-chloro-1H,1aH,6H,6aH-cyclopropa[a]inden-1-amine

> <CAS>
803638-06-4

> <URL>
https://www.enaminestore.com/catalog/EN300-7546565

> <ROCS_ShapeQuery>
_x1247relevant_x1083L0AP1_x1305L0BP1_

> <ROCS_TanimotoCombo>
1.012 

> <ROCS_ShapeTanimoto>
0.485 

> <ROCS_ColorTanimoto>
0.527 

> <ROCS_RefTversky>
0.410 

> <ROCS_RefColorTversky>
0.597 

> <ROCS_RefTverskyCombo>
1.008 

> <ROCS_FitTversky>
1.597 

> <ROCS_FitColorTversky>
0.818 

> <ROCS_FitTverskyCombo>
2.415 

> <ROCS_ColorScore>
-5.689

> <ROCS_Overlap>
1009.710

> <ROCS_Rank>
448                 

$$$$
untitled-dbase-30570_14
  -OEChem-06232314403D

 37 38  0     1  0  0  0  0  0999 V2000
   -9.8306   14.6867  -36.9666 C   0  0  0  0  0  0  0  0  0  0  0  0
  -13.7821   14.1454  -37.9405 C   0  0  0  0  0  0  0  0  0  0  0  0
  -13.8220   15.5153  -37.2486 C   0  0  0  0  0  0  0  0  0  0  0  0
  -11.4151   14.1198  -38.8409 C   0  0  0  0  0  0  0  0  0  0  0  0
  -11.4836   16.3699  -37.7118 C   0  0  0  0  0  0  0  0  0  0  0  0
  -12.8955   14.3480  -39.1829 C   0  0  2  0  0  0  0  0  0  0  0  0
  -12.9594   16.4365  -38.1305 C   0  0  1  0  0  0  0  0  0  0  0  0
  -13.1091   15.8225  -39.5212 C   0  0  0  0  0  0  0  0  0  0  0  0
  -10.4620   12.7348  -35.3317 C   0  0  0  0  0  0  0  0  0  0  0  0
   -9.3616   11.1189  -36.9088 C   0  0  0  0  0  0  0  0  0  0  0  0
   -7.9516   12.6241  -35.4754 C   0  0  0  0  0  0  0  0  0  0  0  0
   -9.2634   12.4921  -36.2479 C   0  0  0  0  0  0  0  0  0  0  0  0
  -10.9281   15.0113  -37.7741 N   0  0  0  0  0  0  0  0  0  0  0  0
   -9.3967   15.4053  -36.0679 O   0  0  0  0  0  0  0  0  0  0  0  0
  -14.4169   16.0519  -40.0258 O   0  0  0  0  0  0  0  0  0  0  0  0
   -9.2799   13.4746  -37.2898 O   0  0  0  0  0  0  0  0  0  0  0  0
  -13.4035   13.3619  -37.2758 H   0  0  0  0  0  0  0  0  0  0  0  0
  -14.7970   13.8582  -38.2403 H   0  0  0  0  0  0  0  0  0  0  0  0
  -14.8562   15.8781  -37.2174 H   0  0  0  0  0  0  0  0  0  0  0  0
  -13.4623   15.4631  -36.2157 H   0  0  0  0  0  0  0  0  0  0  0  0
  -11.2590   13.0755  -38.5506 H   0  0  0  0  0  0  0  0  0  0  0  0
  -10.7895   14.3105  -39.7210 H   0  0  0  0  0  0  0  0  0  0  0  0
  -10.8745   16.9910  -38.3799 H   0  0  0  0  0  0  0  0  0  0  0  0
  -11.3579   16.7674  -36.6984 H   0  0  0  0  0  0  0  0  0  0  0  0
  -13.2099   13.6818  -39.9930 H   0  0  0  0  0  0  0  0  0  0  0  0
  -13.3254   17.4673  -38.0836 H   0  0  0  0  0  0  0  0  0  0  0  0
  -12.3840   16.2090  -40.2449 H   0  0  0  0  0  0  0  0  0  0  0  0
  -10.3952   13.7195  -34.8554 H   0  0  0  0  0  0  0  0  0  0  0  0
  -11.4075   12.6775  -35.8808 H   0  0  0  0  0  0  0  0  0  0  0  0
  -10.4884   11.9996  -34.5193 H   0  0  0  0  0  0  0  0  0  0  0  0
   -8.5036   10.9405  -37.5670 H   0  0  0  0  0  0  0  0  0  0  0  0
  -10.2545   11.0529  -37.5409 H   0  0  0  0  0  0  0  0  0  0  0  0
   -9.4020   10.3152  -36.1665 H   0  0  0  0  0  0  0  0  0  0  0  0
   -7.0918   12.4501  -36.1323 H   0  0  0  0  0  0  0  0  0  0  0  0
   -7.8470   13.6164  -35.0248 H   0  0  0  0  0  0  0  0  0  0  0  0
   -7.8904   11.8724  -34.6802 H   0  0  0  0  0  0  0  0  0  0  0  0
  -14.5075   15.5118  -40.8278 H   0  0  0  0  0  0  0  0  0  0  0  0
  1 13  1  0  0  0  0
  1 14  2  0  0  0  0
  1 16  1  0  0  0  0
  2  3  1  0  0  0  0
  2  6  1  0  0  0  0
  3  7  1  0  0  0  0
  4  6  1  0  0  0  0
  4 13  1  0  0  0  0
  5  7  1  0  0  0  0
  5 13  1  0  0  0  0
  6  8  1  0  0  0  0
  7  8  1  0  0  0  0
  8 15  1  0  0  0  0
  9 12  1  0  0  0  0
 10 12  1  0  0  0  0
 11 12  1  0  0  0  0
 12 16  1  0  0  0  0
  2 17  1  0  0  0  0
  2 18  1  0  0  0  0
  3 19  1  0  0  0  0
  3 20  1  0  0  0  0
  4 21  1  0  0  0  0
  4 22  1  0  0  0  0
  5 23  1  0  0  0  0
  5 24  1  0  0  0  0
  6 25  1  0  0  0  0
  7 26  1  0  0  0  0
  8 27  1  0  0  0  0
  9 28  1  0  0  0  0
  9 29  1  0  0  0  0
  9 30  1  0  0  0  0
 10 31  1  0  0  0  0
 10 32  1  0  0  0  0
 10 33  1  0  0  0  0
 11 34  1  0  0  0  0
 11 35  1  0  0  0  0
 11 36  1  0  0  0  0
 15 37  1  0  0  0  0
M  END
> <id>
EN300-226749

> <smiles>
CC(C)(C)OC(=O)N1CC2CCC(C1)C2O

> <MDLNUMBER>
MFCD22415201

> <IUPAC Name>
tert-butyl 8-hydroxy-3-azabicyclo[3.2.1]octane-3-carboxylate

> <CAS>
1330766-08-9

> <URL>
https://www.enaminestore.com/catalog/EN300-226749

> <ROCS_ShapeQuery>
_x1247relevant_x1083L0AP1_x1305L0BP1_

> <ROCS_TanimotoCombo>
1.012 

> <ROCS_ShapeTanimoto>
0.496 

> <ROCS_ColorTanimoto>
0.516 

> <ROCS_RefTversky>
0.439 

> <ROCS_RefColorTversky>
0.686 

> <ROCS_RefTverskyCombo>
1.124 

> <ROCS_FitTversky>
1.356 

> <ROCS_FitColorTversky>
0.676 

> <ROCS_FitTverskyCombo>
2.033 

> <ROCS_ColorScore>
-6.633

> <ROCS_Overlap>
1083.042

> <ROCS_Rank>
449                 

$$$$
untitled-dbase-45176_0
  -OEChem-06232314403D

 27 29  0     0  0  0  0  0  0999 V2000
   -9.4316   13.8155  -36.6208 C   0  0  0  0  0  0  0  0  0  0  0  0
   -9.3064   15.1752  -36.3018 C   0  0  0  0  0  0  0  0  0  0  0  0
  -11.4672   14.2744  -37.7974 C   0  0  0  0  0  0  0  0  0  0  0  0
  -11.3412   15.6428  -37.4763 C   0  0  0  0  0  0  0  0  0  0  0  0
  -10.5155   13.3574  -37.3721 C   0  0  0  0  0  0  0  0  0  0  0  0
  -10.2631   16.0978  -36.7291 C   0  0  0  0  0  0  0  0  0  0  0  0
  -13.9227   14.4307  -37.8003 C   0  0  0  0  0  0  0  0  0  0  0  0
  -12.6225   14.8046  -39.9041 C   0  0  0  0  0  0  0  0  0  0  0  0
  -13.7845   15.9318  -37.4481 C   0  0  0  0  0  0  0  0  0  0  0  0
  -12.4842   16.3057  -39.5518 C   0  0  0  0  0  0  0  0  0  0  0  0
  -12.7017   13.9538  -38.6173 C   0  0  0  0  0  0  0  0  0  0  0  0
  -12.4671   16.5007  -38.0196 C   0  0  0  0  0  0  0  0  0  0  0  0
  -10.6196   12.0362  -37.6713 O   0  0  0  0  0  0  0  0  0  0  0  0
  -10.0228   17.9141  -36.2549 Br  0  0  0  0  0  0  0  0  0  0  0  0
   -8.6735   13.1169  -36.2761 H   0  0  0  0  0  0  0  0  0  0  0  0
   -8.4480   15.4929  -35.7143 H   0  0  0  0  0  0  0  0  0  0  0  0
  -14.0122   13.8481  -36.8745 H   0  0  0  0  0  0  0  0  0  0  0  0
  -14.8467   14.2668  -38.3675 H   0  0  0  0  0  0  0  0  0  0  0  0
  -13.5177   14.6491  -40.5178 H   0  0  0  0  0  0  0  0  0  0  0  0
  -11.7638   14.4947  -40.5131 H   0  0  0  0  0  0  0  0  0  0  0  0
  -14.6423   16.4853  -37.8485 H   0  0  0  0  0  0  0  0  0  0  0  0
  -13.8109   16.0534  -36.3577 H   0  0  0  0  0  0  0  0  0  0  0  0
  -11.5617   16.7001  -39.9965 H   0  0  0  0  0  0  0  0  0  0  0  0
  -13.3144   16.8672  -39.9967 H   0  0  0  0  0  0  0  0  0  0  0  0
  -12.7811   12.8890  -38.8556 H   0  0  0  0  0  0  0  0  0  0  0  0
  -12.3752   17.5608  -37.7745 H   0  0  0  0  0  0  0  0  0  0  0  0
   -9.8709   11.5440  -37.2962 H   0  0  0  0  0  0  0  0  0  0  0  0
  1  2  1  0  0  0  0
  1  5  2  0  0  0  0
  2  6  2  0  0  0  0
  3  4  2  0  0  0  0
  3  5  1  0  0  0  0
  3 11  1  0  0  0  0
  4  6  1  0  0  0  0
  4 12  1  0  0  0  0
  5 13  1  0  0  0  0
  6 14  1  0  0  0  0
  7  9  1  0  0  0  0
  7 11  1  0  0  0  0
  8 10  1  0  0  0  0
  8 11  1  0  0  0  0
  9 12  1  0  0  0  0
 10 12  1  0  0  0  0
  1 15  1  0  0  0  0
  2 16  1  0  0  0  0
  7 17  1  0  0  0  0
  7 18  1  0  0  0  0
  8 19  1  0  0  0  0
  8 20  1  0  0  0  0
  9 21  1  0  0  0  0
  9 22  1  0  0  0  0
 10 23  1  0  0  0  0
 10 24  1  0  0  0  0
 11 25  1  0  0  0  0
 12 26  1  0  0  0  0
 13 27  1  0  0  0  0
M  END
> <id>
EN300-28250051

> <smiles>
OC=1C=CC(Br)=C2C3CCC(CC3)C12

> <MDLNUMBER>
MFCD34183741

> <IUPAC Name>
6-bromotricyclo[6.2.2.0,2,7]dodeca-2(7),3,5-trien-3-ol

> <CAS>
2680533-14-4

> <Purity>
95

> <URL>
https://www.enaminestore.com/catalog/EN300-28250051

> <ROCS_ShapeQuery>
_x1247relevant_x1083L0AP1_x1305L0BP1_

> <ROCS_TanimotoCombo>
1.012 

> <ROCS_ShapeTanimoto>
0.488 

> <ROCS_ColorTanimoto>
0.525 

> <ROCS_RefTversky>
0.424 

> <ROCS_RefColorTversky>
0.701 

> <ROCS_RefTverskyCombo>
1.124 

> <ROCS_FitTversky>
1.447 

> <ROCS_FitColorTversky>
0.676 

> <ROCS_FitTverskyCombo>
2.124 

> <ROCS_ColorScore>
-6.785

> <ROCS_Overlap>
1044.272

> <ROCS_Rank>
450                 

$$$$
untitled-dbase-25718_0
  -OEChem-06232314403D

 27 30  0     1  0  0  0  0  0999 V2000
  -12.2915   13.4821  -37.8682 C   0  0  0  0  0  0  0  0  0  0  0  0
  -12.5050   15.6085  -36.5385 C   0  0  0  0  0  0  0  0  0  0  0  0
  -14.3150   14.9430  -38.1465 C   0  0  0  0  0  0  0  0  0  0  0  0
  -12.6168   14.7786  -39.9962 C   0  0  0  0  0  0  0  0  0  0  0  0
  -12.8325   16.9045  -38.6661 C   0  0  0  0  0  0  0  0  0  0  0  0
  -13.2809   14.4164  -37.1387 C   0  0  0  0  0  0  0  0  0  0  0  0
  -11.5734   14.2499  -38.9954 C   0  0  1  0  0  0  0  0  0  0  0  0
  -11.7893   16.3891  -37.6582 C   0  0  2  0  0  0  0  0  0  0  0  0
  -13.6077   15.7165  -39.2735 C   0  0  0  0  0  0  0  0  0  0  0  0
  -10.8727   15.4350  -38.3811 C   0  0  0  0  0  0  0  0  0  0  0  0
   -9.4944   15.2995  -37.9412 N   0  0  0  0  0  0  0  0  0  0  0  0
   -9.6567   15.9411  -38.9950 N   0  0  0  0  0  0  0  0  0  0  0  0
  -14.5817   16.1920  -40.1914 O   0  0  0  0  0  0  0  0  0  0  0  0
  -11.5562   13.0943  -37.1522 H   0  0  0  0  0  0  0  0  0  0  0  0
  -12.8266   12.6194  -38.2832 H   0  0  0  0  0  0  0  0  0  0  0  0
  -13.1932   16.2710  -35.9996 H   0  0  0  0  0  0  0  0  0  0  0  0
  -11.7716   15.2403  -35.8104 H   0  0  0  0  0  0  0  0  0  0  0  0
  -14.8971   14.1129  -38.5671 H   0  0  0  0  0  0  0  0  0  0  0  0
  -15.0441   15.5917  -37.6438 H   0  0  0  0  0  0  0  0  0  0  0  0
  -12.1231   15.3178  -40.8150 H   0  0  0  0  0  0  0  0  0  0  0  0
  -13.1574   13.9468  -40.4654 H   0  0  0  0  0  0  0  0  0  0  0  0
  -13.5273   17.6013  -38.1801 H   0  0  0  0  0  0  0  0  0  0  0  0
  -12.3422   17.4762  -39.4652 H   0  0  0  0  0  0  0  0  0  0  0  0
  -13.7881   13.8651  -36.3390 H   0  0  0  0  0  0  0  0  0  0  0  0
  -10.8671   13.5864  -39.5076 H   0  0  0  0  0  0  0  0  0  0  0  0
  -11.2356   17.2325  -37.2298 H   0  0  0  0  0  0  0  0  0  0  0  0
  -15.0426   15.4121  -40.5413 H   0  0  0  0  0  0  0  0  0  0  0  0
  1  6  1  0  0  0  0
  1  7  1  0  0  0  0
  2  6  1  0  0  0  0
  2  8  1  0  0  0  0
  3  6  1  0  0  0  0
  3  9  1  0  0  0  0
  4  7  1  0  0  0  0
  4  9  1  0  0  0  0
  5  8  1  0  0  0  0
  5  9  1  0  0  0  0
  7 10  1  0  0  0  0
  8 10  1  0  0  0  0
  9 13  1  0  0  0  0
 10 11  1  0  0  0  0
 10 12  1  0  0  0  0
 11 12  2  0  0  0  0
  1 14  1  0  0  0  0
  1 15  1  0  0  0  0
  2 16  1  0  0  0  0
  2 17  1  0  0  0  0
  3 18  1  0  0  0  0
  3 19  1  0  0  0  0
  4 20  1  0  0  0  0
  4 21  1  0  0  0  0
  5 22  1  0  0  0  0
  5 23  1  0  0  0  0
  6 24  1  0  0  0  0
  7 25  1  0  0  0  0
  8 26  1  0  0  0  0
 13 27  1  0  0  0  0
M  END
> <id>
EN300-1693334

> <smiles>
OC1(CC2CC3C1)CC(C2)C43N=N4

> <IUPAC Name>
spiro[adamantane-2,2'-diazirine]-7-ol

> <CAS>
90125-35-2

> <URL>
https://www.enaminestore.com/catalog/EN300-1693334

> <ROCS_ShapeQuery>
_x1247relevant_x1083L0AP1_x1305L0BP1_

> <ROCS_TanimotoCombo>
1.012 

> <ROCS_ShapeTanimoto>
0.464 

> <ROCS_ColorTanimoto>
0.548 

> <ROCS_RefTversky>
0.407 

> <ROCS_RefColorTversky>
0.669 

> <ROCS_RefTverskyCombo>
1.076 

> <ROCS_FitTversky>
1.430 

> <ROCS_FitColorTversky>
0.752 

> <ROCS_FitTverskyCombo>
2.182 

> <ROCS_ColorScore>
-6.431

> <ROCS_Overlap>
1002.431

> <ROCS_Rank>
451                 

$$$$
untitled-dbase-12866_2
  -OEChem-06232314403D

 32 34  0     1  0  0  0  0  0999 V2000
  -13.1154   14.4884  -37.3998 C   0  0  0  0  0  0  0  0  0  0  0  0
  -13.5797   15.0638  -39.8761 C   0  0  0  0  0  0  0  0  0  0  0  0
   -8.8262   14.8911  -37.0717 C   0  0  0  0  0  0  0  0  0  0  0  0
  -10.8237   13.4938  -37.7412 C   0  0  0  0  0  0  0  0  0  0  0  0
  -11.1644   15.5284  -36.2250 C   0  0  0  0  0  0  0  0  0  0  0  0
  -13.8282   15.2836  -38.4104 C   0  0  2  0  0  0  0  0  0  0  0  0
   -9.4365   13.4874  -37.0703 C   0  0  1  0  0  0  0  0  0  0  0  0
   -9.6609   15.8686  -36.2263 C   0  0  2  0  0  0  0  0  0  0  0  0
  -12.7659   16.0725  -39.1204 C   0  0  1  0  0  0  0  0  0  0  0  0
  -11.6199   14.7817  -37.4803 C   0  0  0  0  0  0  0  0  0  0  0  0
   -8.5115   12.4819  -37.7538 C   0  0  0  0  0  0  0  0  0  0  0  0
   -9.3991   17.3111  -36.6629 C   0  0  0  0  0  0  0  0  0  0  0  0
  -13.6778   13.7354  -36.6222 O   0  0  0  0  0  0  0  0  0  0  0  0
  -11.4709   15.6556  -38.6253 O   0  0  0  0  0  0  0  0  0  0  0  0
  -13.1020   14.1429  -40.1879 H   0  0  0  0  0  0  0  0  0  0  0  0
  -14.3222   15.4354  -40.5722 H   0  0  0  0  0  0  0  0  0  0  0  0
   -7.8050   14.8491  -36.6758 H   0  0  0  0  0  0  0  0  0  0  0  0
   -8.7532   15.2650  -38.1005 H   0  0  0  0  0  0  0  0  0  0  0  0
  -10.7057   13.3642  -38.8245 H   0  0  0  0  0  0  0  0  0  0  0  0
  -11.3998   12.6244  -37.4022 H   0  0  0  0  0  0  0  0  0  0  0  0
  -11.4048   14.9403  -35.3283 H   0  0  0  0  0  0  0  0  0  0  0  0
  -11.7476   16.4555  -36.1283 H   0  0  0  0  0  0  0  0  0  0  0  0
  -14.7274   15.8030  -38.1073 H   0  0  0  0  0  0  0  0  0  0  0  0
   -9.5579   13.1643  -36.0252 H   0  0  0  0  0  0  0  0  0  0  0  0
   -9.2910   15.7908  -35.1718 H   0  0  0  0  0  0  0  0  0  0  0  0
  -12.9378   17.1246  -39.3041 H   0  0  0  0  0  0  0  0  0  0  0  0
   -8.3644   12.7657  -38.7941 H   0  0  0  0  0  0  0  0  0  0  0  0
   -8.9542   11.4885  -37.7132 H   0  0  0  0  0  0  0  0  0  0  0  0
   -7.5482   12.4654  -37.2477 H   0  0  0  0  0  0  0  0  0  0  0  0
   -9.7389   17.4529  -37.6871 H   0  0  0  0  0  0  0  0  0  0  0  0
   -8.3334   17.5247  -36.6069 H   0  0  0  0  0  0  0  0  0  0  0  0
   -9.9362   17.9963  -36.0097 H   0  0  0  0  0  0  0  0  0  0  0  0
  1  6  1  0  0  0  0
  1 10  1  0  0  0  0
  1 13  2  0  0  0  0
  2  6  1  0  0  0  0
  2  9  1  0  0  0  0
  3  7  1  0  0  0  0
  3  8  1  0  0  0  0
  4  7  1  0  0  0  0
  4 10  1  0  0  0  0
  5  8  1  0  0  0  0
  5 10  1  0  0  0  0
  6  9  1  0  0  0  0
  7 11  1  0  0  0  0
  8 12  1  0  0  0  0
  9 14  1  0  0  0  0
 10 14  1  0  0  0  0
  2 15  1  0  0  0  0
  2 16  1  0  0  0  0
  3 17  1  0  0  0  0
  3 18  1  0  0  0  0
  4 19  1  0  0  0  0
  4 20  1  0  0  0  0
  5 21  1  0  0  0  0
  5 22  1  0  0  0  0
  6 23  1  0  0  0  0
  7 24  1  0  0  0  0
  8 25  1  0  0  0  0
  9 26  1  0  0  0  0
 11 27  1  0  0  0  0
 11 28  1  0  0  0  0
 11 29  1  0  0  0  0
 12 30  1  0  0  0  0
 12 31  1  0  0  0  0
 12 32  1  0  0  0  0
M  END
> <id>
EN300-737324

> <smiles>
CC1CC(C)CC2(C1)OC3CC3C2=O

> <IUPAC Name>
3',5'-dimethyl-2-oxaspiro[bicyclo[3.1.0]hexane-3,1'-cyclohexane]-4-one

> <CAS>
2137664-28-7

> <URL>
https://www.enaminestore.com/catalog/EN300-737324

> <ROCS_ShapeQuery>
_x1247relevant_x1083L0AP1_x1305L0BP1_

> <ROCS_TanimotoCombo>
1.012 

> <ROCS_ShapeTanimoto>
0.513 

> <ROCS_ColorTanimoto>
0.499 

> <ROCS_RefTversky>
0.437 

> <ROCS_RefColorTversky>
0.576 

> <ROCS_RefTverskyCombo>
1.013 

> <ROCS_FitTversky>
1.511 

> <ROCS_FitColorTversky>
0.790 

> <ROCS_FitTverskyCombo>
2.300 

> <ROCS_ColorScore>
-5.480

> <ROCS_Overlap>
1076.970

> <ROCS_Rank>
452                 

$$$$
untitled-dbase-21511_0
  -OEChem-06232314403D

 27 28  0     1  0  0  0  0  0999 V2000
  -15.4324   13.9915  -40.7573 C   0  0  0  0  0  0  0  0  0  0  0  0
  -14.6831   14.1014  -39.8259 C   0  0  0  0  0  0  0  0  0  0  0  0
  -14.2321   15.3754  -37.7481 C   0  0  0  0  0  0  0  0  0  0  0  0
  -13.0914   16.1064  -37.0178 C   0  0  0  0  0  0  0  0  0  0  0  0
  -12.0621   16.0435  -39.3554 C   0  0  0  0  0  0  0  0  0  0  0  0
  -13.7627   14.2357  -38.6819 C   0  0  2  0  0  0  0  0  0  0  0  0
  -11.7855   16.0239  -37.8196 C   0  0  2  0  0  0  0  0  0  0  0  0
  -12.3302   14.5116  -39.1807 C   0  0  2  0  0  0  0  0  0  0  0  0
  -11.2319   14.5586  -38.0369 C   0  0  0  0  0  0  0  0  0  0  0  0
   -9.7753   14.4826  -38.5363 C   0  0  0  0  0  0  0  0  0  0  0  0
  -11.3730   13.5729  -36.8716 C   0  0  0  0  0  0  0  0  0  0  0  0
  -16.0972   13.8943  -41.5836 H   0  0  0  0  0  0  0  0  0  0  0  0
  -14.9654   14.9992  -37.0241 H   0  0  0  0  0  0  0  0  0  0  0  0
  -14.7776   16.1284  -38.3354 H   0  0  0  0  0  0  0  0  0  0  0  0
  -13.3752   17.1566  -36.8783 H   0  0  0  0  0  0  0  0  0  0  0  0
  -12.9492   15.6949  -36.0128 H   0  0  0  0  0  0  0  0  0  0  0  0
  -12.8962   16.6619  -39.7018 H   0  0  0  0  0  0  0  0  0  0  0  0
  -11.2034   16.3013  -39.9841 H   0  0  0  0  0  0  0  0  0  0  0  0
  -13.7807   13.2854  -38.1366 H   0  0  0  0  0  0  0  0  0  0  0  0
  -11.0417   16.7472  -37.4691 H   0  0  0  0  0  0  0  0  0  0  0  0
  -12.0457   13.8874  -40.0362 H   0  0  0  0  0  0  0  0  0  0  0  0
   -9.4939   13.4423  -38.6524 H   0  0  0  0  0  0  0  0  0  0  0  0
   -9.1264   14.9605  -37.8114 H   0  0  0  0  0  0  0  0  0  0  0  0
   -9.7003   14.9927  -39.4899 H   0  0  0  0  0  0  0  0  0  0  0  0
  -10.9541   12.6111  -37.1560 H   0  0  0  0  0  0  0  0  0  0  0  0
  -12.4244   13.4499  -36.6248 H   0  0  0  0  0  0  0  0  0  0  0  0
  -10.8411   13.9563  -36.0046 H   0  0  0  0  0  0  0  0  0  0  0  0
  1  2  3  0  0  0  0
  2  6  1  0  0  0  0
  3  4  1  0  0  0  0
  3  6  1  0  0  0  0
  4  7  1  0  0  0  0
  5  7  1  0  0  0  0
  5  8  1  0  0  0  0
  6  8  1  0  0  0  0
  7  9  1  0  0  0  0
  8  9  1  0  0  0  0
  9 10  1  0  0  0  0
  9 11  1  0  0  0  0
  1 12  1  0  0  0  0
  3 13  1  0  0  0  0
  3 14  1  0  0  0  0
  4 15  1  0  0  0  0
  4 16  1  0  0  0  0
  5 17  1  0  0  0  0
  5 18  1  0  0  0  0
  6 19  1  0  0  0  0
  7 20  1  0  0  0  0
  8 21  1  0  0  0  0
 10 22  1  0  0  0  0
 10 23  1  0  0  0  0
 10 24  1  0  0  0  0
 11 25  1  0  0  0  0
 11 26  1  0  0  0  0
 11 27  1  0  0  0  0
M  END
> <id>
EN300-1811701

> <smiles>
CC1(C)C2CC1C(CC2)C#C

> <IUPAC Name>
2-ethynyl-6,6-dimethylbicyclo[3.1.1]heptane

> <CAS>
38996-70-2

> <URL>
https://www.enaminestore.com/catalog/EN300-1811701

> <ROCS_ShapeQuery>
_x1247relevant_x1083L0AP1_x1305L0BP1_

> <ROCS_TanimotoCombo>
1.012 

> <ROCS_ShapeTanimoto>
0.420 

> <ROCS_ColorTanimoto>
0.591 

> <ROCS_RefTversky>
0.365 

> <ROCS_RefColorTversky>
0.688 

> <ROCS_RefTverskyCombo>
1.052 

> <ROCS_FitTversky>
1.572 

> <ROCS_FitColorTversky>
0.808 

> <ROCS_FitTverskyCombo>
2.380 

> <ROCS_ColorScore>
-6.592

> <ROCS_Overlap>
895.699

> <ROCS_Rank>
453                 

$$$$
untitled-dbase-513_0
  -OEChem-06232314403D

 25 28  0     1  0  0  0  0  0999 V2000
  -13.5681   16.0270  -40.0022 C   0  0  0  0  0  0  0  0  0  0  0  0
  -10.9005   16.1010  -39.2010 C   0  0  0  0  0  0  0  0  0  0  0  0
  -13.1268   15.1055  -36.5404 C   0  0  0  0  0  0  0  0  0  0  0  0
  -13.3657   16.4332  -38.5552 C   0  0  2  0  0  0  0  0  0  0  0  0
  -11.8861   16.4742  -38.1109 C   0  0  1  0  0  0  0  0  0  0  0  0
  -13.5820   14.5231  -40.1504 C   0  0  1  0  0  0  0  0  0  0  0  0
  -10.7311   14.6022  -39.2943 C   0  0  2  0  0  0  0  0  0  0  0  0
  -13.8911   15.1654  -37.8422 C   0  0  1  0  0  0  0  0  0  0  0  0
  -11.7765   15.2240  -37.2072 C   0  0  2  0  0  0  0  0  0  0  0  0
  -13.2650   14.0561  -38.7283 C   0  0  2  0  0  0  0  0  0  0  0  0
  -11.7542   14.0980  -38.2747 C   0  0  1  0  0  0  0  0  0  0  0  0
  -13.6742   16.8213  -40.9274 O   0  0  0  0  0  0  0  0  0  0  0  0
  -10.3431   16.9136  -39.9269 O   0  0  0  0  0  0  0  0  0  0  0  0
  -15.3835   14.0322  -40.6764 Br  0  0  0  0  0  0  0  0  0  0  0  0
   -8.9153   14.2113  -38.7347 Br  0  0  0  0  0  0  0  0  0  0  0  0
  -13.3494   15.9463  -35.8768 H   0  0  0  0  0  0  0  0  0  0  0  0
  -13.2603   14.1591  -36.0085 H   0  0  0  0  0  0  0  0  0  0  0  0
  -13.9304   17.3281  -38.2839 H   0  0  0  0  0  0  0  0  0  0  0  0
  -11.6105   17.3924  -37.5872 H   0  0  0  0  0  0  0  0  0  0  0  0
  -12.8993   14.1637  -40.9188 H   0  0  0  0  0  0  0  0  0  0  0  0
  -10.8590   14.2205  -40.3061 H   0  0  0  0  0  0  0  0  0  0  0  0
  -14.9792   15.1150  -37.7520 H   0  0  0  0  0  0  0  0  0  0  0  0
  -10.9168   15.2274  -36.5323 H   0  0  0  0  0  0  0  0  0  0  0  0
  -13.6839   13.0707  -38.4947 H   0  0  0  0  0  0  0  0  0  0  0  0
  -11.4836   13.1317  -37.8341 H   0  0  0  0  0  0  0  0  0  0  0  0
  1  4  1  0  0  0  0
  1  6  1  0  0  0  0
  1 12  2  0  0  0  0
  2  5  1  0  0  0  0
  2  7  1  0  0  0  0
  2 13  2  0  0  0  0
  3  8  1  0  0  0  0
  3  9  1  0  0  0  0
  4  5  1  0  0  0  0
  4  8  1  0  0  0  0
  5  9  1  0  0  0  0
  6 10  1  0  0  0  0
  6 14  1  0  0  0  0
  7 11  1  0  0  0  0
  7 15  1  0  0  0  0
  8 10  1  0  0  0  0
  9 11  1  0  0  0  0
 10 11  1  0  0  0  0
  3 16  1  0  0  0  0
  3 17  1  0  0  0  0
  4 18  1  0  0  0  0
  5 19  1  0  0  0  0
  6 20  1  0  0  0  0
  7 21  1  0  0  0  0
  8 22  1  0  0  0  0
  9 23  1  0  0  0  0
 10 24  1  0  0  0  0
 11 25  1  0  0  0  0
M  END
> <id>
EN300-51321

> <smiles>
BrC1C2C3CC4C2C(Br)C(=O)C4C3C1=O

> <IUPAC Name>
4,10-dibromotetracyclo[6.3.0.0^{2,6}.0^{5,9}]undecane-3,11-dione

> <CAS>
142436-72-4

> <Purity>
95

> <URL>
https://www.enaminestore.com/catalog/EN300-51321

> <ROCS_ShapeQuery>
_x1247relevant_x1083L0AP1_x1305L0BP1_

> <ROCS_TanimotoCombo>
1.012 

> <ROCS_ShapeTanimoto>
0.512 

> <ROCS_ColorTanimoto>
0.500 

> <ROCS_RefTversky>
0.445 

> <ROCS_RefColorTversky>
1.101 

> <ROCS_RefTverskyCombo>
1.547 

> <ROCS_FitTversky>
1.410 

> <ROCS_FitColorTversky>
0.478 

> <ROCS_FitTverskyCombo>
1.888 

> <ROCS_ColorScore>
-11.476

> <ROCS_Overlap>
1098.952

> <ROCS_Rank>
454                 

$$$$
untitled-dbase-51009_0
  -OEChem-06232314403D

 24 25  0     0  0  0  0  0  0999 V2000
  -10.8385   15.6713  -38.9949 C   0  0  0  0  0  0  0  0  0  0  0  0
  -10.9052   15.5063  -37.4805 C   0  0  0  0  0  0  0  0  0  0  0  0
  -12.0627   16.3566  -39.6058 C   0  0  0  0  0  0  0  0  0  0  0  0
  -11.8097   14.3669  -37.0079 C   0  0  0  0  0  0  0  0  0  0  0  0
  -13.8728   15.8303  -37.7466 C   0  0  0  0  0  0  0  0  0  0  0  0
  -13.4607   14.1766  -39.0412 C   0  0  0  0  0  0  0  0  0  0  0  0
  -13.3832   15.7128  -39.2173 C   0  0  0  0  0  0  0  0  0  0  0  0
  -13.2528   14.4208  -37.5107 C   0  0  0  0  0  0  0  0  0  0  0  0
  -14.4886   16.1325  -40.0809 N   0  0  0  0  0  0  0  0  0  0  0  0
  -13.9989   13.6056  -36.7240 F   0  0  0  0  0  0  0  0  0  0  0  0
   -9.9589   16.2794  -39.2414 H   0  0  0  0  0  0  0  0  0  0  0  0
  -10.6718   14.6959  -39.4669 H   0  0  0  0  0  0  0  0  0  0  0  0
   -9.8926   15.2974  -37.1124 H   0  0  0  0  0  0  0  0  0  0  0  0
  -11.2032   16.4530  -37.0153 H   0  0  0  0  0  0  0  0  0  0  0  0
  -12.0680   17.4157  -39.3179 H   0  0  0  0  0  0  0  0  0  0  0  0
  -11.9385   16.3335  -40.6965 H   0  0  0  0  0  0  0  0  0  0  0  0
  -11.3659   13.4040  -37.2891 H   0  0  0  0  0  0  0  0  0  0  0  0
  -11.8196   14.3874  -35.9109 H   0  0  0  0  0  0  0  0  0  0  0  0
  -13.4628   16.6557  -37.1582 H   0  0  0  0  0  0  0  0  0  0  0  0
  -14.9615   15.8337  -37.6007 H   0  0  0  0  0  0  0  0  0  0  0  0
  -14.4330   13.7146  -39.2599 H   0  0  0  0  0  0  0  0  0  0  0  0
  -12.6949   13.5818  -39.5470 H   0  0  0  0  0  0  0  0  0  0  0  0
  -14.5788   17.1160  -40.0042 H   0  0  0  0  0  0  0  0  0  0  0  0
  -14.2667   15.8676  -41.0094 H   0  0  0  0  0  0  0  0  0  0  0  0
  1  2  1  0  0  0  0
  1  3  1  0  0  0  0
  2  4  1  0  0  0  0
  3  7  1  0  0  0  0
  4  8  1  0  0  0  0
  5  7  1  0  0  0  0
  5  8  1  0  0  0  0
  6  7  1  0  0  0  0
  6  8  1  0  0  0  0
  7  9  1  1  0  0  0
  8 10  1  1  0  0  0
  1 11  1  0  0  0  0
  1 12  1  0  0  0  0
  2 13  1  0  0  0  0
  2 14  1  0  0  0  0
  3 15  1  0  0  0  0
  3 16  1  0  0  0  0
  4 17  1  0  0  0  0
  4 18  1  0  0  0  0
  5 19  1  0  0  0  0
  5 20  1  0  0  0  0
  6 21  1  0  0  0  0
  6 22  1  0  0  0  0
  9 23  1  0  0  0  0
  9 24  1  0  0  0  0
M  END
> <id>
EN300-37375472

> <smiles>
Cl.N[C@]1(C[C@@]2(F)C1)CCCC2

> <IUPAC Name>
6-fluorobicyclo[4.1.1]octan-1-amine hydrochloride

> <CAS>
2680529-06-8

> <URL>
https://www.enaminestore.com/catalog/EN300-37375472

> <ROCS_ShapeQuery>
_x1247relevant_x1083L0AP1_x1305L0BP1_

> <ROCS_TanimotoCombo>
1.012 

> <ROCS_ShapeTanimoto>
0.434 

> <ROCS_ColorTanimoto>
0.577 

> <ROCS_RefTversky>
0.369 

> <ROCS_RefColorTversky>
0.662 

> <ROCS_RefTverskyCombo>
1.031 

> <ROCS_FitTversky>
1.691 

> <ROCS_FitColorTversky>
0.818 

> <ROCS_FitTverskyCombo>
2.509 

> <ROCS_ColorScore>
-6.336

> <ROCS_Overlap>
905.699

> <ROCS_Rank>
455                 

$$$$
untitled-dbase-46450_0
  -OEChem-06232314403D

 24 25  0     0  0  0  0  0  0999 V2000
  -10.8385   15.6713  -38.9949 C   0  0  0  0  0  0  0  0  0  0  0  0
  -10.9052   15.5063  -37.4805 C   0  0  0  0  0  0  0  0  0  0  0  0
  -12.0627   16.3566  -39.6058 C   0  0  0  0  0  0  0  0  0  0  0  0
  -11.8097   14.3669  -37.0079 C   0  0  0  0  0  0  0  0  0  0  0  0
  -13.8728   15.8303  -37.7466 C   0  0  0  0  0  0  0  0  0  0  0  0
  -13.4607   14.1766  -39.0412 C   0  0  0  0  0  0  0  0  0  0  0  0
  -13.3832   15.7128  -39.2173 C   0  0  0  0  0  0  0  0  0  0  0  0
  -13.2528   14.4208  -37.5107 C   0  0  0  0  0  0  0  0  0  0  0  0
  -14.4886   16.1325  -40.0809 N   0  0  0  0  0  0  0  0  0  0  0  0
  -13.9989   13.6056  -36.7240 F   0  0  0  0  0  0  0  0  0  0  0  0
   -9.9589   16.2794  -39.2414 H   0  0  0  0  0  0  0  0  0  0  0  0
  -10.6718   14.6959  -39.4669 H   0  0  0  0  0  0  0  0  0  0  0  0
   -9.8926   15.2974  -37.1124 H   0  0  0  0  0  0  0  0  0  0  0  0
  -11.2032   16.4530  -37.0153 H   0  0  0  0  0  0  0  0  0  0  0  0
  -12.0680   17.4157  -39.3179 H   0  0  0  0  0  0  0  0  0  0  0  0
  -11.9385   16.3335  -40.6965 H   0  0  0  0  0  0  0  0  0  0  0  0
  -11.3659   13.4040  -37.2891 H   0  0  0  0  0  0  0  0  0  0  0  0
  -11.8196   14.3874  -35.9109 H   0  0  0  0  0  0  0  0  0  0  0  0
  -13.4628   16.6557  -37.1582 H   0  0  0  0  0  0  0  0  0  0  0  0
  -14.9615   15.8337  -37.6007 H   0  0  0  0  0  0  0  0  0  0  0  0
  -14.4330   13.7146  -39.2599 H   0  0  0  0  0  0  0  0  0  0  0  0
  -12.6949   13.5818  -39.5470 H   0  0  0  0  0  0  0  0  0  0  0  0
  -14.5788   17.1160  -40.0042 H   0  0  0  0  0  0  0  0  0  0  0  0
  -14.2667   15.8676  -41.0094 H   0  0  0  0  0  0  0  0  0  0  0  0
  1  2  1  0  0  0  0
  1  3  1  0  0  0  0
  2  4  1  0  0  0  0
  3  7  1  0  0  0  0
  4  8  1  0  0  0  0
  5  7  1  0  0  0  0
  5  8  1  0  0  0  0
  6  7  1  0  0  0  0
  6  8  1  0  0  0  0
  7  9  1  1  0  0  0
  8 10  1  1  0  0  0
  1 11  1  0  0  0  0
  1 12  1  0  0  0  0
  2 13  1  0  0  0  0
  2 14  1  0  0  0  0
  3 15  1  0  0  0  0
  3 16  1  0  0  0  0
  4 17  1  0  0  0  0
  4 18  1  0  0  0  0
  5 19  1  0  0  0  0
  5 20  1  0  0  0  0
  6 21  1  0  0  0  0
  6 22  1  0  0  0  0
  9 23  1  0  0  0  0
  9 24  1  0  0  0  0
M  END
> <id>
EN300-28268293

> <smiles>
N[C@]1(C[C@@]2(F)C1)CCCC2

> <IUPAC Name>
6-fluorobicyclo[4.1.1]octan-1-amine

> <URL>
https://www.enaminestore.com/catalog/EN300-28268293

> <ROCS_ShapeQuery>
_x1247relevant_x1083L0AP1_x1305L0BP1_

> <ROCS_TanimotoCombo>
1.012 

> <ROCS_ShapeTanimoto>
0.434 

> <ROCS_ColorTanimoto>
0.577 

> <ROCS_RefTversky>
0.369 

> <ROCS_RefColorTversky>
0.662 

> <ROCS_RefTverskyCombo>
1.031 

> <ROCS_FitTversky>
1.691 

> <ROCS_FitColorTversky>
0.818 

> <ROCS_FitTverskyCombo>
2.509 

> <ROCS_ColorScore>
-6.336

> <ROCS_Overlap>
905.699

> <ROCS_Rank>
456                 

$$$$
untitled-dbase-46471_0
  -OEChem-06232314403D

 24 25  0     0  0  0  0  0  0999 V2000
  -10.8384   15.6720  -38.9944 C   0  0  0  0  0  0  0  0  0  0  0  0
  -10.9057   15.5070  -37.4800 C   0  0  0  0  0  0  0  0  0  0  0  0
  -12.0627   16.3563  -39.6062 C   0  0  0  0  0  0  0  0  0  0  0  0
  -11.8096   14.3668  -37.0082 C   0  0  0  0  0  0  0  0  0  0  0  0
  -13.8730   15.8300  -37.7465 C   0  0  0  0  0  0  0  0  0  0  0  0
  -13.4604   14.1765  -39.0414 C   0  0  0  0  0  0  0  0  0  0  0  0
  -13.3832   15.7127  -39.2172 C   0  0  0  0  0  0  0  0  0  0  0  0
  -13.2527   14.4205  -37.5109 C   0  0  0  0  0  0  0  0  0  0  0  0
  -14.4886   16.1325  -40.0809 N   0  0  0  0  0  0  0  0  0  0  0  0
  -13.9985   13.6049  -36.7244 F   0  0  0  0  0  0  0  0  0  0  0  0
   -9.9590   16.2806  -39.2405 H   0  0  0  0  0  0  0  0  0  0  0  0
  -10.6711   14.6965  -39.4661 H   0  0  0  0  0  0  0  0  0  0  0  0
   -9.8931   15.2987  -37.1113 H   0  0  0  0  0  0  0  0  0  0  0  0
  -11.2045   16.4534  -37.0148 H   0  0  0  0  0  0  0  0  0  0  0  0
  -12.0681   17.4157  -39.3193 H   0  0  0  0  0  0  0  0  0  0  0  0
  -11.9383   16.3323  -40.6968 H   0  0  0  0  0  0  0  0  0  0  0  0
  -11.3655   13.4043  -37.2901 H   0  0  0  0  0  0  0  0  0  0  0  0
  -11.8196   14.3866  -35.9111 H   0  0  0  0  0  0  0  0  0  0  0  0
  -13.4633   16.6553  -37.1579 H   0  0  0  0  0  0  0  0  0  0  0  0
  -14.9617   15.8332  -37.6007 H   0  0  0  0  0  0  0  0  0  0  0  0
  -14.4327   13.7145  -39.2602 H   0  0  0  0  0  0  0  0  0  0  0  0
  -12.6945   13.5821  -39.5473 H   0  0  0  0  0  0  0  0  0  0  0  0
  -14.5786   17.1161  -40.0044 H   0  0  0  0  0  0  0  0  0  0  0  0
  -14.2668   15.8674  -41.0093 H   0  0  0  0  0  0  0  0  0  0  0  0
  1  2  1  0  0  0  0
  1  3  1  0  0  0  0
  2  4  1  0  0  0  0
  3  7  1  0  0  0  0
  4  8  1  0  0  0  0
  5  7  1  0  0  0  0
  5  8  1  0  0  0  0
  6  7  1  0  0  0  0
  6  8  1  0  0  0  0
  7  9  1  0  0  0  0
  8 10  1  0  0  0  0
  1 11  1  0  0  0  0
  1 12  1  0  0  0  0
  2 13  1  0  0  0  0
  2 14  1  0  0  0  0
  3 15  1  0  0  0  0
  3 16  1  0  0  0  0
  4 17  1  0  0  0  0
  4 18  1  0  0  0  0
  5 19  1  0  0  0  0
  5 20  1  0  0  0  0
  6 21  1  0  0  0  0
  6 22  1  0  0  0  0
  9 23  1  0  0  0  0
  9 24  1  0  0  0  0
M  END
> <id>
EN300-28254002

> <smiles>
NC1(CC2(F)C1)CCCC2

> <MDLNUMBER>
MFCD34183291

> <IUPAC Name>
6-fluorobicyclo[4.1.1]octan-1-amine

> <CAS>
2680529-05-7

> <URL>
https://www.enaminestore.com/catalog/EN300-28254002

> <ROCS_ShapeQuery>
_x1247relevant_x1083L0AP1_x1305L0BP1_

> <ROCS_TanimotoCombo>
1.012 

> <ROCS_ShapeTanimoto>
0.434 

> <ROCS_ColorTanimoto>
0.577 

> <ROCS_RefTversky>
0.369 

> <ROCS_RefColorTversky>
0.662 

> <ROCS_RefTverskyCombo>
1.031 

> <ROCS_FitTversky>
1.691 

> <ROCS_FitColorTversky>
0.818 

> <ROCS_FitTverskyCombo>
2.509 

> <ROCS_ColorScore>
-6.336

> <ROCS_Overlap>
905.699

> <ROCS_Rank>
457                 

$$$$
untitled-dbase-45970_0
  -OEChem-06232314403D

 24 25  0     0  0  0  0  0  0999 V2000
  -10.8384   15.6720  -38.9944 C   0  0  0  0  0  0  0  0  0  0  0  0
  -10.9057   15.5070  -37.4800 C   0  0  0  0  0  0  0  0  0  0  0  0
  -12.0627   16.3563  -39.6062 C   0  0  0  0  0  0  0  0  0  0  0  0
  -11.8096   14.3668  -37.0082 C   0  0  0  0  0  0  0  0  0  0  0  0
  -13.8730   15.8300  -37.7465 C   0  0  0  0  0  0  0  0  0  0  0  0
  -13.4604   14.1765  -39.0414 C   0  0  0  0  0  0  0  0  0  0  0  0
  -13.3832   15.7127  -39.2172 C   0  0  0  0  0  0  0  0  0  0  0  0
  -13.2527   14.4205  -37.5109 C   0  0  0  0  0  0  0  0  0  0  0  0
  -14.4886   16.1325  -40.0809 N   0  0  0  0  0  0  0  0  0  0  0  0
  -13.9985   13.6049  -36.7244 F   0  0  0  0  0  0  0  0  0  0  0  0
   -9.9590   16.2806  -39.2405 H   0  0  0  0  0  0  0  0  0  0  0  0
  -10.6711   14.6965  -39.4661 H   0  0  0  0  0  0  0  0  0  0  0  0
   -9.8931   15.2987  -37.1113 H   0  0  0  0  0  0  0  0  0  0  0  0
  -11.2045   16.4534  -37.0148 H   0  0  0  0  0  0  0  0  0  0  0  0
  -12.0681   17.4157  -39.3193 H   0  0  0  0  0  0  0  0  0  0  0  0
  -11.9383   16.3323  -40.6968 H   0  0  0  0  0  0  0  0  0  0  0  0
  -11.3655   13.4043  -37.2901 H   0  0  0  0  0  0  0  0  0  0  0  0
  -11.8196   14.3866  -35.9111 H   0  0  0  0  0  0  0  0  0  0  0  0
  -13.4633   16.6553  -37.1579 H   0  0  0  0  0  0  0  0  0  0  0  0
  -14.9617   15.8332  -37.6007 H   0  0  0  0  0  0  0  0  0  0  0  0
  -14.4327   13.7145  -39.2602 H   0  0  0  0  0  0  0  0  0  0  0  0
  -12.6945   13.5821  -39.5473 H   0  0  0  0  0  0  0  0  0  0  0  0
  -14.5786   17.1161  -40.0044 H   0  0  0  0  0  0  0  0  0  0  0  0
  -14.2668   15.8674  -41.0093 H   0  0  0  0  0  0  0  0  0  0  0  0
  1  2  1  0  0  0  0
  1  3  1  0  0  0  0
  2  4  1  0  0  0  0
  3  7  1  0  0  0  0
  4  8  1  0  0  0  0
  5  7  1  0  0  0  0
  5  8  1  0  0  0  0
  6  7  1  0  0  0  0
  6  8  1  0  0  0  0
  7  9  1  0  0  0  0
  8 10  1  0  0  0  0
  1 11  1  0  0  0  0
  1 12  1  0  0  0  0
  2 13  1  0  0  0  0
  2 14  1  0  0  0  0
  3 15  1  0  0  0  0
  3 16  1  0  0  0  0
  4 17  1  0  0  0  0
  4 18  1  0  0  0  0
  5 19  1  0  0  0  0
  5 20  1  0  0  0  0
  6 21  1  0  0  0  0
  6 22  1  0  0  0  0
  9 23  1  0  0  0  0
  9 24  1  0  0  0  0
M  END
> <id>
EN300-28254001

> <smiles>
Cl.NC1(CC2(F)C1)CCCC2

> <MDLNUMBER>
MFCD34183830

> <IUPAC Name>
6-fluorobicyclo[4.1.1]octan-1-amine hydrochloride

> <CAS>
2680529-06-8

> <Purity>
95

> <URL>
https://www.enaminestore.com/catalog/EN300-28254001

> <ROCS_ShapeQuery>
_x1247relevant_x1083L0AP1_x1305L0BP1_

> <ROCS_TanimotoCombo>
1.012 

> <ROCS_ShapeTanimoto>
0.434 

> <ROCS_ColorTanimoto>
0.577 

> <ROCS_RefTversky>
0.369 

> <ROCS_RefColorTversky>
0.662 

> <ROCS_RefTverskyCombo>
1.031 

> <ROCS_FitTversky>
1.691 

> <ROCS_FitColorTversky>
0.818 

> <ROCS_FitTverskyCombo>
2.509 

> <ROCS_ColorScore>
-6.336

> <ROCS_Overlap>
905.699

> <ROCS_Rank>
458                 

$$$$
untitled-dbase-37344_0
  -OEChem-06232314403D

 32 35  0     1  0  0  0  0  0999 V2000
  -10.8982   14.9329  -36.0428 C   0  0  0  0  0  0  0  0  0  0  0  0
   -9.1152   14.1830  -37.2284 C   0  0  0  0  0  0  0  0  0  0  0  0
  -14.5147   13.9707  -40.9924 C   0  0  0  0  0  0  0  0  0  0  0  0
  -14.4289   15.4220  -40.5440 C   0  0  0  0  0  0  0  0  0  0  0  0
  -13.9335   13.2017  -39.8158 C   0  0  0  0  0  0  0  0  0  0  0  0
  -13.6810   15.2517  -37.4981 C   0  0  0  0  0  0  0  0  0  0  0  0
  -11.6841   16.4627  -37.9519 C   0  0  0  0  0  0  0  0  0  0  0  0
  -13.0903   15.5121  -39.8080 C   0  0  2  0  0  0  0  0  0  0  0  0
  -12.7565   14.0664  -39.3584 C   0  0  1  0  0  0  0  0  0  0  0  0
  -13.1298   16.2927  -38.4747 C   0  0  1  0  0  0  0  0  0  0  0  0
  -12.5910   14.2150  -37.8285 C   0  0  1  0  0  0  0  0  0  0  0  0
  -11.3109   15.0324  -37.5193 C   0  0  2  0  0  0  0  0  0  0  0  0
   -9.6245   14.4237  -35.9756 N   0  0  0  0  0  0  0  0  0  0  0  0
  -10.1021   14.5441  -38.1426 N   0  0  0  0  0  0  0  0  0  0  0  0
  -11.5913   15.2528  -35.0867 O   0  0  0  0  0  0  0  0  0  0  0  0
   -8.0058   13.7426  -37.4961 O   0  0  0  0  0  0  0  0  0  0  0  0
  -15.5401   13.6667  -41.2216 H   0  0  0  0  0  0  0  0  0  0  0  0
  -13.9022   13.8137  -41.8881 H   0  0  0  0  0  0  0  0  0  0  0  0
  -14.4696   16.1109  -41.3937 H   0  0  0  0  0  0  0  0  0  0  0  0
  -15.2711   15.6665  -39.8866 H   0  0  0  0  0  0  0  0  0  0  0  0
  -14.6862   13.0803  -39.0293 H   0  0  0  0  0  0  0  0  0  0  0  0
  -13.6072   12.1988  -40.1089 H   0  0  0  0  0  0  0  0  0  0  0  0
  -13.6697   15.5944  -36.4594 H   0  0  0  0  0  0  0  0  0  0  0  0
  -14.6957   14.9206  -37.7346 H   0  0  0  0  0  0  0  0  0  0  0  0
  -11.0261   16.8606  -38.7322 H   0  0  0  0  0  0  0  0  0  0  0  0
  -11.6625   17.1595  -37.1059 H   0  0  0  0  0  0  0  0  0  0  0  0
  -12.3181   15.9019  -40.4817 H   0  0  0  0  0  0  0  0  0  0  0  0
  -11.8470   13.7040  -39.8482 H   0  0  0  0  0  0  0  0  0  0  0  0
  -13.6853   17.2315  -38.5246 H   0  0  0  0  0  0  0  0  0  0  0  0
  -12.6794   13.2789  -37.2716 H   0  0  0  0  0  0  0  0  0  0  0  0
   -9.1206   14.2570  -35.1123 H   0  0  0  0  0  0  0  0  0  0  0  0
   -9.9641   14.4858  -39.1465 H   0  0  0  0  0  0  0  0  0  0  0  0
  1 12  1  0  0  0  0
  1 13  1  0  0  0  0
  1 15  2  0  0  0  0
  2 13  1  0  0  0  0
  2 14  1  0  0  0  0
  2 16  2  0  0  0  0
  3  4  1  0  0  0  0
  3  5  1  0  0  0  0
  4  8  1  0  0  0  0
  5  9  1  0  0  0  0
  6 10  1  0  0  0  0
  6 11  1  0  0  0  0
  7 10  1  0  0  0  0
  7 12  1  0  0  0  0
  8  9  1  0  0  0  0
  8 10  1  0  0  0  0
  9 11  1  0  0  0  0
 11 12  1  0  0  0  0
 12 14  1  0  0  0  0
  3 17  1  0  0  0  0
  3 18  1  0  0  0  0
  4 19  1  0  0  0  0
  4 20  1  0  0  0  0
  5 21  1  0  0  0  0
  5 22  1  0  0  0  0
  6 23  1  0  0  0  0
  6 24  1  0  0  0  0
  7 25  1  0  0  0  0
  7 26  1  0  0  0  0
  8 27  1  0  0  0  0
  9 28  1  0  0  0  0
 10 29  1  0  0  0  0
 11 30  1  0  0  0  0
 13 31  1  0  0  0  0
 14 32  1  0  0  0  0
M  END
> <id>
EN300-196583

> <smiles>
O=C1NC(=O)C2(CC3CC2C4CCCC34)N1

> <MDLNUMBER>
MFCD17237707

> <IUPAC Name>
spiro[imidazolidine-4,8'-tricyclo[5.2.1.0,2,6]decane]-2,5-dione

> <CAS>
59455-06-0

> <Purity>
95

> <URL>
https://www.enaminestore.com/catalog/EN300-196583

> <ROCS_ShapeQuery>
_x1247relevant_x1083L0AP1_x1305L0BP1_

> <ROCS_TanimotoCombo>
1.012 

> <ROCS_ShapeTanimoto>
0.558 

> <ROCS_ColorTanimoto>
0.454 

> <ROCS_RefTversky>
0.480 

> <ROCS_RefColorTversky>
0.703 

> <ROCS_RefTverskyCombo>
1.183 

> <ROCS_FitTversky>
1.408 

> <ROCS_FitColorTversky>
0.561 

> <ROCS_FitTverskyCombo>
1.969 

> <ROCS_ColorScore>
-6.891

> <ROCS_Overlap>
1186.741

> <ROCS_Rank>
459                 

$$$$
untitled-dbase-10739_0
  -OEChem-06232314403D

 22 24  0     1  0  0  0  0  0999 V2000
  -10.4232   13.6621  -37.4365 C   0  0  0  0  0  0  0  0  0  0  0  0
  -10.1495   15.8701  -37.0694 C   0  0  0  0  0  0  0  0  0  0  0  0
  -13.9964   14.6483  -38.5083 C   0  0  0  0  0  0  0  0  0  0  0  0
  -13.8094   16.1563  -38.2578 C   0  0  0  0  0  0  0  0  0  0  0  0
  -11.9519   15.3437  -39.4862 C   0  0  0  0  0  0  0  0  0  0  0  0
  -11.8198   14.1993  -37.3801 C   0  0  1  0  0  0  0  0  0  0  0  0
  -11.6349   15.6913  -37.1321 C   0  0  2  0  0  0  0  0  0  0  0  0
  -12.5543   14.1548  -38.7325 C   0  0  1  0  0  0  0  0  0  0  0  0
  -12.2837   16.3377  -38.3698 C   0  0  2  0  0  0  0  0  0  0  0  0
  -10.1196   12.4988  -37.6519 O   0  0  0  0  0  0  0  0  0  0  0  0
   -9.5697   16.9341  -36.9147 O   0  0  0  0  0  0  0  0  0  0  0  0
   -9.5297   14.6667  -37.2191 O   0  0  0  0  0  0  0  0  0  0  0  0
  -14.4871   14.1493  -37.6667 H   0  0  0  0  0  0  0  0  0  0  0  0
  -14.6072   14.4885  -39.4041 H   0  0  0  0  0  0  0  0  0  0  0  0
  -14.3288   16.7335  -39.0311 H   0  0  0  0  0  0  0  0  0  0  0  0
  -14.1997   16.4622  -37.2820 H   0  0  0  0  0  0  0  0  0  0  0  0
  -10.8805   15.2438  -39.6840 H   0  0  0  0  0  0  0  0  0  0  0  0
  -12.4687   15.5641  -40.4266 H   0  0  0  0  0  0  0  0  0  0  0  0
  -12.3662   13.7100  -36.5678 H   0  0  0  0  0  0  0  0  0  0  0  0
  -12.0810   16.0112  -36.1853 H   0  0  0  0  0  0  0  0  0  0  0  0
  -12.4883   13.1971  -39.2533 H   0  0  0  0  0  0  0  0  0  0  0  0
  -11.9713   17.3667  -38.5604 H   0  0  0  0  0  0  0  0  0  0  0  0
  1  6  1  0  0  0  0
  1 10  2  0  0  0  0
  1 12  1  0  0  0  0
  2  7  1  0  0  0  0
  2 11  2  0  0  0  0
  2 12  1  0  0  0  0
  3  4  1  0  0  0  0
  3  8  1  0  0  0  0
  4  9  1  0  0  0  0
  5  8  1  0  0  0  0
  5  9  1  0  0  0  0
  6  7  1  0  0  0  0
  6  8  1  0  0  0  0
  7  9  1  0  0  0  0
  3 13  1  0  0  0  0
  3 14  1  0  0  0  0
  4 15  1  0  0  0  0
  4 16  1  0  0  0  0
  5 17  1  0  0  0  0
  5 18  1  0  0  0  0
  6 19  1  0  0  0  0
  7 20  1  0  0  0  0
  8 21  1  0  0  0  0
  9 22  1  0  0  0  0
M  END
> <id>
EN300-6766554

> <smiles>
O=C1OC(=O)C2C3CCC(C3)C21

> <IUPAC Name>
4-oxatricyclo[5.2.1.0,2,6]decane-3,5-dione

> <CAS>
6004-79-1

> <URL>
https://www.enaminestore.com/catalog/EN300-6766554

> <ROCS_ShapeQuery>
_x1247relevant_x1083L0AP1_x1305L0BP1_

> <ROCS_TanimotoCombo>
1.011 

> <ROCS_ShapeTanimoto>
0.479 

> <ROCS_ColorTanimoto>
0.532 

> <ROCS_RefTversky>
0.411 

> <ROCS_RefColorTversky>
0.688 

> <ROCS_RefTverskyCombo>
1.099 

> <ROCS_FitTversky>
1.526 

> <ROCS_FitColorTversky>
0.701 

> <ROCS_FitTverskyCombo>
2.228 

> <ROCS_ColorScore>
-6.645

> <ROCS_Overlap>
1012.073

> <ROCS_Rank>
460                 

$$$$
untitled-dbase-40138_42
  -OEChem-06232314403D

 39 42  0     1  0  0  0  0  0999 V2000
   -8.7400   14.0954  -35.3325 C   0  0  0  0  0  0  0  0  0  0  0  0
  -13.1503   14.9070  -37.0899 C   0  0  0  0  0  0  0  0  0  0  0  0
  -10.3848   13.4918  -37.0889 C   0  0  0  0  0  0  0  0  0  0  0  0
  -10.2568   15.8064  -36.4210 C   0  0  0  0  0  0  0  0  0  0  0  0
  -12.6334   14.0460  -38.2601 C   0  0  2  0  0  0  0  0  0  0  0  0
  -12.5107   16.1958  -37.6456 C   0  0  1  0  0  0  0  0  0  0  0  0
  -11.1024   14.2862  -38.1709 C   0  0  1  0  0  0  0  0  0  0  0  0
  -11.0164   15.7853  -37.7409 C   0  0  2  0  0  0  0  0  0  0  0  0
  -13.1212   14.8114  -39.4849 C   0  0  2  0  0  0  0  0  0  0  0  0
  -13.0387   16.2470  -39.0747 C   0  0  1  0  0  0  0  0  0  0  0  0
   -9.8069   14.1457  -32.9585 C   0  0  0  0  0  0  0  0  0  0  0  0
   -9.9897   11.6415  -33.0279 C   0  0  0  0  0  0  0  0  0  0  0  0
   -7.7504   12.7227  -32.6749 C   0  0  0  0  0  0  0  0  0  0  0  0
   -9.1110   12.8458  -33.3593 C   0  0  0  0  0  0  0  0  0  0  0  0
   -9.7286   14.4646  -36.2365 N   0  0  0  0  0  0  0  0  0  0  0  0
   -7.8112   14.8205  -34.9823 O   0  0  0  0  0  0  0  0  0  0  0  0
  -14.2943   15.6193  -39.3508 O   0  0  0  0  0  0  0  0  0  0  0  0
   -8.9088   12.8554  -34.7785 O   0  0  0  0  0  0  0  0  0  0  0  0
  -14.2436   14.9557  -37.0414 H   0  0  0  0  0  0  0  0  0  0  0  0
  -12.7749   14.6055  -36.1084 H   0  0  0  0  0  0  0  0  0  0  0  0
  -11.0483   12.8487  -36.5033 H   0  0  0  0  0  0  0  0  0  0  0  0
   -9.6013   12.8632  -37.5260 H   0  0  0  0  0  0  0  0  0  0  0  0
   -9.3997   16.4835  -36.4789 H   0  0  0  0  0  0  0  0  0  0  0  0
  -10.8642   16.0987  -35.5619 H   0  0  0  0  0  0  0  0  0  0  0  0
  -12.9428   13.0005  -38.2409 H   0  0  0  0  0  0  0  0  0  0  0  0
  -12.7095   17.0999  -37.0688 H   0  0  0  0  0  0  0  0  0  0  0  0
  -10.6180   14.1271  -39.1461 H   0  0  0  0  0  0  0  0  0  0  0  0
  -10.4874   16.3838  -38.4952 H   0  0  0  0  0  0  0  0  0  0  0  0
  -12.7717   14.4942  -40.4531 H   0  0  0  0  0  0  0  0  0  0  0  0
  -12.6285   16.9875  -39.7403 H   0  0  0  0  0  0  0  0  0  0  0  0
   -9.1793   15.0125  -33.1947 H   0  0  0  0  0  0  0  0  0  0  0  0
  -10.7681   14.2628  -33.4694 H   0  0  0  0  0  0  0  0  0  0  0  0
   -9.9835   14.1775  -31.8773 H   0  0  0  0  0  0  0  0  0  0  0  0
   -9.4942   10.7066  -33.3138 H   0  0  0  0  0  0  0  0  0  0  0  0
  -10.9295   11.6774  -33.5907 H   0  0  0  0  0  0  0  0  0  0  0  0
  -10.2265   11.5959  -31.9600 H   0  0  0  0  0  0  0  0  0  0  0  0
   -7.2510   11.7904  -32.9622 H   0  0  0  0  0  0  0  0  0  0  0  0
   -7.0929   13.5600  -32.9308 H   0  0  0  0  0  0  0  0  0  0  0  0
   -7.8639   12.6896  -31.5852 H   0  0  0  0  0  0  0  0  0  0  0  0
  1 15  1  0  0  0  0
  1 16  2  0  0  0  0
  1 18  1  0  0  0  0
  2  5  1  0  0  0  0
  2  6  1  6  0  0  0
  3  7  1  6  0  0  0
  3 15  1  0  0  0  0
  4  8  1  6  0  0  0
  4 15  1  0  0  0  0
  5  7  1  0  0  0  0
  5  9  1  1  0  0  0
  6  8  1  0  0  0  0
  6 10  1  0  0  0  0
  7  8  1  0  0  0  0
  9 10  1  0  0  0  0
  9 17  1  0  0  0  0
 10 17  1  6  0  0  0
 11 14  1  0  0  0  0
 12 14  1  0  0  0  0
 13 14  1  0  0  0  0
 14 18  1  0  0  0  0
  2 19  1  0  0  0  0
  2 20  1  0  0  0  0
  3 21  1  0  0  0  0
  3 22  1  0  0  0  0
  4 23  1  0  0  0  0
  4 24  1  0  0  0  0
  5 25  1  0  0  0  0
  6 26  1  0  0  0  0
  7 27  1  0  0  0  0
  8 28  1  0  0  0  0
  9 29  1  0  0  0  0
 10 30  1  0  0  0  0
 11 31  1  0  0  0  0
 11 32  1  0  0  0  0
 11 33  1  0  0  0  0
 12 34  1  0  0  0  0
 12 35  1  0  0  0  0
 12 36  1  0  0  0  0
 13 37  1  0  0  0  0
 13 38  1  0  0  0  0
 13 39  1  0  0  0  0
M  END
> <id>
EN300-234682

> <smiles>
CC(C)(C)OC(=O)N1C[C@H]2[C@H]3C[C@H]([C@@H]4OC43)[C@H]2C1

> <MDLNUMBER>
MFCD29034740

> <IUPAC Name>
tert-butyl (1R,2R,6S,7S,8S)-9-oxa-4-azatetracyclo[5.3.1.0^{2,6}.0^{8,10}]undecane-4-carboxylate

> <CAS>
1864012-26-9

> <URL>
https://www.enaminestore.com/catalog/EN300-234682

> <ROCS_ShapeQuery>
_x1247relevant_x1083L0AP1_x1305L0BP1_

> <ROCS_TanimotoCombo>
1.011 

> <ROCS_ShapeTanimoto>
0.490 

> <ROCS_ColorTanimoto>
0.521 

> <ROCS_RefTversky>
0.451 

> <ROCS_RefColorTversky>
1.036 

> <ROCS_RefTverskyCombo>
1.487 

> <ROCS_FitTversky>
1.217 

> <ROCS_FitColorTversky>
0.512 

> <ROCS_FitTverskyCombo>
1.729 

> <ROCS_ColorScore>
-10.616

> <ROCS_Overlap>
1116.265

> <ROCS_Rank>
461                 

$$$$
untitled-dbase-30901_1
  -OEChem-06232314403D

 24 25  0     1  0  0  0  0  0999 V2000
  -11.7507   15.3131  -36.7596 C   0  0  0  0  0  0  0  0  0  0  0  0
  -11.6929   13.9558  -37.4711 C   0  0  0  0  0  0  0  0  0  0  0  0
  -13.6528   16.4690  -37.9617 C   0  0  0  0  0  0  0  0  0  0  0  0
  -13.5587   14.1646  -39.1669 C   0  0  0  0  0  0  0  0  0  0  0  0
  -12.1243   16.3305  -37.8542 C   0  0  2  0  0  0  0  0  0  0  0  0
  -12.0391   14.2531  -38.9422 C   0  0  1  0  0  0  0  0  0  0  0  0
  -14.3497   15.4619  -38.8988 C   0  0  0  0  0  0  0  0  0  0  0  0
  -11.5263   15.6747  -39.0861 C   0  0  0  0  0  0  0  0  0  0  0  0
  -14.6652   16.1320  -40.1697 N   0  0  0  0  0  0  0  0  0  0  0  0
  -10.1733   15.6962  -39.0213 F   0  0  0  0  0  0  0  0  0  0  0  0
  -11.8766   16.2636  -40.2382 F   0  0  0  0  0  0  0  0  0  0  0  0
  -12.4583   15.3159  -35.9234 H   0  0  0  0  0  0  0  0  0  0  0  0
  -10.7615   15.5515  -36.3489 H   0  0  0  0  0  0  0  0  0  0  0  0
  -10.6765   13.5488  -37.3994 H   0  0  0  0  0  0  0  0  0  0  0  0
  -12.3693   13.2211  -37.0210 H   0  0  0  0  0  0  0  0  0  0  0  0
  -14.1011   16.3882  -36.9481 H   0  0  0  0  0  0  0  0  0  0  0  0
  -13.8856   17.5055  -38.2899 H   0  0  0  0  0  0  0  0  0  0  0  0
  -13.7367   13.8297  -40.2120 H   0  0  0  0  0  0  0  0  0  0  0  0
  -13.9768   13.3506  -38.5366 H   0  0  0  0  0  0  0  0  0  0  0  0
  -11.6719   17.3100  -37.6399 H   0  0  0  0  0  0  0  0  0  0  0  0
  -11.5186   13.5507  -39.6097 H   0  0  0  0  0  0  0  0  0  0  0  0
  -15.3198   15.1927  -38.4528 H   0  0  0  0  0  0  0  0  0  0  0  0
  -15.1696   15.4947  -40.7388 H   0  0  0  0  0  0  0  0  0  0  0  0
  -15.2140   16.9337  -39.9684 H   0  0  0  0  0  0  0  0  0  0  0  0
  1  2  1  0  0  0  0
  1  5  1  0  0  0  0
  2  6  1  0  0  0  0
  3  5  1  0  0  0  0
  3  7  1  0  0  0  0
  4  6  1  0  0  0  0
  4  7  1  0  0  0  0
  5  8  1  0  0  0  0
  6  8  1  0  0  0  0
  7  9  1  0  0  0  0
  8 10  1  0  0  0  0
  8 11  1  0  0  0  0
  1 12  1  0  0  0  0
  1 13  1  0  0  0  0
  2 14  1  0  0  0  0
  2 15  1  0  0  0  0
  3 16  1  0  0  0  0
  3 17  1  0  0  0  0
  4 18  1  0  0  0  0
  4 19  1  0  0  0  0
  5 20  1  0  0  0  0
  6 21  1  0  0  0  0
  7 22  1  0  0  0  0
  9 23  1  0  0  0  0
  9 24  1  0  0  0  0
M  END
> <id>
EN300-26863238

> <smiles>
Cl.NC1CC2CCC(C1)C2(F)F

> <MDLNUMBER>
MFCD32679256

> <IUPAC Name>
8,8-difluorobicyclo[3.2.1]octan-3-amine hydrochloride

> <CAS>
2649060-89-7

> <Purity>
95

> <URL>
https://www.enaminestore.com/catalog/EN300-26863238

> <Saltdate>
Cl

> <ROCS_ShapeQuery>
_x1247relevant_x1083L0AP1_x1305L0BP1_

> <ROCS_TanimotoCombo>
1.011 

> <ROCS_ShapeTanimoto>
0.439 

> <ROCS_ColorTanimoto>
0.572 

> <ROCS_RefTversky>
0.379 

> <ROCS_RefColorTversky>
0.664 

> <ROCS_RefTverskyCombo>
1.043 

> <ROCS_FitTversky>
1.572 

> <ROCS_FitColorTversky>
0.805 

> <ROCS_FitTverskyCombo>
2.377 

> <ROCS_ColorScore>
-6.355

> <ROCS_Overlap>
930.933

> <ROCS_Rank>
462                 

$$$$
untitled-dbase-30902_1
  -OEChem-06232314403D

 24 25  0     1  0  0  0  0  0999 V2000
  -11.7507   15.3131  -36.7596 C   0  0  0  0  0  0  0  0  0  0  0  0
  -11.6929   13.9558  -37.4711 C   0  0  0  0  0  0  0  0  0  0  0  0
  -13.6528   16.4690  -37.9617 C   0  0  0  0  0  0  0  0  0  0  0  0
  -13.5587   14.1646  -39.1669 C   0  0  0  0  0  0  0  0  0  0  0  0
  -12.1243   16.3305  -37.8542 C   0  0  2  0  0  0  0  0  0  0  0  0
  -12.0391   14.2531  -38.9422 C   0  0  1  0  0  0  0  0  0  0  0  0
  -14.3497   15.4619  -38.8988 C   0  0  0  0  0  0  0  0  0  0  0  0
  -11.5263   15.6747  -39.0861 C   0  0  0  0  0  0  0  0  0  0  0  0
  -14.6652   16.1320  -40.1697 N   0  0  0  0  0  0  0  0  0  0  0  0
  -10.1733   15.6962  -39.0213 F   0  0  0  0  0  0  0  0  0  0  0  0
  -11.8766   16.2636  -40.2382 F   0  0  0  0  0  0  0  0  0  0  0  0
  -12.4583   15.3159  -35.9234 H   0  0  0  0  0  0  0  0  0  0  0  0
  -10.7615   15.5515  -36.3489 H   0  0  0  0  0  0  0  0  0  0  0  0
  -10.6765   13.5488  -37.3994 H   0  0  0  0  0  0  0  0  0  0  0  0
  -12.3693   13.2211  -37.0210 H   0  0  0  0  0  0  0  0  0  0  0  0
  -14.1011   16.3882  -36.9481 H   0  0  0  0  0  0  0  0  0  0  0  0
  -13.8856   17.5055  -38.2899 H   0  0  0  0  0  0  0  0  0  0  0  0
  -13.7367   13.8297  -40.2120 H   0  0  0  0  0  0  0  0  0  0  0  0
  -13.9768   13.3506  -38.5366 H   0  0  0  0  0  0  0  0  0  0  0  0
  -11.6719   17.3100  -37.6399 H   0  0  0  0  0  0  0  0  0  0  0  0
  -11.5186   13.5507  -39.6097 H   0  0  0  0  0  0  0  0  0  0  0  0
  -15.3198   15.1927  -38.4528 H   0  0  0  0  0  0  0  0  0  0  0  0
  -15.1696   15.4947  -40.7388 H   0  0  0  0  0  0  0  0  0  0  0  0
  -15.2140   16.9337  -39.9684 H   0  0  0  0  0  0  0  0  0  0  0  0
  1  2  1  0  0  0  0
  1  5  1  0  0  0  0
  2  6  1  0  0  0  0
  3  5  1  0  0  0  0
  3  7  1  0  0  0  0
  4  6  1  0  0  0  0
  4  7  1  0  0  0  0
  5  8  1  0  0  0  0
  6  8  1  0  0  0  0
  7  9  1  0  0  0  0
  8 10  1  0  0  0  0
  8 11  1  0  0  0  0
  1 12  1  0  0  0  0
  1 13  1  0  0  0  0
  2 14  1  0  0  0  0
  2 15  1  0  0  0  0
  3 16  1  0  0  0  0
  3 17  1  0  0  0  0
  4 18  1  0  0  0  0
  4 19  1  0  0  0  0
  5 20  1  0  0  0  0
  6 21  1  0  0  0  0
  7 22  1  0  0  0  0
  9 23  1  0  0  0  0
  9 24  1  0  0  0  0
M  END
> <id>
EN300-26863239

> <smiles>
NC1CC2CCC(C1)C2(F)F

> <MDLNUMBER>
MFCD32679257

> <IUPAC Name>
8,8-difluorobicyclo[3.2.1]octan-3-amine

> <CAS>
2649060-88-6

> <URL>
https://www.enaminestore.com/catalog/EN300-26863239

> <ROCS_ShapeQuery>
_x1247relevant_x1083L0AP1_x1305L0BP1_

> <ROCS_TanimotoCombo>
1.011 

> <ROCS_ShapeTanimoto>
0.439 

> <ROCS_ColorTanimoto>
0.572 

> <ROCS_RefTversky>
0.379 

> <ROCS_RefColorTversky>
0.664 

> <ROCS_RefTverskyCombo>
1.043 

> <ROCS_FitTversky>
1.572 

> <ROCS_FitColorTversky>
0.805 

> <ROCS_FitTverskyCombo>
2.377 

> <ROCS_ColorScore>
-6.355

> <ROCS_Overlap>
930.933

> <ROCS_Rank>
463                 

$$$$
untitled-dbase-50199_0
  -OEChem-06232314403D

 19 21  0     0  0  0  0  0  0999 V2000
   -9.9245   15.2265  -37.8834 C   0  0  0  0  0  0  0  0  0  0  0  0
  -13.3432   15.8453  -37.4114 C   0  0  0  0  0  0  0  0  0  0  0  0
  -13.1710   14.0512  -38.4897 C   0  0  0  0  0  0  0  0  0  0  0  0
  -11.8795   15.9764  -39.4410 C   0  0  0  0  0  0  0  0  0  0  0  0
  -11.3687   14.1827  -36.3753 C   0  0  0  0  0  0  0  0  0  0  0  0
  -13.2918   15.5576  -38.9701 C   0  0  0  0  0  0  0  0  0  0  0  0
  -12.2044   14.7600  -37.4693 C   0  0  0  0  0  0  0  0  0  0  0  0
  -11.1938   15.3678  -38.3194 N   0  0  0  0  0  0  0  0  0  0  0  0
   -8.8921   15.6313  -38.3939 O   0  0  0  0  0  0  0  0  0  0  0  0
   -9.9834   14.5127  -36.7050 O   0  0  0  0  0  0  0  0  0  0  0  0
  -13.0485   16.8518  -37.0992 H   0  0  0  0  0  0  0  0  0  0  0  0
  -14.2617   15.5611  -36.8863 H   0  0  0  0  0  0  0  0  0  0  0  0
  -14.0728   13.5923  -38.0695 H   0  0  0  0  0  0  0  0  0  0  0  0
  -12.7132   13.3561  -39.2000 H   0  0  0  0  0  0  0  0  0  0  0  0
  -11.5671   15.5094  -40.3775 H   0  0  0  0  0  0  0  0  0  0  0  0
  -11.7157   17.0561  -39.4473 H   0  0  0  0  0  0  0  0  0  0  0  0
  -11.5938   14.6204  -35.3985 H   0  0  0  0  0  0  0  0  0  0  0  0
  -11.4490   13.0937  -36.3138 H   0  0  0  0  0  0  0  0  0  0  0  0
  -14.1502   15.8406  -39.5780 H   0  0  0  0  0  0  0  0  0  0  0  0
  1  8  1  0  0  0  0
  1  9  2  0  0  0  0
  1 10  1  0  0  0  0
  2  6  1  0  0  0  0
  2  7  1  0  0  0  0
  3  6  1  0  0  0  0
  3  7  1  0  0  0  0
  4  6  1  0  0  0  0
  4  8  1  0  0  0  0
  5  7  1  0  0  0  0
  5 10  1  0  0  0  0
  7  8  1  0  0  0  0
  2 11  1  0  0  0  0
  2 12  1  0  0  0  0
  3 13  1  0  0  0  0
  3 14  1  0  0  0  0
  4 15  1  0  0  0  0
  4 16  1  0  0  0  0
  5 17  1  0  0  0  0
  5 18  1  0  0  0  0
  6 19  1  0  0  0  0
M  END
> <id>
EN300-7680732

> <smiles>
O=C1OCC2(CC3C2)N1C3

> <MDLNUMBER>
MFCD18821537

> <IUPAC Name>
3-oxa-5-azatricyclo[5.1.1.0,1,5]nonan-4-one

> <CAS>
637740-07-9

> <Purity>
95

> <URL>
https://www.enaminestore.com/catalog/EN300-7680732

> <ROCS_ShapeQuery>
_x1247relevant_x1083L0AP1_x1305L0BP1_

> <ROCS_TanimotoCombo>
1.011 

> <ROCS_ShapeTanimoto>
0.457 

> <ROCS_ColorTanimoto>
0.554 

> <ROCS_RefTversky>
0.387 

> <ROCS_RefColorTversky>
0.688 

> <ROCS_RefTverskyCombo>
1.075 

> <ROCS_FitTversky>
1.651 

> <ROCS_FitColorTversky>
0.740 

> <ROCS_FitTverskyCombo>
2.391 

> <ROCS_ColorScore>
-6.627

> <ROCS_Overlap>
950.890

> <ROCS_Rank>
464                 

$$$$
untitled-dbase-37016_3
  -OEChem-06232314403D

 27 29  0     1  0  0  0  0  0999 V2000
  -12.8523   14.5304  -39.6733 C   0  0  0  0  0  0  0  0  0  0  0  0
  -12.5577   16.0494  -39.6470 C   0  0  0  0  0  0  0  0  0  0  0  0
  -13.7237   15.5022  -37.6798 C   0  0  0  0  0  0  0  0  0  0  0  0
   -9.2219   15.2235  -36.7221 C   0  0  0  0  0  0  0  0  0  0  0  0
  -10.4545   16.1568  -36.6866 C   0  0  0  0  0  0  0  0  0  0  0  0
  -10.5933   13.3865  -37.6060 C   0  0  0  0  0  0  0  0  0  0  0  0
  -13.0798   14.1987  -38.1830 C   0  0  2  0  0  0  0  0  0  0  0  0
  -12.5471   16.3660  -38.1362 C   0  0  1  0  0  0  0  0  0  0  0  0
  -11.7930   14.2778  -37.3573 C   0  0  2  0  0  0  0  0  0  0  0  0
   -9.5305   13.7779  -36.6519 N   0  0  0  0  0  0  0  0  0  0  0  0
  -11.3687   15.6441  -37.6716 N   0  0  2  0  0  0  0  0  0  0  0  0
  -13.7656   14.3446  -40.2495 H   0  0  0  0  0  0  0  0  0  0  0  0
  -12.0502   13.9572  -40.1403 H   0  0  0  0  0  0  0  0  0  0  0  0
  -11.6328   16.2971  -40.1649 H   0  0  0  0  0  0  0  0  0  0  0  0
  -13.3702   16.5866  -40.1439 H   0  0  0  0  0  0  0  0  0  0  0  0
  -14.6661   15.7422  -38.1876 H   0  0  0  0  0  0  0  0  0  0  0  0
  -13.8901   15.5147  -36.5949 H   0  0  0  0  0  0  0  0  0  0  0  0
   -8.6501   15.4199  -37.6373 H   0  0  0  0  0  0  0  0  0  0  0  0
   -8.5559   15.4670  -35.8847 H   0  0  0  0  0  0  0  0  0  0  0  0
  -10.8992   16.1145  -35.6993 H   0  0  0  0  0  0  0  0  0  0  0  0
  -10.1227   17.1691  -36.8793 H   0  0  0  0  0  0  0  0  0  0  0  0
  -10.8473   12.3498  -37.4396 H   0  0  0  0  0  0  0  0  0  0  0  0
  -10.1940   13.4919  -38.6036 H   0  0  0  0  0  0  0  0  0  0  0  0
  -13.6696   13.3025  -38.0072 H   0  0  0  0  0  0  0  0  0  0  0  0
  -12.5618   17.4026  -37.9148 H   0  0  0  0  0  0  0  0  0  0  0  0
  -12.0226   14.2756  -36.2979 H   0  0  0  0  0  0  0  0  0  0  0  0
   -8.6982   13.2320  -36.8324 H   0  0  0  0  0  0  0  0  0  0  0  0
  1  2  1  0  0  0  0
  1  7  1  1  0  0  0
  2  8  1  1  0  0  0
  3  7  1  0  0  0  0
  3  8  1  0  0  0  0
  4  5  1  0  0  0  0
  4 10  1  0  0  0  0
  5 11  1  0  0  0  0
  6  9  1  1  0  0  0
  6 10  1  0  0  0  0
  7  9  1  0  0  0  0
  8 11  1  0  0  0  0
  9 11  1  0  0  0  0
  1 12  1  0  0  0  0
  1 13  1  0  0  0  0
  2 14  1  0  0  0  0
  2 15  1  0  0  0  0
  3 16  1  0  0  0  0
  3 17  1  0  0  0  0
  4 18  1  0  0  0  0
  4 19  1  0  0  0  0
  5 20  1  0  0  0  0
  5 21  1  0  0  0  0
  6 22  1  0  0  0  0
  6 23  1  0  0  0  0
  7 24  1  0  0  0  0
  8 25  1  0  0  0  0
  9 26  1  0  0  0  0
 10 27  1  0  0  0  0
M  END
> <id>
EN300-658785

> <smiles>
Cl.Cl.C1C[C@H]2C[C@@H]1[C@H]3CNCCN23

> <MDLNUMBER>
MFCD31381212

> <IUPAC Name>
(1S,7S,8R)-2,5-diazatricyclo[6.2.1.0,2,7]undecane dihydrochloride

> <CAS>
2126144-06-5

> <Purity>
95

> <URL>
https://www.enaminestore.com/catalog/EN300-658785

> <Saltdate>
Cl

> <ROCS_ShapeQuery>
_x1247relevant_x1083L0AP1_x1305L0BP1_

> <ROCS_TanimotoCombo>
1.011 

> <ROCS_ShapeTanimoto>
0.493 

> <ROCS_ColorTanimoto>
0.518 

> <ROCS_RefTversky>
0.411 

> <ROCS_RefColorTversky>
0.704 

> <ROCS_RefTverskyCombo>
1.115 

> <ROCS_FitTversky>
1.681 

> <ROCS_FitColorTversky>
0.662 

> <ROCS_FitTverskyCombo>
2.343 

> <ROCS_ColorScore>
-6.827

> <ROCS_Overlap>
1010.718

> <ROCS_Rank>
465                 

$$$$
untitled-dbase-17404_0
  -OEChem-06232314403D

 27 29  0     0  0  0  0  0  0999 V2000
  -11.3312   14.6649  -37.4181 C   0  0  0  0  0  0  0  0  0  0  0  0
  -10.3069   14.1933  -36.6947 C   0  0  0  0  0  0  0  0  0  0  0  0
  -12.0827   14.3488  -39.7576 C   0  0  0  0  0  0  0  0  0  0  0  0
  -13.6466   13.8925  -37.8448 C   0  0  0  0  0  0  0  0  0  0  0  0
  -11.6553   16.6548  -38.8582 C   0  0  0  0  0  0  0  0  0  0  0  0
  -13.2191   16.1984  -36.9454 C   0  0  0  0  0  0  0  0  0  0  0  0
  -14.0075   15.8996  -39.3115 C   0  0  0  0  0  0  0  0  0  0  0  0
  -12.1856   13.7973  -38.3232 C   0  0  0  0  0  0  0  0  0  0  0  0
  -11.7547   16.1218  -37.4166 C   0  0  0  0  0  0  0  0  0  0  0  0
  -12.5487   15.8185  -39.7969 C   0  0  0  0  0  0  0  0  0  0  0  0
  -14.1208   15.3598  -37.8740 C   0  0  0  0  0  0  0  0  0  0  0  0
   -9.7292   14.8555  -36.0647 H   0  0  0  0  0  0  0  0  0  0  0  0
  -10.0453   13.1448  -36.7321 H   0  0  0  0  0  0  0  0  0  0  0  0
  -11.0487   14.2765  -40.1183 H   0  0  0  0  0  0  0  0  0  0  0  0
  -12.6990   13.7448  -40.4350 H   0  0  0  0  0  0  0  0  0  0  0  0
  -14.2908   13.2803  -38.4881 H   0  0  0  0  0  0  0  0  0  0  0  0
  -13.7392   13.4916  -36.8274 H   0  0  0  0  0  0  0  0  0  0  0  0
  -11.9647   17.7068  -38.8895 H   0  0  0  0  0  0  0  0  0  0  0  0
  -10.6146   16.6185  -39.2048 H   0  0  0  0  0  0  0  0  0  0  0  0
  -13.3051   15.8333  -35.9140 H   0  0  0  0  0  0  0  0  0  0  0  0
  -13.5564   17.2423  -36.9427 H   0  0  0  0  0  0  0  0  0  0  0  0
  -14.3566   16.9387  -39.3490 H   0  0  0  0  0  0  0  0  0  0  0  0
  -14.6565   15.3208  -39.9801 H   0  0  0  0  0  0  0  0  0  0  0  0
  -11.8576   12.7517  -38.3045 H   0  0  0  0  0  0  0  0  0  0  0  0
  -11.1214   16.7239  -36.7551 H   0  0  0  0  0  0  0  0  0  0  0  0
  -12.4750   16.2039  -40.8198 H   0  0  0  0  0  0  0  0  0  0  0  0
  -15.1608   15.4203  -37.5348 H   0  0  0  0  0  0  0  0  0  0  0  0
  1  2  2  0  0  0  0
  1  8  1  0  0  0  0
  1  9  1  0  0  0  0
  3  8  1  0  0  0  0
  3 10  1  0  0  0  0
  4  8  1  0  0  0  0
  4 11  1  0  0  0  0
  5  9  1  0  0  0  0
  5 10  1  0  0  0  0
  6  9  1  0  0  0  0
  6 11  1  0  0  0  0
  7 10  1  0  0  0  0
  7 11  1  0  0  0  0
  2 12  1  0  0  0  0
  2 13  1  0  0  0  0
  3 14  1  0  0  0  0
  3 15  1  0  0  0  0
  4 16  1  0  0  0  0
  4 17  1  0  0  0  0
  5 18  1  0  0  0  0
  5 19  1  0  0  0  0
  6 20  1  0  0  0  0
  6 21  1  0  0  0  0
  7 22  1  0  0  0  0
  7 23  1  0  0  0  0
  8 24  1  0  0  0  0
  9 25  1  0  0  0  0
 10 26  1  0  0  0  0
 11 27  1  0  0  0  0
M  END
> <id>
EN300-1267354

> <smiles>
C=C1C2CC3CC(C2)CC1C3

> <MDLNUMBER>
MFCD00181012

> <IUPAC Name>
2-methylideneadamantane

> <CAS>
875-72-9

> <Purity>
95

> <URL>
https://www.enaminestore.com/catalog/EN300-1267354

> <ROCS_ShapeQuery>
_x1247relevant_x1083L0AP1_x1305L0BP1_

> <ROCS_TanimotoCombo>
1.011 

> <ROCS_ShapeTanimoto>
0.466 

> <ROCS_ColorTanimoto>
0.545 

> <ROCS_RefTversky>
0.395 

> <ROCS_RefColorTversky>
0.599 

> <ROCS_RefTverskyCombo>
0.994 

> <ROCS_FitTversky>
1.628 

> <ROCS_FitColorTversky>
0.858 

> <ROCS_FitTverskyCombo>
2.485 

> <ROCS_ColorScore>
-5.697

> <ROCS_Overlap>
970.351

> <ROCS_Rank>
466                 

$$$$
untitled-dbase-21087_0
  -OEChem-06232314403D

 32 33  0     1  0  0  0  0  0999 V2000
   -9.5758   15.0822  -37.5868 C   0  0  0  0  0  0  0  0  0  0  0  0
  -13.6953   15.2504  -37.0700 C   0  0  0  0  0  0  0  0  0  0  0  0
  -13.4955   16.5726  -37.8230 C   0  0  0  0  0  0  0  0  0  0  0  0
  -11.7299   13.9044  -37.8493 C   0  0  0  0  0  0  0  0  0  0  0  0
  -11.3701   16.0842  -39.0755 C   0  0  0  0  0  0  0  0  0  0  0  0
  -13.2319   14.1544  -38.0509 C   0  0  2  0  0  0  0  0  0  0  0  0
  -12.9166   16.1701  -39.2054 C   0  0  1  0  0  0  0  0  0  0  0  0
  -13.5316   14.7588  -39.4446 C   0  0  0  0  0  0  0  0  0  0  0  0
  -13.2673   17.2082  -40.2745 C   0  0  0  0  0  0  0  0  0  0  0  0
  -12.9087   13.9721  -40.6127 C   0  0  0  0  0  0  0  0  0  0  0  0
  -15.0576   14.7839  -39.7098 C   0  0  0  0  0  0  0  0  0  0  0  0
  -10.8906   15.0827  -38.1049 N   0  0  0  0  0  0  0  0  0  0  0  0
   -9.1364   14.1289  -36.9395 O   0  0  0  0  0  0  0  0  0  0  0  0
   -8.5873   16.4947  -37.9181 Cl  0  0  0  0  0  0  0  0  0  0  0  0
  -13.1424   15.2347  -36.1245 H   0  0  0  0  0  0  0  0  0  0  0  0
  -14.7547   15.1200  -36.8211 H   0  0  0  0  0  0  0  0  0  0  0  0
  -14.4578   17.0892  -37.9210 H   0  0  0  0  0  0  0  0  0  0  0  0
  -12.8309   17.2472  -37.2714 H   0  0  0  0  0  0  0  0  0  0  0  0
  -11.5472   13.5570  -36.8251 H   0  0  0  0  0  0  0  0  0  0  0  0
  -11.3745   13.1033  -38.5073 H   0  0  0  0  0  0  0  0  0  0  0  0
  -10.9058   15.8444  -40.0394 H   0  0  0  0  0  0  0  0  0  0  0  0
  -10.9836   17.0671  -38.7832 H   0  0  0  0  0  0  0  0  0  0  0  0
  -13.7785   13.2207  -37.8778 H   0  0  0  0  0  0  0  0  0  0  0  0
  -12.8505   16.9025  -41.2314 H   0  0  0  0  0  0  0  0  0  0  0  0
  -12.8543   18.1746  -39.9948 H   0  0  0  0  0  0  0  0  0  0  0  0
  -14.3481   17.2909  -40.3630 H   0  0  0  0  0  0  0  0  0  0  0  0
  -13.1649   14.4591  -41.5473 H   0  0  0  0  0  0  0  0  0  0  0  0
  -13.2979   12.9598  -40.6083 H   0  0  0  0  0  0  0  0  0  0  0  0
  -11.8308   13.9510  -40.4937 H   0  0  0  0  0  0  0  0  0  0  0  0
  -15.2331   15.2104  -40.6882 H   0  0  0  0  0  0  0  0  0  0  0  0
  -15.5324   15.3879  -38.9486 H   0  0  0  0  0  0  0  0  0  0  0  0
  -15.4335   13.7705  -39.6711 H   0  0  0  0  0  0  0  0  0  0  0  0
  1 12  1  0  0  0  0
  1 13  2  0  0  0  0
  1 14  1  0  0  0  0
  2  3  1  0  0  0  0
  2  6  1  6  0  0  0
  3  7  1  0  0  0  0
  4  6  1  0  0  0  0
  4 12  1  0  0  0  0
  5  7  1  0  0  0  0
  5 12  1  0  0  0  0
  6  8  1  0  0  0  0
  7  8  1  0  0  0  0
  7  9  1  1  0  0  0
  8 10  1  0  0  0  0
  8 11  1  0  0  0  0
  2 15  1  0  0  0  0
  2 16  1  0  0  0  0
  3 17  1  0  0  0  0
  3 18  1  0  0  0  0
  4 19  1  0  0  0  0
  4 20  1  0  0  0  0
  5 21  1  0  0  0  0
  5 22  1  0  0  0  0
  6 23  1  0  0  0  0
  9 24  1  0  0  0  0
  9 25  1  0  0  0  0
  9 26  1  0  0  0  0
 10 27  1  0  0  0  0
 10 28  1  0  0  0  0
 10 29  1  0  0  0  0
 11 30  1  0  0  0  0
 11 31  1  0  0  0  0
 11 32  1  0  0  0  0
M  END
> <id>
EN300-1717488

> <smiles>
CC1(C)[C@@H]2CC[C@@]1(C)CN(C2)C(=O)Cl

> <MDLNUMBER>
MFCD31666540

> <IUPAC Name>
(1R,5S)-1,8,8-trimethyl-3-azabicyclo[3.2.1]octane-3-carbonyl chloride

> <CAS>
2227795-14-2

> <Purity>
95

> <URL>
https://www.enaminestore.com/catalog/EN300-1717488

> <ROCS_ShapeQuery>
_x1247relevant_x1083L0AP1_x1305L0BP1_

> <ROCS_TanimotoCombo>
1.011 

> <ROCS_ShapeTanimoto>
0.532 

> <ROCS_ColorTanimoto>
0.479 

> <ROCS_RefTversky>
0.445 

> <ROCS_RefColorTversky>
0.591 

> <ROCS_RefTverskyCombo>
1.036 

> <ROCS_FitTversky>
1.573 

> <ROCS_FitColorTversky>
0.717 

> <ROCS_FitTverskyCombo>
2.290 

> <ROCS_ColorScore>
-5.653

> <ROCS_Overlap>
1097.298

> <ROCS_Rank>
467                 

$$$$
untitled-dbase-36614_1
  -OEChem-06232314403D

 29 31  0     1  0  0  0  0  0999 V2000
  -13.0946   14.4040  -37.4698 C   0  0  0  0  0  0  0  0  0  0  0  0
   -9.7227   15.7759  -36.1336 C   0  0  0  0  0  0  0  0  0  0  0  0
   -9.2595   13.8768  -37.7367 C   0  0  0  0  0  0  0  0  0  0  0  0
  -11.2200   15.4650  -36.1855 C   0  0  0  0  0  0  0  0  0  0  0  0
  -10.7540   13.5539  -37.7978 C   0  0  0  0  0  0  0  0  0  0  0  0
  -13.5491   15.1349  -39.9068 C   0  0  0  0  0  0  0  0  0  0  0  0
  -13.8270   15.2389  -38.4337 C   0  0  2  0  0  0  0  0  0  0  0  0
   -8.8433   14.5506  -36.4213 C   0  0  0  0  0  0  0  0  0  0  0  0
  -12.7893   16.1207  -39.0691 C   0  0  1  0  0  0  0  0  0  0  0  0
  -11.6175   14.7792  -37.4942 C   0  0  0  0  0  0  0  0  0  0  0  0
   -8.8519   13.5618  -35.2523 C   0  0  0  0  0  0  0  0  0  0  0  0
  -13.6301   13.5621  -36.7684 O   0  0  0  0  0  0  0  0  0  0  0  0
  -11.4841   15.7242  -38.5819 O   0  0  0  0  0  0  0  0  0  0  0  0
   -9.4995   16.5716  -36.8629 H   0  0  0  0  0  0  0  0  0  0  0  0
   -9.4694   16.1955  -35.1460 H   0  0  0  0  0  0  0  0  0  0  0  0
   -8.6774   12.9534  -37.8845 H   0  0  0  0  0  0  0  0  0  0  0  0
   -9.0023   14.5303  -38.5853 H   0  0  0  0  0  0  0  0  0  0  0  0
  -11.4918   14.8444  -35.3288 H   0  0  0  0  0  0  0  0  0  0  0  0
  -11.7824   16.3962  -36.0783 H   0  0  0  0  0  0  0  0  0  0  0  0
  -10.9959   13.1786  -38.7947 H   0  0  0  0  0  0  0  0  0  0  0  0
  -10.9796   12.7445  -37.1018 H   0  0  0  0  0  0  0  0  0  0  0  0
  -13.0290   14.2586  -40.2744 H   0  0  0  0  0  0  0  0  0  0  0  0
  -14.2972   15.5239  -40.5875 H   0  0  0  0  0  0  0  0  0  0  0  0
  -14.7515   15.6978  -38.1101 H   0  0  0  0  0  0  0  0  0  0  0  0
   -7.7984   14.9089  -36.5440 H   0  0  0  0  0  0  0  0  0  0  0  0
  -13.0039   17.1748  -39.1808 H   0  0  0  0  0  0  0  0  0  0  0  0
   -9.8610   13.1843  -35.0963 H   0  0  0  0  0  0  0  0  0  0  0  0
   -8.5131   14.0600  -34.3456 H   0  0  0  0  0  0  0  0  0  0  0  0
   -8.1881   12.7271  -35.4706 H   0  0  0  0  0  0  0  0  0  0  0  0
  1  7  1  0  0  0  0
  1 10  1  0  0  0  0
  1 12  2  0  0  0  0
  2  4  1  0  0  0  0
  2  8  1  0  0  0  0
  3  5  1  0  0  0  0
  3  8  1  0  0  0  0
  4 10  1  0  0  0  0
  5 10  1  0  0  0  0
  6  7  1  0  0  0  0
  6  9  1  0  0  0  0
  7  9  1  0  0  0  0
  8 11  1  0  0  0  0
  9 13  1  0  0  0  0
 10 13  1  0  0  0  0
  2 14  1  0  0  0  0
  2 15  1  0  0  0  0
  3 16  1  0  0  0  0
  3 17  1  0  0  0  0
  4 18  1  0  0  0  0
  4 19  1  0  0  0  0
  5 20  1  0  0  0  0
  5 21  1  0  0  0  0
  6 22  1  0  0  0  0
  6 23  1  0  0  0  0
  7 24  1  0  0  0  0
  8 25  1  0  0  0  0
  9 26  1  0  0  0  0
 11 27  1  0  0  0  0
 11 28  1  0  0  0  0
 11 29  1  0  0  0  0
M  END
> <id>
EN300-737313

> <smiles>
CC1CCC2(CC1)OC3CC3C2=O

> <IUPAC Name>
4'-methyl-2-oxaspiro[bicyclo[3.1.0]hexane-3,1'-cyclohexane]-4-one

> <CAS>
2137984-82-6

> <URL>
https://www.enaminestore.com/catalog/EN300-737313

> <ROCS_ShapeQuery>
_x1247relevant_x1083L0AP1_x1305L0BP1_

> <ROCS_TanimotoCombo>
1.010 

> <ROCS_ShapeTanimoto>
0.511 

> <ROCS_ColorTanimoto>
0.499 

> <ROCS_RefTversky>
0.431 

> <ROCS_RefColorTversky>
0.576 

> <ROCS_RefTverskyCombo>
1.007 

> <ROCS_FitTversky>
1.574 

> <ROCS_FitColorTversky>
0.790 

> <ROCS_FitTverskyCombo>
2.363 

> <ROCS_ColorScore>
-5.480

> <ROCS_Overlap>
1061.273

> <ROCS_Rank>
468                 

$$$$
untitled-dbase-35738_2
  -OEChem-06232314403D

 32 34  0     1  0  0  0  0  0999 V2000
   -9.6771   16.1774  -36.2055 C   0  0  0  0  0  0  0  0  0  0  0  0
   -9.5920   14.9395  -35.3198 C   0  0  0  0  0  0  0  0  0  0  0  0
  -13.9383   14.5745  -38.9995 C   0  0  0  0  0  0  0  0  0  0  0  0
  -13.5403   14.2290  -37.5661 C   0  0  0  0  0  0  0  0  0  0  0  0
  -10.0060   15.9958  -37.6867 C   0  0  0  0  0  0  0  0  0  0  0  0
  -11.5923   15.3018  -39.5179 C   0  0  0  0  0  0  0  0  0  0  0  0
   -9.1670   13.6512  -36.0080 C   0  0  0  0  0  0  0  0  0  0  0  0
  -10.5693   13.5389  -38.0101 C   0  0  0  0  0  0  0  0  0  0  0  0
  -13.0337   15.7668  -39.2992 C   0  0  2  0  0  0  0  0  0  0  0  0
  -12.4287   15.2413  -37.2838 C   0  0  1  0  0  0  0  0  0  0  0  0
  -11.1163   14.9809  -38.0661 C   0  0  1  0  0  0  0  0  0  0  0  0
  -10.2879   13.0026  -36.6823 N   0  0  0  0  0  0  0  0  0  0  0  0
  -12.9463   16.3940  -38.0007 O   0  0  0  0  0  0  0  0  0  0  0  0
  -10.3615   16.9415  -35.7389 H   0  0  0  0  0  0  0  0  0  0  0  0
   -8.6764   16.6871  -36.1572 H   0  0  0  0  0  0  0  0  0  0  0  0
   -8.9233   15.1429  -34.4628 H   0  0  0  0  0  0  0  0  0  0  0  0
  -10.5853   14.7652  -34.8674 H   0  0  0  0  0  0  0  0  0  0  0  0
  -13.7960   13.7445  -39.6976 H   0  0  0  0  0  0  0  0  0  0  0  0
  -14.9930   14.8703  -39.0261 H   0  0  0  0  0  0  0  0  0  0  0  0
  -14.3947   14.4191  -36.9047 H   0  0  0  0  0  0  0  0  0  0  0  0
  -13.2511   13.1841  -37.4342 H   0  0  0  0  0  0  0  0  0  0  0  0
  -10.2661   16.9904  -38.0929 H   0  0  0  0  0  0  0  0  0  0  0  0
   -9.0740   15.7171  -38.2124 H   0  0  0  0  0  0  0  0  0  0  0  0
  -11.5355   14.4503  -40.2014 H   0  0  0  0  0  0  0  0  0  0  0  0
  -11.0068   16.1175  -39.9545 H   0  0  0  0  0  0  0  0  0  0  0  0
   -8.3915   13.8698  -36.7168 H   0  0  0  0  0  0  0  0  0  0  0  0
   -8.7923   12.9656  -35.2711 H   0  0  0  0  0  0  0  0  0  0  0  0
  -11.3120   12.8554  -38.4827 H   0  0  0  0  0  0  0  0  0  0  0  0
   -9.6843   13.4258  -38.6835 H   0  0  0  0  0  0  0  0  0  0  0  0
  -13.4130   16.4422  -40.0682 H   0  0  0  0  0  0  0  0  0  0  0  0
  -12.3015   15.4635  -36.2210 H   0  0  0  0  0  0  0  0  0  0  0  0
  -10.0970   12.0088  -36.7454 H   0  0  0  0  0  0  0  0  0  0  0  0
  1  2  1  0  0  0  0
  1  5  1  0  0  0  0
  2  7  1  0  0  0  0
  3  4  1  0  0  0  0
  3  9  1  0  0  0  0
  4 10  1  0  0  0  0
  5 11  1  0  0  0  0
  6  9  1  0  0  0  0
  6 11  1  0  0  0  0
  7 12  1  0  0  0  0
  8 11  1  0  0  0  0
  8 12  1  0  0  0  0
  9 13  1  0  0  0  0
 10 11  1  0  0  0  0
 10 13  1  0  0  0  0
  1 14  1  0  0  0  0
  1 15  1  0  0  0  0
  2 16  1  0  0  0  0
  2 17  1  0  0  0  0
  3 18  1  0  0  0  0
  3 19  1  0  0  0  0
  4 20  1  0  0  0  0
  4 21  1  0  0  0  0
  5 22  1  0  0  0  0
  5 23  1  0  0  0  0
  6 24  1  0  0  0  0
  6 25  1  0  0  0  0
  7 26  1  0  0  0  0
  7 27  1  0  0  0  0
  8 28  1  0  0  0  0
  8 29  1  0  0  0  0
  9 30  1  0  0  0  0
 10 31  1  0  0  0  0
 12 32  1  0  0  0  0
M  END
> <id>
EN300-1153659

> <smiles>
C1CC2OC1CC32CCCCNC3

> <IUPAC Name>
7'-oxaspiro[azepane-3,2'-bicyclo[2.2.1]heptane]

> <CAS>
2138111-54-1

> <URL>
https://www.enaminestore.com/catalog/EN300-1153659

> <ROCS_ShapeQuery>
_x1247relevant_x1083L0AP1_x1305L0BP1_

> <ROCS_TanimotoCombo>
1.010 

> <ROCS_ShapeTanimoto>
0.494 

> <ROCS_ColorTanimoto>
0.517 

> <ROCS_RefTversky>
0.421 

> <ROCS_RefColorTversky>
0.702 

> <ROCS_RefTverskyCombo>
1.123 

> <ROCS_FitTversky>
1.534 

> <ROCS_FitColorTversky>
0.662 

> <ROCS_FitTverskyCombo>
2.196 

> <ROCS_ColorScore>
-6.809

> <ROCS_Overlap>
1037.258

> <ROCS_Rank>
469                 

$$$$
untitled-dbase-5492_0
  -OEChem-06232314403D

 23 25  0     1  0  0  0  0  0999 V2000
  -13.0908   16.0727  -39.3990 C   0  0  0  0  0  0  0  0  0  0  0  0
  -13.3443   14.7562  -39.4743 C   0  0  0  0  0  0  0  0  0  0  0  0
  -13.3361   15.3115  -37.2404 C   0  0  0  0  0  0  0  0  0  0  0  0
  -10.3166   15.8882  -36.7049 C   0  0  0  0  0  0  0  0  0  0  0  0
  -10.7562   13.6028  -36.8362 C   0  0  0  0  0  0  0  0  0  0  0  0
  -12.5123   16.3405  -38.0260 C   0  0  1  0  0  0  0  0  0  0  0  0
  -12.9351   14.1439  -38.1518 C   0  0  2  0  0  0  0  0  0  0  0  0
  -11.0951   15.7195  -38.0032 C   0  0  2  0  0  0  0  0  0  0  0  0
  -11.3895   14.1898  -38.0910 C   0  0  1  0  0  0  0  0  0  0  0  0
   -9.7160   14.5716  -36.4898 N   0  0  0  0  0  0  0  0  0  0  0  0
  -13.2215   16.7969  -40.1871 H   0  0  0  0  0  0  0  0  0  0  0  0
  -13.7169   14.2233  -40.3343 H   0  0  0  0  0  0  0  0  0  0  0  0
  -13.0214   15.1913  -36.2000 H   0  0  0  0  0  0  0  0  0  0  0  0
  -14.4143   15.5196  -37.2504 H   0  0  0  0  0  0  0  0  0  0  0  0
   -9.5486   16.6630  -36.7941 H   0  0  0  0  0  0  0  0  0  0  0  0
  -10.9552   16.1578  -35.8569 H   0  0  0  0  0  0  0  0  0  0  0  0
  -11.4671   13.4972  -36.0098 H   0  0  0  0  0  0  0  0  0  0  0  0
  -10.3273   12.6140  -37.0270 H   0  0  0  0  0  0  0  0  0  0  0  0
  -12.6002   17.3708  -37.6800 H   0  0  0  0  0  0  0  0  0  0  0  0
  -13.4053   13.1879  -37.9196 H   0  0  0  0  0  0  0  0  0  0  0  0
  -10.4881   16.0446  -38.8584 H   0  0  0  0  0  0  0  0  0  0  0  0
  -10.9280   13.7598  -38.9897 H   0  0  0  0  0  0  0  0  0  0  0  0
   -8.9392   14.4597  -37.1430 H   0  0  0  0  0  0  0  0  0  0  0  0
  1  2  2  0  0  0  0
  1  6  1  0  0  0  0
  2  7  1  0  0  0  0
  3  6  1  0  0  0  0
  3  7  1  0  0  0  0
  4  8  1  0  0  0  0
  4 10  1  0  0  0  0
  5  9  1  0  0  0  0
  5 10  1  0  0  0  0
  6  8  1  0  0  0  0
  7  9  1  0  0  0  0
  8  9  1  0  0  0  0
  1 11  1  0  0  0  0
  2 12  1  0  0  0  0
  3 13  1  0  0  0  0
  3 14  1  0  0  0  0
  4 15  1  0  0  0  0
  4 16  1  0  0  0  0
  5 17  1  0  0  0  0
  5 18  1  0  0  0  0
  6 19  1  0  0  0  0
  7 20  1  0  0  0  0
  8 21  1  0  0  0  0
  9 22  1  0  0  0  0
 10 23  1  0  0  0  0
M  END
> <id>
EN300-220454

> <smiles>
Cl.C1NCC2C3CC(C=C3)C12

> <MDLNUMBER>
MFCD28954349

> <IUPAC Name>
4-azatricyclo[5.2.1.0,2,6]dec-8-ene hydrochloride

> <CAS>
15997-94-1

> <URL>
https://www.enaminestore.com/catalog/EN300-220454

> <Saltdate>
Cl

> <ROCS_ShapeQuery>
_x1247relevant_x1083L0AP1_x1305L0BP1_

> <ROCS_TanimotoCombo>
1.010 

> <ROCS_ShapeTanimoto>
0.474 

> <ROCS_ColorTanimoto>
0.536 

> <ROCS_RefTversky>
0.396 

> <ROCS_RefColorTversky>
0.692 

> <ROCS_RefTverskyCombo>
1.088 

> <ROCS_FitTversky>
1.720 

> <ROCS_FitColorTversky>
0.704 

> <ROCS_FitTverskyCombo>
2.424 

> <ROCS_ColorScore>
-6.681

> <ROCS_Overlap>
971.984

> <ROCS_Rank>
470                 

$$$$
untitled-dbase-31779_0
  -OEChem-06232314403D

 23 25  0     1  0  0  0  0  0999 V2000
  -13.0908   16.0727  -39.3990 C   0  0  0  0  0  0  0  0  0  0  0  0
  -13.3443   14.7562  -39.4743 C   0  0  0  0  0  0  0  0  0  0  0  0
  -13.3361   15.3115  -37.2404 C   0  0  0  0  0  0  0  0  0  0  0  0
  -10.3166   15.8882  -36.7049 C   0  0  0  0  0  0  0  0  0  0  0  0
  -10.7562   13.6028  -36.8362 C   0  0  0  0  0  0  0  0  0  0  0  0
  -12.5123   16.3405  -38.0260 C   0  0  1  0  0  0  0  0  0  0  0  0
  -12.9351   14.1439  -38.1518 C   0  0  2  0  0  0  0  0  0  0  0  0
  -11.0951   15.7195  -38.0032 C   0  0  2  0  0  0  0  0  0  0  0  0
  -11.3895   14.1898  -38.0910 C   0  0  1  0  0  0  0  0  0  0  0  0
   -9.7160   14.5716  -36.4898 N   0  0  0  0  0  0  0  0  0  0  0  0
  -13.2215   16.7969  -40.1871 H   0  0  0  0  0  0  0  0  0  0  0  0
  -13.7169   14.2233  -40.3343 H   0  0  0  0  0  0  0  0  0  0  0  0
  -13.0214   15.1913  -36.2000 H   0  0  0  0  0  0  0  0  0  0  0  0
  -14.4143   15.5196  -37.2504 H   0  0  0  0  0  0  0  0  0  0  0  0
   -9.5486   16.6630  -36.7941 H   0  0  0  0  0  0  0  0  0  0  0  0
  -10.9552   16.1578  -35.8569 H   0  0  0  0  0  0  0  0  0  0  0  0
  -11.4671   13.4972  -36.0098 H   0  0  0  0  0  0  0  0  0  0  0  0
  -10.3273   12.6140  -37.0270 H   0  0  0  0  0  0  0  0  0  0  0  0
  -12.6002   17.3708  -37.6800 H   0  0  0  0  0  0  0  0  0  0  0  0
  -13.4053   13.1879  -37.9196 H   0  0  0  0  0  0  0  0  0  0  0  0
  -10.4881   16.0446  -38.8584 H   0  0  0  0  0  0  0  0  0  0  0  0
  -10.9280   13.7598  -38.9897 H   0  0  0  0  0  0  0  0  0  0  0  0
   -8.9392   14.4597  -37.1430 H   0  0  0  0  0  0  0  0  0  0  0  0
  1  2  2  0  0  0  0
  1  6  1  0  0  0  0
  2  7  1  0  0  0  0
  3  6  1  0  0  0  0
  3  7  1  0  0  0  0
  4  8  1  0  0  0  0
  4 10  1  0  0  0  0
  5  9  1  0  0  0  0
  5 10  1  0  0  0  0
  6  8  1  0  0  0  0
  7  9  1  0  0  0  0
  8  9  1  0  0  0  0
  1 11  1  0  0  0  0
  2 12  1  0  0  0  0
  3 13  1  0  0  0  0
  3 14  1  0  0  0  0
  4 15  1  0  0  0  0
  4 16  1  0  0  0  0
  5 17  1  0  0  0  0
  5 18  1  0  0  0  0
  6 19  1  0  0  0  0
  7 20  1  0  0  0  0
  8 21  1  0  0  0  0
  9 22  1  0  0  0  0
 10 23  1  0  0  0  0
M  END
> <id>
EN300-220455

> <smiles>
C1NCC2C3CC(C=C3)C12

> <IUPAC Name>
4-azatricyclo[5.2.1.0,2,6]dec-8-ene

> <CAS>
5263-68-3

> <URL>
https://www.enaminestore.com/catalog/EN300-220455

> <ROCS_ShapeQuery>
_x1247relevant_x1083L0AP1_x1305L0BP1_

> <ROCS_TanimotoCombo>
1.010 

> <ROCS_ShapeTanimoto>
0.474 

> <ROCS_ColorTanimoto>
0.536 

> <ROCS_RefTversky>
0.396 

> <ROCS_RefColorTversky>
0.692 

> <ROCS_RefTverskyCombo>
1.088 

> <ROCS_FitTversky>
1.720 

> <ROCS_FitColorTversky>
0.704 

> <ROCS_FitTverskyCombo>
2.424 

> <ROCS_ColorScore>
-6.681

> <ROCS_Overlap>
971.984

> <ROCS_Rank>
471                 

$$$$
untitled-dbase-29202_37
  -OEChem-06232314403D

 36 37  0     1  0  0  0  0  0999 V2000
  -11.1547   14.3938  -36.0061 C   0  0  0  0  0  0  0  0  0  0  0  0
  -11.7913   15.3529  -39.4658 C   0  0  0  0  0  0  0  0  0  0  0  0
  -14.0658   16.1196  -38.6834 C   0  0  0  0  0  0  0  0  0  0  0  0
  -13.2674   13.6285  -38.3798 C   0  0  0  0  0  0  0  0  0  0  0  0
  -11.9376   16.3927  -37.3387 C   0  0  0  0  0  0  0  0  0  0  0  0
  -12.5630   16.4555  -38.7386 C   0  0  1  0  0  0  0  0  0  0  0  0
  -11.8625   14.2491  -38.4146 C   0  0  2  0  0  0  0  0  0  0  0  0
  -14.4068   14.6173  -38.6840 C   0  0  2  0  0  0  0  0  0  0  0  0
   -9.2094   12.9281  -34.5108 C   0  0  0  0  0  0  0  0  0  0  0  0
   -9.6166   11.0709  -36.1523 C   0  0  0  0  0  0  0  0  0  0  0  0
   -8.6969   13.2672  -36.9515 C   0  0  0  0  0  0  0  0  0  0  0  0
   -9.6182   12.5836  -35.9422 C   0  0  0  0  0  0  0  0  0  0  0  0
  -11.6243   14.9810  -37.1678 N   0  0  0  0  0  0  0  0  0  0  0  0
  -10.9416   15.0030  -34.9605 O   0  0  0  0  0  0  0  0  0  0  0  0
  -10.9555   13.0477  -36.1584 O   0  0  0  0  0  0  0  0  0  0  0  0
  -15.1795   14.1535  -40.4519 Br  0  0  0  0  0  0  0  0  0  0  0  0
  -12.2392   15.0719  -40.4234 H   0  0  0  0  0  0  0  0  0  0  0  0
  -10.7530   15.6560  -39.6430 H   0  0  0  0  0  0  0  0  0  0  0  0
  -14.5162   16.5907  -37.7855 H   0  0  0  0  0  0  0  0  0  0  0  0
  -14.5613   16.6207  -39.5412 H   0  0  0  0  0  0  0  0  0  0  0  0
  -13.2935   12.7813  -39.0979 H   0  0  0  0  0  0  0  0  0  0  0  0
  -13.4480   13.1608  -37.3890 H   0  0  0  0  0  0  0  0  0  0  0  0
  -10.9958   16.9510  -37.2956 H   0  0  0  0  0  0  0  0  0  0  0  0
  -12.5976   16.7480  -36.5412 H   0  0  0  0  0  0  0  0  0  0  0  0
  -12.4114   17.4425  -39.1992 H   0  0  0  0  0  0  0  0  0  0  0  0
  -11.0953   13.4700  -38.5540 H   0  0  0  0  0  0  0  0  0  0  0  0
  -15.2517   14.4306  -37.9995 H   0  0  0  0  0  0  0  0  0  0  0  0
   -9.2094   14.0130  -34.3560 H   0  0  0  0  0  0  0  0  0  0  0  0
   -9.8833   12.4723  -33.7781 H   0  0  0  0  0  0  0  0  0  0  0  0
   -8.1892   12.5861  -34.3024 H   0  0  0  0  0  0  0  0  0  0  0  0
   -9.9093   10.8192  -37.1780 H   0  0  0  0  0  0  0  0  0  0  0  0
  -10.3464   10.5848  -35.4949 H   0  0  0  0  0  0  0  0  0  0  0  0
   -8.6307   10.6370  -35.9567 H   0  0  0  0  0  0  0  0  0  0  0  0
   -8.9899   13.0203  -37.9783 H   0  0  0  0  0  0  0  0  0  0  0  0
   -8.7137   14.3562  -36.8398 H   0  0  0  0  0  0  0  0  0  0  0  0
   -7.6638   12.9209  -36.8330 H   0  0  0  0  0  0  0  0  0  0  0  0
  1 13  1  0  0  0  0
  1 14  2  0  0  0  0
  1 15  1  0  0  0  0
  2  6  1  0  0  0  0
  2  7  1  0  0  0  0
  3  6  1  0  0  0  0
  3  8  1  0  0  0  0
  4  7  1  0  0  0  0
  4  8  1  0  0  0  0
  5  6  1  0  0  0  0
  5 13  1  0  0  0  0
  7 13  1  0  0  0  0
  8 16  1  0  0  0  0
  9 12  1  0  0  0  0
 10 12  1  0  0  0  0
 11 12  1  0  0  0  0
 12 15  1  0  0  0  0
  2 17  1  0  0  0  0
  2 18  1  0  0  0  0
  3 19  1  0  0  0  0
  3 20  1  0  0  0  0
  4 21  1  0  0  0  0
  4 22  1  0  0  0  0
  5 23  1  0  0  0  0
  5 24  1  0  0  0  0
  6 25  1  0  0  0  0
  7 26  1  0  0  0  0
  8 27  1  0  0  0  0
  9 28  1  0  0  0  0
  9 29  1  0  0  0  0
  9 30  1  0  0  0  0
 10 31  1  0  0  0  0
 10 32  1  0  0  0  0
 10 33  1  0  0  0  0
 11 34  1  0  0  0  0
 11 35  1  0  0  0  0
 11 36  1  0  0  0  0
M  END
> <id>
EN300-360217

> <smiles>
CC(C)(C)OC(=O)N1CC2CC1CC(Br)C2

> <MDLNUMBER>
MFCD30538476

> <IUPAC Name>
tert-butyl 3-bromo-6-azabicyclo[3.2.1]octane-6-carboxylate

> <CAS>
2138222-92-9

> <Purity>
95

> <URL>
https://www.enaminestore.com/catalog/EN300-360217

> <ROCS_ShapeQuery>
_x1247relevant_x1083L0AP1_x1305L0BP1_

> <ROCS_TanimotoCombo>
1.010 

> <ROCS_ShapeTanimoto>
0.457 

> <ROCS_ColorTanimoto>
0.553 

> <ROCS_RefTversky>
0.414 

> <ROCS_RefColorTversky>
0.685 

> <ROCS_RefTverskyCombo>
1.099 

> <ROCS_FitTversky>
1.300 

> <ROCS_FitColorTversky>
0.741 

> <ROCS_FitTverskyCombo>
2.041 

> <ROCS_ColorScore>
-6.593

> <ROCS_Overlap>
1020.572

> <ROCS_Rank>
472                 

$$$$
untitled-dbase-13625_0
  -OEChem-06232314403D

 20 21  0     0  0  0  0  0  0999 V2000
  -15.3292   14.0637  -40.6386 C   0  0  0  0  0  0  0  0  0  0  0  0
  -14.4787   14.4905  -39.9068 C   0  0  0  0  0  0  0  0  0  0  0  0
  -12.4545   15.9602  -39.6906 C   0  0  0  0  0  0  0  0  0  0  0  0
  -13.9824   15.6662  -37.7446 C   0  0  0  0  0  0  0  0  0  0  0  0
  -11.2729   15.9059  -38.7192 C   0  0  0  0  0  0  0  0  0  0  0  0
  -12.7510   15.6212  -36.8364 C   0  0  0  0  0  0  0  0  0  0  0  0
  -12.5079   13.9648  -38.4390 C   0  0  0  0  0  0  0  0  0  0  0  0
  -13.4474   15.0076  -39.0190 C   0  0  0  0  0  0  0  0  0  0  0  0
  -11.7078   14.9499  -37.6620 N   0  0  0  0  0  0  0  0  0  0  0  0
  -16.0837   13.6853  -41.2879 H   0  0  0  0  0  0  0  0  0  0  0  0
  -12.8538   16.9746  -39.7995 H   0  0  0  0  0  0  0  0  0  0  0  0
  -12.1513   15.6027  -40.6823 H   0  0  0  0  0  0  0  0  0  0  0  0
  -14.8054   15.0921  -37.3018 H   0  0  0  0  0  0  0  0  0  0  0  0
  -14.3323   16.6901  -37.9161 H   0  0  0  0  0  0  0  0  0  0  0  0
  -10.3801   15.5165  -39.2227 H   0  0  0  0  0  0  0  0  0  0  0  0
  -11.0153   16.8901  -38.3127 H   0  0  0  0  0  0  0  0  0  0  0  0
  -12.4402   16.6157  -36.4975 H   0  0  0  0  0  0  0  0  0  0  0  0
  -12.9556   15.0205  -35.9423 H   0  0  0  0  0  0  0  0  0  0  0  0
  -12.9955   13.2224  -37.7949 H   0  0  0  0  0  0  0  0  0  0  0  0
  -11.9043   13.4325  -39.1848 H   0  0  0  0  0  0  0  0  0  0  0  0
  1  2  3  0  0  0  0
  2  8  1  0  0  0  0
  3  5  1  0  0  0  0
  3  8  1  0  0  0  0
  4  6  1  0  0  0  0
  4  8  1  0  0  0  0
  5  9  1  0  0  0  0
  6  9  1  0  0  0  0
  7  8  1  0  0  0  0
  7  9  1  0  0  0  0
  1 10  1  0  0  0  0
  3 11  1  0  0  0  0
  3 12  1  0  0  0  0
  4 13  1  0  0  0  0
  4 14  1  0  0  0  0
  5 15  1  0  0  0  0
  5 16  1  0  0  0  0
  6 17  1  0  0  0  0
  6 18  1  0  0  0  0
  7 19  1  0  0  0  0
  7 20  1  0  0  0  0
M  END
> <id>
EN300-787679

> <smiles>
C#CC1(CCN2CC1)C2

> <MDLNUMBER>
MFCD31463890

> <IUPAC Name>
4-ethynyl-1-azabicyclo[2.2.1]heptane

> <CAS>
2138433-13-1

> <URL>
https://www.enaminestore.com/catalog/EN300-787679

> <ROCS_ShapeQuery>
_x1247relevant_x1083L0AP1_x1305L0BP1_

> <ROCS_TanimotoCombo>
1.010 

> <ROCS_ShapeTanimoto>
0.406 

> <ROCS_ColorTanimoto>
0.603 

> <ROCS_RefTversky>
0.349 

> <ROCS_RefColorTversky>
0.708 

> <ROCS_RefTverskyCombo>
1.057 

> <ROCS_FitTversky>
1.684 

> <ROCS_FitColorTversky>
0.803 

> <ROCS_FitTverskyCombo>
2.487 

> <ROCS_ColorScore>
-6.797

> <ROCS_Overlap>
855.619

> <ROCS_Rank>
473                 

$$$$
untitled-dbase-45629_17
  -OEChem-06232314403D

 38 40  0     1  0  0  0  0  0999 V2000
  -11.1319   13.9830  -36.1120 C   0  0  0  0  0  0  0  0  0  0  0  0
   -9.7529   13.9371  -35.9645 C   0  0  0  0  0  0  0  0  0  0  0  0
  -11.6893   14.7230  -37.1569 C   0  0  0  0  0  0  0  0  0  0  0  0
  -10.8272   15.3911  -38.0525 C   0  0  0  0  0  0  0  0  0  0  0  0
   -8.9807   14.6301  -36.8800 C   0  0  0  0  0  0  0  0  0  0  0  0
  -10.6545   16.7288  -40.1381 C   0  0  0  0  0  0  0  0  0  0  0  0
  -13.4372   14.7452  -39.7111 C   0  0  0  0  0  0  0  0  0  0  0  0
  -13.4877   13.8553  -38.4522 C   0  0  0  0  0  0  0  0  0  0  0  0
  -13.4797   16.1131  -37.7701 C   0  0  0  0  0  0  0  0  0  0  0  0
  -12.9252   16.1042  -39.1934 C   0  0  1  0  0  0  0  0  0  0  0  0
  -11.6946   16.2291  -42.4986 C   0  0  0  0  0  0  0  0  0  0  0  0
  -12.8154   18.4759  -42.4299 C   0  0  0  0  0  0  0  0  0  0  0  0
  -10.3451   18.3232  -42.8571 C   0  0  0  0  0  0  0  0  0  0  0  0
  -11.5344   17.7022  -42.1258 C   0  0  0  0  0  0  0  0  0  0  0  0
   -9.4808   15.3471  -37.9127 N   0  0  0  0  0  0  0  0  0  0  0  0
  -13.0999   14.7600  -37.3459 N   0  0  2  0  0  0  0  0  0  0  0  0
  -11.4347   16.1139  -39.1481 N   0  0  0  0  0  0  0  0  0  0  0  0
   -9.5269   16.3777  -40.4787 O   0  0  0  0  0  0  0  0  0  0  0  0
  -11.3002   17.7926  -40.7155 O   0  0  0  0  0  0  0  0  0  0  0  0
   -7.2675   14.6273  -36.7749 Cl  0  0  0  0  0  0  0  0  0  0  0  0
  -11.7677   13.4454  -35.4140 H   0  0  0  0  0  0  0  0  0  0  0  0
   -9.3079   13.3700  -35.1540 H   0  0  0  0  0  0  0  0  0  0  0  0
  -12.7961   14.3257  -40.4931 H   0  0  0  0  0  0  0  0  0  0  0  0
  -14.4461   14.8576  -40.1250 H   0  0  0  0  0  0  0  0  0  0  0  0
  -14.5108   13.4992  -38.2867 H   0  0  0  0  0  0  0  0  0  0  0  0
  -12.8404   12.9744  -38.5416 H   0  0  0  0  0  0  0  0  0  0  0  0
  -13.0678   16.9076  -37.1354 H   0  0  0  0  0  0  0  0  0  0  0  0
  -14.5722   16.2134  -37.7673 H   0  0  0  0  0  0  0  0  0  0  0  0
  -13.3047   16.9384  -39.7893 H   0  0  0  0  0  0  0  0  0  0  0  0
  -10.7771   15.6703  -42.2818 H   0  0  0  0  0  0  0  0  0  0  0  0
  -12.5225   15.7630  -41.9545 H   0  0  0  0  0  0  0  0  0  0  0  0
  -11.8791   16.1155  -43.5730 H   0  0  0  0  0  0  0  0  0  0  0  0
  -12.7050   19.5334  -42.1639 H   0  0  0  0  0  0  0  0  0  0  0  0
  -13.6528   18.0938  -41.8349 H   0  0  0  0  0  0  0  0  0  0  0  0
  -13.0847   18.4112  -43.4891 H   0  0  0  0  0  0  0  0  0  0  0  0
  -10.2300   19.3799  -42.5898 H   0  0  0  0  0  0  0  0  0  0  0  0
   -9.4108   17.8034  -42.6217 H   0  0  0  0  0  0  0  0  0  0  0  0
  -10.4963   18.2935  -43.9422 H   0  0  0  0  0  0  0  0  0  0  0  0
  1  2  1  0  0  0  0
  1  3  2  0  0  0  0
  2  5  2  0  0  0  0
  3  4  1  0  0  0  0
  3 16  1  0  0  0  0
  4 15  2  0  0  0  0
  4 17  1  0  0  0  0
  5 15  1  0  0  0  0
  5 20  1  0  0  0  0
  6 17  1  0  0  0  0
  6 18  2  0  0  0  0
  6 19  1  0  0  0  0
  7  8  1  0  0  0  0
  7 10  1  0  0  0  0
  8 16  1  0  0  0  0
  9 10  1  0  0  0  0
  9 16  1  0  0  0  0
 10 17  1  0  0  0  0
 11 14  1  0  0  0  0
 12 14  1  0  0  0  0
 13 14  1  0  0  0  0
 14 19  1  0  0  0  0
  1 21  1  0  0  0  0
  2 22  1  0  0  0  0
  7 23  1  0  0  0  0
  7 24  1  0  0  0  0
  8 25  1  0  0  0  0
  8 26  1  0  0  0  0
  9 27  1  0  0  0  0
  9 28  1  0  0  0  0
 10 29  1  0  0  0  0
 11 30  1  0  0  0  0
 11 31  1  0  0  0  0
 11 32  1  0  0  0  0
 12 33  1  0  0  0  0
 12 34  1  0  0  0  0
 12 35  1  0  0  0  0
 13 36  1  0  0  0  0
 13 37  1  0  0  0  0
 13 38  1  0  0  0  0
M  END
> <id>
EN300-28289410

> <smiles>
CC(C)(C)OC(=O)N1C2CCN(C2)C=3C=CC(Cl)=NC13

> <IUPAC Name>
tert-butyl 5-chloro-1,6,8-triazatricyclo[7.2.1.0,2,7]dodeca-2,4,6-triene-8-carboxylate

> <CAS>
2680873-18-9

> <URL>
https://www.enaminestore.com/catalog/EN300-28289410

> <ROCS_ShapeQuery>
_x1247relevant_x1083L0AP1_x1305L0BP1_

> <ROCS_TanimotoCombo>
1.010 

> <ROCS_ShapeTanimoto>
0.499 

> <ROCS_ColorTanimoto>
0.511 

> <ROCS_RefTversky>
0.467 

> <ROCS_RefColorTversky>
0.683 

> <ROCS_RefTverskyCombo>
1.150 

> <ROCS_FitTversky>
1.158 

> <ROCS_FitColorTversky>
0.670 

> <ROCS_FitTverskyCombo>
1.827 

> <ROCS_ColorScore>
-6.606

> <ROCS_Overlap>
1158.301

> <ROCS_Rank>
474                 

$$$$
untitled-dbase-47075_0
  -OEChem-06232314403D

 34 35  0     1  0  0  0  0  0999 V2000
  -13.8075   14.1360  -38.0037 C   0  0  0  0  0  0  0  0  0  0  0  0
  -13.8613   15.4883  -37.2731 C   0  0  0  0  0  0  0  0  0  0  0  0
  -11.3980   14.1590  -38.8361 C   0  0  0  0  0  0  0  0  0  0  0  0
  -11.4830   16.3175  -37.6691 C   0  0  0  0  0  0  0  0  0  0  0  0
  -12.8803   14.3737  -39.2124 C   0  0  2  0  0  0  0  0  0  0  0  0
  -12.9611   16.4248  -38.1031 C   0  0  1  0  0  0  0  0  0  0  0  0
  -13.0941   15.8560  -39.5154 C   0  0  0  0  0  0  0  0  0  0  0  0
   -8.8249   15.4243  -38.6109 C   0  0  0  0  0  0  0  0  0  0  0  0
   -9.2321   15.6658  -36.1483 C   0  0  0  0  0  0  0  0  0  0  0  0
   -9.1675   13.3874  -37.1937 C   0  0  0  0  0  0  0  0  0  0  0  0
   -9.5720   14.8515  -37.4010 C   0  0  0  0  0  0  0  0  0  0  0  0
  -11.0088   14.9253  -37.6423 N   0  0  0  0  0  0  0  0  0  0  0  0
  -14.3928   16.0767  -40.0452 O   0  0  0  0  0  0  0  0  0  0  0  0
  -13.4533   13.3299  -37.3529 H   0  0  0  0  0  0  0  0  0  0  0  0
  -14.8139   13.8641  -38.3433 H   0  0  0  0  0  0  0  0  0  0  0  0
  -14.8931   15.8593  -37.2673 H   0  0  0  0  0  0  0  0  0  0  0  0
  -13.5369   15.4060  -36.2305 H   0  0  0  0  0  0  0  0  0  0  0  0
  -11.2346   13.0915  -38.6438 H   0  0  0  0  0  0  0  0  0  0  0  0
  -10.7717   14.4359  -39.6942 H   0  0  0  0  0  0  0  0  0  0  0  0
  -10.8695   16.9214  -38.3508 H   0  0  0  0  0  0  0  0  0  0  0  0
  -11.3783   16.7494  -36.6664 H   0  0  0  0  0  0  0  0  0  0  0  0
  -13.1637   13.7285  -40.0504 H   0  0  0  0  0  0  0  0  0  0  0  0
  -13.3098   17.4602  -38.0318 H   0  0  0  0  0  0  0  0  0  0  0  0
  -12.3585   16.2589  -40.2195 H   0  0  0  0  0  0  0  0  0  0  0  0
   -9.0520   14.8577  -39.5214 H   0  0  0  0  0  0  0  0  0  0  0  0
   -9.0972   16.4705  -38.7891 H   0  0  0  0  0  0  0  0  0  0  0  0
   -7.7396   15.3783  -38.4630 H   0  0  0  0  0  0  0  0  0  0  0  0
   -9.7556   15.2744  -35.2682 H   0  0  0  0  0  0  0  0  0  0  0  0
   -9.5328   16.7136  -36.2642 H   0  0  0  0  0  0  0  0  0  0  0  0
   -8.1570   15.6447  -35.9382 H   0  0  0  0  0  0  0  0  0  0  0  0
   -9.6881   12.9518  -36.3330 H   0  0  0  0  0  0  0  0  0  0  0  0
   -9.4040   12.7797  -38.0742 H   0  0  0  0  0  0  0  0  0  0  0  0
   -8.0921   13.2971  -37.0015 H   0  0  0  0  0  0  0  0  0  0  0  0
  -14.4688   17.0297  -40.2165 H   0  0  0  0  0  0  0  0  0  0  0  0
  1  2  1  0  0  0  0
  1  5  1  0  0  0  0
  2  6  1  0  0  0  0
  3  5  1  0  0  0  0
  3 12  1  0  0  0  0
  4  6  1  0  0  0  0
  4 12  1  0  0  0  0
  5  7  1  0  0  0  0
  6  7  1  0  0  0  0
  7 13  1  0  0  0  0
  8 11  1  0  0  0  0
  9 11  1  0  0  0  0
 10 11  1  0  0  0  0
 11 12  1  0  0  0  0
  1 14  1  0  0  0  0
  1 15  1  0  0  0  0
  2 16  1  0  0  0  0
  2 17  1  0  0  0  0
  3 18  1  0  0  0  0
  3 19  1  0  0  0  0
  4 20  1  0  0  0  0
  4 21  1  0  0  0  0
  5 22  1  0  0  0  0
  6 23  1  0  0  0  0
  7 24  1  0  0  0  0
  8 25  1  0  0  0  0
  8 26  1  0  0  0  0
  8 27  1  0  0  0  0
  9 28  1  0  0  0  0
  9 29  1  0  0  0  0
  9 30  1  0  0  0  0
 10 31  1  0  0  0  0
 10 32  1  0  0  0  0
 10 33  1  0  0  0  0
 13 34  1  0  0  0  0
M  END
> <id>
EN300-88583

> <smiles>
CC(C)(C)N1CC2CCC(C1)C2O

> <MDLNUMBER>
MFCD13806432

> <IUPAC Name>
3-tert-butyl-3-azabicyclo[3.2.1]octan-8-ol

> <CAS>
1171483-76-3

> <URL>
https://www.enaminestore.com/catalog/EN300-88583

> <ROCS_ShapeQuery>
_x1247relevant_x1083L0AP1_x1305L0BP1_

> <ROCS_TanimotoCombo>
1.009 

> <ROCS_ShapeTanimoto>
0.493 

> <ROCS_ColorTanimoto>
0.516 

> <ROCS_RefTversky>
0.419 

> <ROCS_RefColorTversky>
0.686 

> <ROCS_RefTverskyCombo>
1.105 

> <ROCS_FitTversky>
1.554 

> <ROCS_FitColorTversky>
0.676 

> <ROCS_FitTverskyCombo>
2.231 

> <ROCS_ColorScore>
-6.632

> <ROCS_Overlap>
1032.465

> <ROCS_Rank>
475                 

$$$$
untitled-dbase-13514_3
  -OEChem-06232314403D

 33 35  0     1  0  0  0  0  0999 V2000
  -11.0803   14.4744  -36.1962 C   0  0  0  0  0  0  0  0  0  0  0  0
   -9.7615   13.9094  -35.7522 C   0  0  0  0  0  0  0  0  0  0  0  0
  -13.8551   14.0697  -38.1001 C   0  0  0  0  0  0  0  0  0  0  0  0
  -14.1226   15.4663  -37.5025 C   0  0  0  0  0  0  0  0  0  0  0  0
  -11.3718   14.1456  -38.6901 C   0  0  0  0  0  0  0  0  0  0  0  0
  -11.7771   16.5096  -37.6099 C   0  0  0  0  0  0  0  0  0  0  0  0
   -8.9011   14.1664  -36.9726 C   0  0  0  0  0  0  0  0  0  0  0  0
  -12.8131   14.2147  -39.2209 C   0  0  2  0  0  0  0  0  0  0  0  0
  -13.1994   16.4716  -38.2015 C   0  0  1  0  0  0  0  0  0  0  0  0
  -10.9788   15.1690  -37.5702 C   0  0  0  0  0  0  0  0  0  0  0  0
   -8.9672   16.5711  -37.0260 C   0  0  0  0  0  0  0  0  0  0  0  0
   -9.4845   15.3449  -37.6445 N   0  0  1  0  0  0  0  0  0  0  0  0
  -12.0884   14.3844  -35.5086 O   0  0  0  0  0  0  0  0  0  0  0  0
  -11.9506   16.3544  -40.5580 O   0  0  0  0  0  0  0  0  0  0  0  0
  -14.4359   15.8881  -40.4700 O   0  0  0  0  0  0  0  0  0  0  0  0
  -13.1179   15.8458  -39.8714 S   0  0  0  0  0  0  0  0  0  0  0  0
   -9.3862   14.4321  -34.8697 H   0  0  0  0  0  0  0  0  0  0  0  0
   -9.8815   12.8396  -35.5565 H   0  0  0  0  0  0  0  0  0  0  0  0
  -13.5607   13.3349  -37.3470 H   0  0  0  0  0  0  0  0  0  0  0  0
  -14.7934   13.6967  -38.5309 H   0  0  0  0  0  0  0  0  0  0  0  0
  -15.1672   15.7316  -37.7080 H   0  0  0  0  0  0  0  0  0  0  0  0
  -14.0147   15.4864  -36.4153 H   0  0  0  0  0  0  0  0  0  0  0  0
  -11.1756   13.1237  -38.3401 H   0  0  0  0  0  0  0  0  0  0  0  0
  -10.7132   14.2848  -39.5566 H   0  0  0  0  0  0  0  0  0  0  0  0
  -11.2318   17.2620  -38.1976 H   0  0  0  0  0  0  0  0  0  0  0  0
  -11.8382   16.9415  -36.5963 H   0  0  0  0  0  0  0  0  0  0  0  0
   -7.8534   14.3596  -36.6727 H   0  0  0  0  0  0  0  0  0  0  0  0
   -8.8897   13.2844  -37.6371 H   0  0  0  0  0  0  0  0  0  0  0  0
  -12.9678   13.4783  -40.0123 H   0  0  0  0  0  0  0  0  0  0  0  0
  -13.6367   17.4742  -38.2237 H   0  0  0  0  0  0  0  0  0  0  0  0
   -9.4030   17.4476  -37.5279 H   0  0  0  0  0  0  0  0  0  0  0  0
   -9.2384   16.5866  -35.9601 H   0  0  0  0  0  0  0  0  0  0  0  0
   -7.8721   16.5983  -37.1261 H   0  0  0  0  0  0  0  0  0  0  0  0
  1  2  1  0  0  0  0
  1 10  1  0  0  0  0
  1 13  2  0  0  0  0
  2  7  1  0  0  0  0
  3  4  1  0  0  0  0
  3  8  1  0  0  0  0
  4  9  1  0  0  0  0
  5  8  1  0  0  0  0
  5 10  1  0  0  0  0
  6  9  1  0  0  0  0
  6 10  1  0  0  0  0
  7 12  1  0  0  0  0
  8 16  1  0  0  0  0
  9 16  1  0  0  0  0
 10 12  1  0  0  0  0
 11 12  1  0  0  0  0
 14 16  2  0  0  0  0
 15 16  2  0  0  0  0
  2 17  1  0  0  0  0
  2 18  1  0  0  0  0
  3 19  1  0  0  0  0
  3 20  1  0  0  0  0
  4 21  1  0  0  0  0
  4 22  1  0  0  0  0
  5 23  1  0  0  0  0
  5 24  1  0  0  0  0
  6 25  1  0  0  0  0
  6 26  1  0  0  0  0
  7 27  1  0  0  0  0
  7 28  1  0  0  0  0
  8 29  1  0  0  0  0
  9 30  1  0  0  0  0
 11 31  1  0  0  0  0
 11 32  1  0  0  0  0
 11 33  1  0  0  0  0
M  END
> <id>
EN300-785441

> <smiles>
CN1CCC(=O)C21CC3CCC(C2)S3(=O)=O

> <IUPAC Name>
1'-methyl-8lambda6-thiaspiro[bicyclo[3.2.1]octane-3,2'-pyrrolidine]-3',8,8-trione

> <CAS>
2138280-60-9

> <URL>
https://www.enaminestore.com/catalog/EN300-785441

> <ROCS_ShapeQuery>
_x1247relevant_x1083L0AP1_x1305L0BP1_

> <ROCS_TanimotoCombo>
1.009 

> <ROCS_ShapeTanimoto>
0.539 

> <ROCS_ColorTanimoto>
0.470 

> <ROCS_RefTversky>
0.463 

> <ROCS_RefColorTversky>
0.669 

> <ROCS_RefTverskyCombo>
1.131 

> <ROCS_FitTversky>
1.442 

> <ROCS_FitColorTversky>
0.613 

> <ROCS_FitTverskyCombo>
2.055 

> <ROCS_ColorScore>
-6.498

> <ROCS_Overlap>
1141.779

> <ROCS_Rank>
476                 

$$$$
untitled-dbase-20187_0
  -OEChem-06232314403D

 18 20  0     1  0  0  0  0  0999 V2000
   -9.7702   14.0100  -36.0822 C   0  0  0  0  0  0  0  0  0  0  0  0
   -9.0411   14.8266  -36.9457 C   0  0  0  0  0  0  0  0  0  0  0  0
  -11.1563   13.8923  -36.2266 C   0  0  0  0  0  0  0  0  0  0  0  0
   -9.6948   15.5247  -37.9562 C   0  0  0  0  0  0  0  0  0  0  0  0
  -11.8407   14.5865  -37.2337 C   0  0  0  0  0  0  0  0  0  0  0  0
  -11.0784   15.3949  -38.0852 C   0  0  0  0  0  0  0  0  0  0  0  0
  -13.0590   16.0896  -39.4311 C   0  0  0  0  0  0  0  0  0  0  0  0
  -13.3183   14.4937  -37.4083 C   0  0  1  0  0  0  0  0  0  0  0  0
  -13.9185   15.3432  -38.4925 C   0  0  2  0  0  0  0  0  0  0  0  0
  -13.5355   16.6657  -40.4010 O   0  0  0  0  0  0  0  0  0  0  0  0
  -11.6857   16.1144  -39.1474 O   0  0  0  0  0  0  0  0  0  0  0  0
  -13.8154   13.9196  -38.6287 O   0  0  0  0  0  0  0  0  0  0  0  0
   -9.2609   13.4644  -35.2929 H   0  0  0  0  0  0  0  0  0  0  0  0
   -7.9650   14.9159  -36.8304 H   0  0  0  0  0  0  0  0  0  0  0  0
  -11.7061   13.2517  -35.5407 H   0  0  0  0  0  0  0  0  0  0  0  0
   -9.1301   16.1571  -38.6346 H   0  0  0  0  0  0  0  0  0  0  0  0
  -13.9242   14.3412  -36.5205 H   0  0  0  0  0  0  0  0  0  0  0  0
  -14.9034   15.7574  -38.3116 H   0  0  0  0  0  0  0  0  0  0  0  0
  1  2  2  0  0  0  0
  1  3  1  0  0  0  0
  2  4  1  0  0  0  0
  3  5  2  0  0  0  0
  4  6  2  0  0  0  0
  5  6  1  0  0  0  0
  5  8  1  0  0  0  0
  6 11  1  0  0  0  0
  7  9  1  0  0  0  0
  7 10  2  0  0  0  0
  7 11  1  0  0  0  0
  8  9  1  0  0  0  0
  8 12  1  0  0  0  0
  9 12  1  0  0  0  0
  1 13  1  0  0  0  0
  2 14  1  0  0  0  0
  3 15  1  0  0  0  0
  4 16  1  0  0  0  0
  8 17  1  0  0  0  0
  9 18  1  0  0  0  0
M  END
> <id>
EN300-22980934

> <smiles>
O=C1OC=2C=CC=CC2C3OC31

> <MDLNUMBER>
MFCD31726037

> <IUPAC Name>
3,6-dioxatricyclo[5.4.0.0,2,4]undeca-1(11),7,9-trien-5-one

> <CAS>
143873-69-2

> <Purity>
95

> <URL>
https://www.enaminestore.com/catalog/EN300-22980934

> <ROCS_ShapeQuery>
_x1247relevant_x1083L0AP1_x1305L0BP1_

> <ROCS_TanimotoCombo>
1.009 

> <ROCS_ShapeTanimoto>
0.519 

> <ROCS_ColorTanimoto>
0.490 

> <ROCS_RefTversky>
0.433 

> <ROCS_RefColorTversky>
0.571 

> <ROCS_RefTverskyCombo>
1.003 

> <ROCS_FitTversky>
1.623 

> <ROCS_FitColorTversky>
0.777 

> <ROCS_FitTverskyCombo>
2.400 

> <ROCS_ColorScore>
-5.434

> <ROCS_Overlap>
1064.943

> <ROCS_Rank>
477                 

$$$$
untitled-dbase-40861_0
  -OEChem-06232314403D

 24 25  0     1  0  0  0  0  0999 V2000
  -11.3456   14.3986  -37.7791 C   0  0  0  0  0  0  0  0  0  0  0  0
  -11.0942   15.6782  -38.5903 C   0  0  0  0  0  0  0  0  0  0  0  0
  -13.0905   15.9377  -37.3292 C   0  0  0  0  0  0  0  0  0  0  0  0
  -12.8635   14.4366  -37.5293 C   0  0  1  0  0  0  0  0  0  0  0  0
  -12.4977   16.3026  -38.6933 C   0  0  2  0  0  0  0  0  0  0  0  0
  -13.6711   14.1946  -38.8283 C   0  0  1  0  0  0  0  0  0  0  0  0
  -13.3353   15.4473  -39.6719 C   0  0  1  0  0  0  0  0  0  0  0  0
  -13.3867   12.8860  -39.5497 C   0  0  0  0  0  0  0  0  0  0  0  0
  -14.5490   16.1413  -40.0979 N   0  0  0  0  0  0  0  0  0  0  0  0
  -14.1470   12.7875  -40.6533 F   0  0  0  0  0  0  0  0  0  0  0  0
  -12.0940   12.8249  -39.9116 F   0  0  0  0  0  0  0  0  0  0  0  0
  -13.6579   11.8431  -38.7469 F   0  0  0  0  0  0  0  0  0  0  0  0
  -11.0094   13.5003  -38.3026 H   0  0  0  0  0  0  0  0  0  0  0  0
  -10.8002   14.4500  -36.8293 H   0  0  0  0  0  0  0  0  0  0  0  0
  -10.4117   16.3408  -38.0458 H   0  0  0  0  0  0  0  0  0  0  0  0
  -10.6529   15.4664  -39.5694 H   0  0  0  0  0  0  0  0  0  0  0  0
  -14.1452   16.2080  -37.2185 H   0  0  0  0  0  0  0  0  0  0  0  0
  -12.5223   16.3508  -36.4887 H   0  0  0  0  0  0  0  0  0  0  0  0
  -13.1833   13.8070  -36.6959 H   0  0  0  0  0  0  0  0  0  0  0  0
  -12.4746   17.3696  -38.9275 H   0  0  0  0  0  0  0  0  0  0  0  0
  -14.7369   14.1897  -38.5571 H   0  0  0  0  0  0  0  0  0  0  0  0
  -12.7553   15.2007  -40.5682 H   0  0  0  0  0  0  0  0  0  0  0  0
  -14.2809   16.9641  -40.5831 H   0  0  0  0  0  0  0  0  0  0  0  0
  -15.0599   15.5332  -40.6925 H   0  0  0  0  0  0  0  0  0  0  0  0
  1  2  1  0  0  0  0
  1  4  1  0  0  0  0
  2  5  1  0  0  0  0
  3  4  1  0  0  0  0
  3  5  1  0  0  0  0
  4  6  1  0  0  0  0
  5  7  1  0  0  0  0
  6  7  1  0  0  0  0
  6  8  1  0  0  0  0
  7  9  1  0  0  0  0
  8 10  1  0  0  0  0
  8 11  1  0  0  0  0
  8 12  1  0  0  0  0
  1 13  1  0  0  0  0
  1 14  1  0  0  0  0
  2 15  1  0  0  0  0
  2 16  1  0  0  0  0
  3 17  1  0  0  0  0
  3 18  1  0  0  0  0
  4 19  1  0  0  0  0
  5 20  1  0  0  0  0
  6 21  1  0  0  0  0
  7 22  1  0  0  0  0
  9 23  1  0  0  0  0
  9 24  1  0  0  0  0
M  END
> <id>
EN300-392766

> <smiles>
NC1C(C2CCC1C2)C(F)(F)F

> <MDLNUMBER>
MFCD00465418

> <IUPAC Name>
3-(trifluoromethyl)bicyclo[2.2.1]heptan-2-amine

> <CAS>
2138273-91-1

> <Purity>
95

> <URL>
https://www.enaminestore.com/catalog/EN300-392766

> <ROCS_ShapeQuery>
_x1247relevant_x1083L0AP1_x1305L0BP1_

> <ROCS_TanimotoCombo>
1.009 

> <ROCS_ShapeTanimoto>
0.402 

> <ROCS_ColorTanimoto>
0.607 

> <ROCS_RefTversky>
0.361 

> <ROCS_RefColorTversky>
0.707 

> <ROCS_RefTverskyCombo>
1.069 

> <ROCS_FitTversky>
1.387 

> <ROCS_FitColorTversky>
0.811 

> <ROCS_FitTverskyCombo>
2.198 

> <ROCS_ColorScore>
-6.786

> <ROCS_Overlap>
889.256

> <ROCS_Rank>
478                 

$$$$
untitled-dbase-45240_0
  -OEChem-06232314403D

 26 27  0     1  0  0  0  0  0999 V2000
  -11.1116   15.1371  -37.7404 C   0  0  0  0  0  0  0  0  0  0  0  0
  -11.4686   14.1055  -38.7933 C   0  0  0  0  0  0  0  0  0  0  0  0
  -13.4075   15.2017  -36.8731 C   0  0  0  0  0  0  0  0  0  0  0  0
  -13.8041   14.1751  -37.9459 C   0  0  0  0  0  0  0  0  0  0  0  0
  -12.6384   16.8234  -38.6506 C   0  0  0  0  0  0  0  0  0  0  0  0
  -12.2481   16.0748  -37.3666 C   0  0  2  0  0  0  0  0  0  0  0  0
  -12.9338   14.3660  -39.2118 C   0  0  1  0  0  0  0  0  0  0  0  0
  -13.0991   15.8249  -39.7509 C   0  0  2  0  0  0  0  0  0  0  0  0
  -12.2970   16.0459  -41.0449 C   0  0  0  0  0  0  0  0  0  0  0  0
  -14.4992   16.1017  -40.1083 N   0  0  0  0  0  0  0  0  0  0  0  0
   -9.9968   15.2043  -37.2319 O   0  0  0  0  0  0  0  0  0  0  0  0
  -10.7810   14.1940  -39.6378 H   0  0  0  0  0  0  0  0  0  0  0  0
  -11.3634   13.1074  -38.3555 H   0  0  0  0  0  0  0  0  0  0  0  0
  -14.2713   15.8285  -36.6213 H   0  0  0  0  0  0  0  0  0  0  0  0
  -13.1202   14.6739  -35.9554 H   0  0  0  0  0  0  0  0  0  0  0  0
  -13.6641   13.1613  -37.5495 H   0  0  0  0  0  0  0  0  0  0  0  0
  -14.8722   14.2570  -38.1744 H   0  0  0  0  0  0  0  0  0  0  0  0
  -13.4272   17.5497  -38.4146 H   0  0  0  0  0  0  0  0  0  0  0  0
  -11.7822   17.4146  -39.0008 H   0  0  0  0  0  0  0  0  0  0  0  0
  -11.9188   16.7715  -36.5896 H   0  0  0  0  0  0  0  0  0  0  0  0
  -13.2311   13.6344  -39.9729 H   0  0  0  0  0  0  0  0  0  0  0  0
  -12.6325   15.3413  -41.7988 H   0  0  0  0  0  0  0  0  0  0  0  0
  -11.2423   15.8905  -40.8432 H   0  0  0  0  0  0  0  0  0  0  0  0
  -12.4564   17.0602  -41.3960 H   0  0  0  0  0  0  0  0  0  0  0  0
  -15.0449   15.9904  -39.2909 H   0  0  0  0  0  0  0  0  0  0  0  0
  -14.5438   17.0306  -40.4456 H   0  0  0  0  0  0  0  0  0  0  0  0
  1  2  1  0  0  0  0
  1  6  1  0  0  0  0
  1 11  2  0  0  0  0
  2  7  1  0  0  0  0
  3  4  1  0  0  0  0
  3  6  1  0  0  0  0
  4  7  1  0  0  0  0
  5  6  1  0  0  0  0
  5  8  1  0  0  0  0
  7  8  1  0  0  0  0
  8  9  1  0  0  0  0
  8 10  1  0  0  0  0
  2 12  1  0  0  0  0
  2 13  1  0  0  0  0
  3 14  1  0  0  0  0
  3 15  1  0  0  0  0
  4 16  1  0  0  0  0
  4 17  1  0  0  0  0
  5 18  1  0  0  0  0
  5 19  1  0  0  0  0
  6 20  1  0  0  0  0
  7 21  1  0  0  0  0
  9 22  1  0  0  0  0
  9 23  1  0  0  0  0
  9 24  1  0  0  0  0
 10 25  1  0  0  0  0
 10 26  1  0  0  0  0
M  END
> <id>
EN300-28228511

> <smiles>
CC1(N)CC2CCC1CC2=O

> <IUPAC Name>
5-amino-5-methylbicyclo[2.2.2]octan-2-one

> <CAS>
2680781-52-4

> <URL>
https://www.enaminestore.com/catalog/EN300-28228511

> <ROCS_ShapeQuery>
_x1247relevant_x1083L0AP1_x1305L0BP1_

> <ROCS_TanimotoCombo>
1.009 

> <ROCS_ShapeTanimoto>
0.457 

> <ROCS_ColorTanimoto>
0.552 

> <ROCS_RefTversky>
0.388 

> <ROCS_RefColorTversky>
0.689 

> <ROCS_RefTverskyCombo>
1.077 

> <ROCS_FitTversky>
1.640 

> <ROCS_FitColorTversky>
0.735 

> <ROCS_FitTverskyCombo>
2.375 

> <ROCS_ColorScore>
-6.634

> <ROCS_Overlap>
953.380

> <ROCS_Rank>
479                 

$$$$
untitled-dbase-36594_4
  -OEChem-06232314403D

 27 29  0     1  0  0  0  0  0999 V2000
  -12.8484   16.0612  -39.6308 C   0  0  0  0  0  0  0  0  0  0  0  0
  -13.0184   14.5267  -39.6305 C   0  0  0  0  0  0  0  0  0  0  0  0
  -13.5978   15.4311  -37.4983 C   0  0  0  0  0  0  0  0  0  0  0  0
   -9.6008   13.7625  -36.5338 C   0  0  0  0  0  0  0  0  0  0  0  0
  -10.6319   13.3551  -37.6121 C   0  0  0  0  0  0  0  0  0  0  0  0
  -10.4060   16.0885  -36.6081 C   0  0  0  0  0  0  0  0  0  0  0  0
  -12.5615   16.3627  -38.1415 C   0  0  1  0  0  0  0  0  0  0  0  0
  -12.9993   14.1690  -38.1335 C   0  0  2  0  0  0  0  0  0  0  0  0
  -11.2206   15.6809  -37.8214 C   0  0  2  0  0  0  0  0  0  0  0  0
   -9.2344   15.1929  -36.5399 N   0  0  0  0  0  0  0  0  0  0  0  0
  -11.6881   14.3250  -37.5324 N   0  0  2  0  0  0  0  0  0  0  0  0
  -12.0408   16.3856  -40.2915 H   0  0  0  0  0  0  0  0  0  0  0  0
  -13.7760   16.5432  -39.9546 H   0  0  0  0  0  0  0  0  0  0  0  0
  -13.9794   14.2568  -40.0867 H   0  0  0  0  0  0  0  0  0  0  0  0
  -12.2249   14.0263  -40.1984 H   0  0  0  0  0  0  0  0  0  0  0  0
  -13.5733   15.4346  -36.4052 H   0  0  0  0  0  0  0  0  0  0  0  0
  -14.6208   15.6354  -37.8321 H   0  0  0  0  0  0  0  0  0  0  0  0
   -9.9985   13.4977  -35.5498 H   0  0  0  0  0  0  0  0  0  0  0  0
   -8.6833   13.1832  -36.6726 H   0  0  0  0  0  0  0  0  0  0  0  0
  -10.1531   13.3922  -38.5763 H   0  0  0  0  0  0  0  0  0  0  0  0
  -10.9609   12.3487  -37.4122 H   0  0  0  0  0  0  0  0  0  0  0  0
  -10.0540   17.1090  -36.7201 H   0  0  0  0  0  0  0  0  0  0  0  0
  -10.9657   16.0263  -35.6805 H   0  0  0  0  0  0  0  0  0  0  0  0
  -12.6330   17.4080  -37.8884 H   0  0  0  0  0  0  0  0  0  0  0  0
  -13.5245   13.2491  -37.8773 H   0  0  0  0  0  0  0  0  0  0  0  0
  -10.5683   15.6172  -38.6857 H   0  0  0  0  0  0  0  0  0  0  0  0
   -8.6753   15.4154  -35.7217 H   0  0  0  0  0  0  0  0  0  0  0  0
  1  2  1  0  0  0  0
  1  7  1  0  0  0  0
  2  8  1  0  0  0  0
  3  7  1  0  0  0  0
  3  8  1  0  0  0  0
  4  5  1  0  0  0  0
  4 10  1  0  0  0  0
  5 11  1  0  0  0  0
  6  9  1  0  0  0  0
  6 10  1  0  0  0  0
  7  9  1  0  0  0  0
  8 11  1  0  0  0  0
  9 11  1  0  0  0  0
  1 12  1  0  0  0  0
  1 13  1  0  0  0  0
  2 14  1  0  0  0  0
  2 15  1  0  0  0  0
  3 16  1  0  0  0  0
  3 17  1  0  0  0  0
  4 18  1  0  0  0  0
  4 19  1  0  0  0  0
  5 20  1  0  0  0  0
  5 21  1  0  0  0  0
  6 22  1  0  0  0  0
  6 23  1  0  0  0  0
  7 24  1  0  0  0  0
  8 25  1  0  0  0  0
  9 26  1  0  0  0  0
 10 27  1  0  0  0  0
M  END
> <id>
EN300-57797

> <smiles>
C1CC2CC1C3CNCCN23

> <MDLNUMBER>
MFCD30180290

> <IUPAC Name>
2,5-diazatricyclo[6.2.1.0,2,7]undecane

> <CAS>
1824069-86-4

> <URL>
https://www.enaminestore.com/catalog/EN300-57797

> <ROCS_ShapeQuery>
_x1247relevant_x1083L0AP1_x1305L0BP1_

> <ROCS_TanimotoCombo>
1.009 

> <ROCS_ShapeTanimoto>
0.492 

> <ROCS_ColorTanimoto>
0.517 

> <ROCS_RefTversky>
0.410 

> <ROCS_RefColorTversky>
0.705 

> <ROCS_RefTverskyCombo>
1.115 

> <ROCS_FitTversky>
1.677 

> <ROCS_FitColorTversky>
0.660 

> <ROCS_FitTverskyCombo>
2.337 

> <ROCS_ColorScore>
-6.839

> <ROCS_Overlap>
1008.676

> <ROCS_Rank>
480                 

$$$$
untitled-dbase-37054_4
  -OEChem-06232314403D

 27 29  0     1  0  0  0  0  0999 V2000
  -12.8486   16.0604  -39.6313 C   0  0  0  0  0  0  0  0  0  0  0  0
  -13.0188   14.5260  -39.6300 C   0  0  0  0  0  0  0  0  0  0  0  0
  -13.5977   15.4319  -37.4981 C   0  0  0  0  0  0  0  0  0  0  0  0
   -9.6011   13.7624  -36.5334 C   0  0  0  0  0  0  0  0  0  0  0  0
  -10.6325   13.3548  -37.6112 C   0  0  0  0  0  0  0  0  0  0  0  0
  -10.4052   16.0887  -36.6091 C   0  0  0  0  0  0  0  0  0  0  0  0
  -12.5610   16.3628  -38.1422 C   0  0  1  0  0  0  0  0  0  0  0  0
  -12.9996   14.1693  -38.1328 C   0  0  2  0  0  0  0  0  0  0  0  0
  -11.2204   15.6807  -37.8218 C   0  0  2  0  0  0  0  0  0  0  0  0
   -9.2340   15.1927  -36.5402 N   0  0  0  0  0  0  0  0  0  0  0  0
  -11.6883   14.3252  -37.5318 N   0  0  2  0  0  0  0  0  0  0  0  0
  -12.0411   16.3843  -40.2924 H   0  0  0  0  0  0  0  0  0  0  0  0
  -13.7761   16.5424  -39.9549 H   0  0  0  0  0  0  0  0  0  0  0  0
  -13.9798   14.2559  -40.0859 H   0  0  0  0  0  0  0  0  0  0  0  0
  -12.2254   14.0250  -40.1976 H   0  0  0  0  0  0  0  0  0  0  0  0
  -13.5729   15.4361  -36.4051 H   0  0  0  0  0  0  0  0  0  0  0  0
  -14.6206   15.6364  -37.8319 H   0  0  0  0  0  0  0  0  0  0  0  0
   -9.9987   13.4983  -35.5491 H   0  0  0  0  0  0  0  0  0  0  0  0
   -8.6839   13.1827  -36.6721 H   0  0  0  0  0  0  0  0  0  0  0  0
  -10.1540   13.3911  -38.5755 H   0  0  0  0  0  0  0  0  0  0  0  0
  -10.9620   12.3487  -37.4106 H   0  0  0  0  0  0  0  0  0  0  0  0
  -10.0527   17.1090  -36.7219 H   0  0  0  0  0  0  0  0  0  0  0  0
  -10.9648   16.0277  -35.6812 H   0  0  0  0  0  0  0  0  0  0  0  0
  -12.6322   17.4083  -37.8897 H   0  0  0  0  0  0  0  0  0  0  0  0
  -13.5250   13.2497  -37.8758 H   0  0  0  0  0  0  0  0  0  0  0  0
  -10.5682   15.6162  -38.6862 H   0  0  0  0  0  0  0  0  0  0  0  0
   -8.6750   15.4153  -35.7220 H   0  0  0  0  0  0  0  0  0  0  0  0
  1  2  1  0  0  0  0
  1  7  1  6  0  0  0
  2  8  1  6  0  0  0
  3  7  1  0  0  0  0
  3  8  1  0  0  0  0
  4  5  1  0  0  0  0
  4 10  1  0  0  0  0
  5 11  1  0  0  0  0
  6  9  1  0  0  0  0
  6 10  1  0  0  0  0
  7  9  1  0  0  0  0
  8 11  1  0  0  0  0
  9 11  1  0  0  0  0
  1 12  1  0  0  0  0
  1 13  1  0  0  0  0
  2 14  1  0  0  0  0
  2 15  1  0  0  0  0
  3 16  1  0  0  0  0
  3 17  1  0  0  0  0
  4 18  1  0  0  0  0
  4 19  1  0  0  0  0
  5 20  1  0  0  0  0
  5 21  1  0  0  0  0
  6 22  1  0  0  0  0
  6 23  1  0  0  0  0
  7 24  1  0  0  0  0
  8 25  1  0  0  0  0
  9 26  1  0  0  0  0
 10 27  1  0  0  0  0
M  END
> <id>
EN300-252249

> <smiles>
C1C[C@@H]2C[C@H]1C3CNCCN23 |&1:2,4,r|

> <IUPAC Name>
rac-(1R,8S)-2,5-diazatricyclo[6.2.1.0,2,7]undecane

> <CAS>
1212823-97-6

> <URL>
https://www.enaminestore.com/catalog/EN300-252249

> <ROCS_ShapeQuery>
_x1247relevant_x1083L0AP1_x1305L0BP1_

> <ROCS_TanimotoCombo>
1.009 

> <ROCS_ShapeTanimoto>
0.492 

> <ROCS_ColorTanimoto>
0.517 

> <ROCS_RefTversky>
0.410 

> <ROCS_RefColorTversky>
0.705 

> <ROCS_RefTverskyCombo>
1.115 

> <ROCS_FitTversky>
1.677 

> <ROCS_FitColorTversky>
0.660 

> <ROCS_FitTverskyCombo>
2.337 

> <ROCS_ColorScore>
-6.839

> <ROCS_Overlap>
1008.673

> <ROCS_Rank>
481                 

$$$$
untitled-dbase-26040_4
  -OEChem-06232314403D

 27 29  0     1  0  0  0  0  0999 V2000
  -12.8486   16.0604  -39.6313 C   0  0  0  0  0  0  0  0  0  0  0  0
  -13.0188   14.5260  -39.6300 C   0  0  0  0  0  0  0  0  0  0  0  0
  -13.5977   15.4319  -37.4981 C   0  0  0  0  0  0  0  0  0  0  0  0
   -9.6011   13.7624  -36.5334 C   0  0  0  0  0  0  0  0  0  0  0  0
  -10.6325   13.3548  -37.6112 C   0  0  0  0  0  0  0  0  0  0  0  0
  -10.4052   16.0887  -36.6091 C   0  0  0  0  0  0  0  0  0  0  0  0
  -12.5610   16.3628  -38.1422 C   0  0  1  0  0  0  0  0  0  0  0  0
  -12.9996   14.1693  -38.1328 C   0  0  2  0  0  0  0  0  0  0  0  0
  -11.2204   15.6807  -37.8218 C   0  0  2  0  0  0  0  0  0  0  0  0
   -9.2340   15.1927  -36.5402 N   0  0  0  0  0  0  0  0  0  0  0  0
  -11.6883   14.3252  -37.5318 N   0  0  2  0  0  0  0  0  0  0  0  0
  -12.0411   16.3843  -40.2924 H   0  0  0  0  0  0  0  0  0  0  0  0
  -13.7761   16.5424  -39.9549 H   0  0  0  0  0  0  0  0  0  0  0  0
  -13.9798   14.2559  -40.0859 H   0  0  0  0  0  0  0  0  0  0  0  0
  -12.2254   14.0250  -40.1976 H   0  0  0  0  0  0  0  0  0  0  0  0
  -13.5729   15.4361  -36.4051 H   0  0  0  0  0  0  0  0  0  0  0  0
  -14.6206   15.6364  -37.8319 H   0  0  0  0  0  0  0  0  0  0  0  0
   -9.9987   13.4983  -35.5491 H   0  0  0  0  0  0  0  0  0  0  0  0
   -8.6839   13.1827  -36.6721 H   0  0  0  0  0  0  0  0  0  0  0  0
  -10.1540   13.3911  -38.5755 H   0  0  0  0  0  0  0  0  0  0  0  0
  -10.9620   12.3487  -37.4106 H   0  0  0  0  0  0  0  0  0  0  0  0
  -10.0527   17.1090  -36.7219 H   0  0  0  0  0  0  0  0  0  0  0  0
  -10.9648   16.0277  -35.6812 H   0  0  0  0  0  0  0  0  0  0  0  0
  -12.6322   17.4083  -37.8897 H   0  0  0  0  0  0  0  0  0  0  0  0
  -13.5250   13.2497  -37.8758 H   0  0  0  0  0  0  0  0  0  0  0  0
  -10.5682   15.6162  -38.6862 H   0  0  0  0  0  0  0  0  0  0  0  0
   -8.6750   15.4153  -35.7220 H   0  0  0  0  0  0  0  0  0  0  0  0
  1  2  1  0  0  0  0
  1  7  1  6  0  0  0
  2  8  1  6  0  0  0
  3  7  1  0  0  0  0
  3  8  1  0  0  0  0
  4  5  1  0  0  0  0
  4 10  1  0  0  0  0
  5 11  1  0  0  0  0
  6  9  1  0  0  0  0
  6 10  1  0  0  0  0
  7  9  1  0  0  0  0
  8 11  1  0  0  0  0
  9 11  1  0  0  0  0
  1 12  1  0  0  0  0
  1 13  1  0  0  0  0
  2 14  1  0  0  0  0
  2 15  1  0  0  0  0
  3 16  1  0  0  0  0
  3 17  1  0  0  0  0
  4 18  1  0  0  0  0
  4 19  1  0  0  0  0
  5 20  1  0  0  0  0
  5 21  1  0  0  0  0
  6 22  1  0  0  0  0
  6 23  1  0  0  0  0
  7 24  1  0  0  0  0
  8 25  1  0  0  0  0
  9 26  1  0  0  0  0
 10 27  1  0  0  0  0
M  END
> <id>
EN300-33611

> <smiles>
Cl.Cl.C1C[C@@H]2C[C@H]1C3CNCCN23

> <MDLNUMBER>
MFCD26143871

> <IUPAC Name>
(1R,8S)-2,5-diazatricyclo[6.2.1.0,2,7]undecane dihydrochloride

> <CAS>
1807938-74-4

> <URL>
https://www.enaminestore.com/catalog/EN300-33611

> <Saltdate>
Cl

> <ROCS_ShapeQuery>
_x1247relevant_x1083L0AP1_x1305L0BP1_

> <ROCS_TanimotoCombo>
1.009 

> <ROCS_ShapeTanimoto>
0.492 

> <ROCS_ColorTanimoto>
0.517 

> <ROCS_RefTversky>
0.410 

> <ROCS_RefColorTversky>
0.705 

> <ROCS_RefTverskyCombo>
1.115 

> <ROCS_FitTversky>
1.677 

> <ROCS_FitColorTversky>
0.660 

> <ROCS_FitTverskyCombo>
2.337 

> <ROCS_ColorScore>
-6.839

> <ROCS_Overlap>
1008.673

> <ROCS_Rank>
482                 

$$$$
untitled-dbase-7628_4
  -OEChem-06232314403D

 27 29  0     1  0  0  0  0  0999 V2000
  -12.8486   16.0604  -39.6313 C   0  0  0  0  0  0  0  0  0  0  0  0
  -13.0188   14.5260  -39.6300 C   0  0  0  0  0  0  0  0  0  0  0  0
  -13.5977   15.4319  -37.4981 C   0  0  0  0  0  0  0  0  0  0  0  0
   -9.6011   13.7624  -36.5334 C   0  0  0  0  0  0  0  0  0  0  0  0
  -10.6325   13.3548  -37.6112 C   0  0  0  0  0  0  0  0  0  0  0  0
  -10.4052   16.0887  -36.6091 C   0  0  0  0  0  0  0  0  0  0  0  0
  -12.5610   16.3628  -38.1422 C   0  0  1  0  0  0  0  0  0  0  0  0
  -12.9996   14.1693  -38.1328 C   0  0  2  0  0  0  0  0  0  0  0  0
  -11.2204   15.6807  -37.8218 C   0  0  2  0  0  0  0  0  0  0  0  0
   -9.2340   15.1927  -36.5402 N   0  0  0  0  0  0  0  0  0  0  0  0
  -11.6883   14.3252  -37.5318 N   0  0  2  0  0  0  0  0  0  0  0  0
  -12.0411   16.3843  -40.2924 H   0  0  0  0  0  0  0  0  0  0  0  0
  -13.7761   16.5424  -39.9549 H   0  0  0  0  0  0  0  0  0  0  0  0
  -13.9798   14.2559  -40.0859 H   0  0  0  0  0  0  0  0  0  0  0  0
  -12.2254   14.0250  -40.1976 H   0  0  0  0  0  0  0  0  0  0  0  0
  -13.5729   15.4361  -36.4051 H   0  0  0  0  0  0  0  0  0  0  0  0
  -14.6206   15.6364  -37.8319 H   0  0  0  0  0  0  0  0  0  0  0  0
   -9.9987   13.4983  -35.5491 H   0  0  0  0  0  0  0  0  0  0  0  0
   -8.6839   13.1827  -36.6721 H   0  0  0  0  0  0  0  0  0  0  0  0
  -10.1540   13.3911  -38.5755 H   0  0  0  0  0  0  0  0  0  0  0  0
  -10.9620   12.3487  -37.4106 H   0  0  0  0  0  0  0  0  0  0  0  0
  -10.0527   17.1090  -36.7219 H   0  0  0  0  0  0  0  0  0  0  0  0
  -10.9648   16.0277  -35.6812 H   0  0  0  0  0  0  0  0  0  0  0  0
  -12.6322   17.4083  -37.8897 H   0  0  0  0  0  0  0  0  0  0  0  0
  -13.5250   13.2497  -37.8758 H   0  0  0  0  0  0  0  0  0  0  0  0
  -10.5682   15.6162  -38.6862 H   0  0  0  0  0  0  0  0  0  0  0  0
   -8.6750   15.4153  -35.7220 H   0  0  0  0  0  0  0  0  0  0  0  0
  1  2  1  0  0  0  0
  1  7  1  6  0  0  0
  2  8  1  6  0  0  0
  3  7  1  0  0  0  0
  3  8  1  0  0  0  0
  4  5  1  0  0  0  0
  4 10  1  0  0  0  0
  5 11  1  0  0  0  0
  6  9  1  0  0  0  0
  6 10  1  0  0  0  0
  7  9  1  0  0  0  0
  8 11  1  0  0  0  0
  9 11  1  0  0  0  0
  1 12  1  0  0  0  0
  1 13  1  0  0  0  0
  2 14  1  0  0  0  0
  2 15  1  0  0  0  0
  3 16  1  0  0  0  0
  3 17  1  0  0  0  0
  4 18  1  0  0  0  0
  4 19  1  0  0  0  0
  5 20  1  0  0  0  0
  5 21  1  0  0  0  0
  6 22  1  0  0  0  0
  6 23  1  0  0  0  0
  7 24  1  0  0  0  0
  8 25  1  0  0  0  0
  9 26  1  0  0  0  0
 10 27  1  0  0  0  0
M  END
> <id>
EN300-252248

> <smiles>
Cl.Cl.C1C[C@@H]2C[C@H]1C3CNCCN23 |&1:4,6,r|

> <IUPAC Name>
rac-(1R,8S)-2,5-diazatricyclo[6.2.1.0,2,7]undecane dihydrochloride

> <CAS>
1212452-81-7

> <URL>
https://www.enaminestore.com/catalog/EN300-252248

> <Saltdate>
Cl

> <ROCS_ShapeQuery>
_x1247relevant_x1083L0AP1_x1305L0BP1_

> <ROCS_TanimotoCombo>
1.009 

> <ROCS_ShapeTanimoto>
0.492 

> <ROCS_ColorTanimoto>
0.517 

> <ROCS_RefTversky>
0.410 

> <ROCS_RefColorTversky>
0.705 

> <ROCS_RefTverskyCombo>
1.115 

> <ROCS_FitTversky>
1.677 

> <ROCS_FitColorTversky>
0.660 

> <ROCS_FitTverskyCombo>
2.337 

> <ROCS_ColorScore>
-6.839

> <ROCS_Overlap>
1008.673

> <ROCS_Rank>
483                 

$$$$
untitled-dbase-23868_0
  -OEChem-06232314403D

 26 28  0     1  0  0  0  0  0999 V2000
  -15.5664   13.9413  -40.8206 C   0  0  0  0  0  0  0  0  0  0  0  0
  -14.6829   14.3214  -40.1023 C   0  0  0  0  0  0  0  0  0  0  0  0
  -10.7959   14.9241  -38.3757 C   0  0  0  0  0  0  0  0  0  0  0  0
  -12.1664   16.9997  -38.0362 C   0  0  0  0  0  0  0  0  0  0  0  0
  -12.5170   15.0029  -36.5498 C   0  0  0  0  0  0  0  0  0  0  0  0
  -12.5633   15.5867  -40.0312 C   0  0  0  0  0  0  0  0  0  0  0  0
  -12.9145   13.5872  -38.5427 C   0  0  0  0  0  0  0  0  0  0  0  0
  -11.4774   16.1122  -39.0813 C   0  0  2  0  0  0  0  0  0  0  0  0
  -11.8305   14.1011  -37.5842 C   0  0  1  0  0  0  0  0  0  0  0  0
  -13.2017   16.1618  -37.2804 C   0  0  0  0  0  0  0  0  0  0  0  0
  -13.6004   14.7868  -39.2217 C   0  0  0  0  0  0  0  0  0  0  0  0
  -14.1695   15.6405  -38.2091 O   0  0  0  0  0  0  0  0  0  0  0  0
  -16.3502   13.6042  -41.4579 H   0  0  0  0  0  0  0  0  0  0  0  0
  -10.3005   14.2852  -39.1172 H   0  0  0  0  0  0  0  0  0  0  0  0
  -10.0157   15.2917  -37.6978 H   0  0  0  0  0  0  0  0  0  0  0  0
  -11.4293   17.4193  -37.3417 H   0  0  0  0  0  0  0  0  0  0  0  0
  -12.6629   17.8379  -38.5403 H   0  0  0  0  0  0  0  0  0  0  0  0
  -13.2631   14.4198  -35.9960 H   0  0  0  0  0  0  0  0  0  0  0  0
  -11.7870   15.3820  -35.8252 H   0  0  0  0  0  0  0  0  0  0  0  0
  -13.0450   16.4380  -40.5309 H   0  0  0  0  0  0  0  0  0  0  0  0
  -12.1138   14.9663  -40.8174 H   0  0  0  0  0  0  0  0  0  0  0  0
  -12.4746   12.9116  -39.2877 H   0  0  0  0  0  0  0  0  0  0  0  0
  -13.6484   13.0016  -37.9729 H   0  0  0  0  0  0  0  0  0  0  0  0
  -10.7356   16.6929  -39.6400 H   0  0  0  0  0  0  0  0  0  0  0  0
  -11.3383   13.2598  -37.0847 H   0  0  0  0  0  0  0  0  0  0  0  0
  -13.7376   16.7907  -36.5618 H   0  0  0  0  0  0  0  0  0  0  0  0
  1  2  3  0  0  0  0
  2 11  1  0  0  0  0
  3  8  1  0  0  0  0
  3  9  1  0  0  0  0
  4  8  1  0  0  0  0
  4 10  1  0  0  0  0
  5  9  1  0  0  0  0
  5 10  1  0  0  0  0
  6  8  1  0  0  0  0
  6 11  1  0  0  0  0
  7  9  1  0  0  0  0
  7 11  1  0  0  0  0
 10 12  1  0  0  0  0
 11 12  1  0  0  0  0
  1 13  1  0  0  0  0
  3 14  1  0  0  0  0
  3 15  1  0  0  0  0
  4 16  1  0  0  0  0
  4 17  1  0  0  0  0
  5 18  1  0  0  0  0
  5 19  1  0  0  0  0
  6 20  1  0  0  0  0
  6 21  1  0  0  0  0
  7 22  1  0  0  0  0
  7 23  1  0  0  0  0
  8 24  1  0  0  0  0
  9 25  1  0  0  0  0
 10 26  1  0  0  0  0
M  END
> <id>
EN300-37098693

> <smiles>
C#CC1(CC2CC3CC(C2)O1)C3

> <MDLNUMBER>
MFCD34575598

> <IUPAC Name>
1-ethynyl-2-oxatricyclo[3.3.1.1,3,7]decane

> <CAS>
2742652-62-4

> <Purity>
95

> <URL>
https://www.enaminestore.com/catalog/EN300-37098693

> <ROCS_ShapeQuery>
_x1247relevant_x1083L0AP1_x1305L0BP1_

> <ROCS_TanimotoCombo>
1.009 

> <ROCS_ShapeTanimoto>
0.475 

> <ROCS_ColorTanimoto>
0.534 

> <ROCS_RefTversky>
0.407 

> <ROCS_RefColorTversky>
0.661 

> <ROCS_RefTverskyCombo>
1.067 

> <ROCS_FitTversky>
1.545 

> <ROCS_FitColorTversky>
0.736 

> <ROCS_FitTverskyCombo>
2.281 

> <ROCS_ColorScore>
-6.349

> <ROCS_Overlap>
1000.902

> <ROCS_Rank>
484                 

$$$$
untitled-dbase-6195_3
  -OEChem-06232314403D

 39 42  0     1  0  0  0  0  0999 V2000
   -9.4521   14.4160  -34.8058 C   0  0  0  0  0  0  0  0  0  0  0  0
  -13.0767   15.1848  -37.0183 C   0  0  0  0  0  0  0  0  0  0  0  0
  -10.4645   13.5135  -36.9291 C   0  0  0  0  0  0  0  0  0  0  0  0
  -10.0666   15.8852  -36.7120 C   0  0  0  0  0  0  0  0  0  0  0  0
  -12.7332   14.0860  -38.0427 C   0  0  2  0  0  0  0  0  0  0  0  0
  -12.3680   16.2813  -37.8366 C   0  0  1  0  0  0  0  0  0  0  0  0
  -11.1817   14.1754  -38.0986 C   0  0  1  0  0  0  0  0  0  0  0  0
  -10.9267   15.7101  -37.9561 C   0  0  2  0  0  0  0  0  0  0  0  0
  -13.2470   14.6713  -39.3534 C   0  0  2  0  0  0  0  0  0  0  0  0
  -13.0033   16.1396  -39.2155 C   0  0  1  0  0  0  0  0  0  0  0  0
   -8.4718   13.5354  -32.2693 C   0  0  0  0  0  0  0  0  0  0  0  0
   -8.4604   11.2355  -33.2791 C   0  0  0  0  0  0  0  0  0  0  0  0
   -7.0040   13.0357  -34.2519 C   0  0  0  0  0  0  0  0  0  0  0  0
   -8.3323   12.7309  -33.5609 C   0  0  0  0  0  0  0  0  0  0  0  0
   -9.9957   14.5874  -36.0701 N   0  0  0  0  0  0  0  0  0  0  0  0
   -9.0603   15.3368  -34.0922 O   0  0  0  0  0  0  0  0  0  0  0  0
  -14.3283   15.6062  -39.2950 O   0  0  0  0  0  0  0  0  0  0  0  0
   -9.3994   13.0966  -34.4430 O   0  0  0  0  0  0  0  0  0  0  0  0
  -14.1538   15.3541  -36.9135 H   0  0  0  0  0  0  0  0  0  0  0  0
  -12.6546   15.0222  -36.0233 H   0  0  0  0  0  0  0  0  0  0  0  0
  -11.0924   12.8155  -36.3666 H   0  0  0  0  0  0  0  0  0  0  0  0
   -9.5794   12.9684  -37.2764 H   0  0  0  0  0  0  0  0  0  0  0  0
   -9.0432   16.1659  -36.9861 H   0  0  0  0  0  0  0  0  0  0  0  0
  -10.4446   16.6380  -36.0130 H   0  0  0  0  0  0  0  0  0  0  0  0
  -13.1331   13.0960  -37.8157 H   0  0  0  0  0  0  0  0  0  0  0  0
  -12.4351   17.2891  -37.4225 H   0  0  0  0  0  0  0  0  0  0  0  0
  -10.7960   13.7939  -39.0513 H   0  0  0  0  0  0  0  0  0  0  0  0
  -10.4128   16.1118  -38.8374 H   0  0  0  0  0  0  0  0  0  0  0  0
  -13.0053   14.1558  -40.2674 H   0  0  0  0  0  0  0  0  0  0  0  0
  -12.5818   16.7071  -40.0279 H   0  0  0  0  0  0  0  0  0  0  0  0
   -8.3805   14.6093  -32.4674 H   0  0  0  0  0  0  0  0  0  0  0  0
   -9.4351   13.3523  -31.7821 H   0  0  0  0  0  0  0  0  0  0  0  0
   -7.6730   13.2823  -31.5629 H   0  0  0  0  0  0  0  0  0  0  0  0
   -8.3609   10.6544  -34.2031 H   0  0  0  0  0  0  0  0  0  0  0  0
   -9.4494   10.9986  -32.8705 H   0  0  0  0  0  0  0  0  0  0  0  0
   -7.7007   10.8915  -32.5698 H   0  0  0  0  0  0  0  0  0  0  0  0
   -6.9037   12.4588  -35.1783 H   0  0  0  0  0  0  0  0  0  0  0  0
   -6.9106   14.0991  -34.4951 H   0  0  0  0  0  0  0  0  0  0  0  0
   -6.1590   12.7484  -33.6157 H   0  0  0  0  0  0  0  0  0  0  0  0
  1 15  1  0  0  0  0
  1 16  2  0  0  0  0
  1 18  1  0  0  0  0
  2  5  1  0  0  0  0
  2  6  1  0  0  0  0
  3  7  1  0  0  0  0
  3 15  1  0  0  0  0
  4  8  1  0  0  0  0
  4 15  1  0  0  0  0
  5  7  1  0  0  0  0
  5  9  1  0  0  0  0
  6  8  1  0  0  0  0
  6 10  1  0  0  0  0
  7  8  1  0  0  0  0
  9 10  1  0  0  0  0
  9 17  1  0  0  0  0
 10 17  1  0  0  0  0
 11 14  1  0  0  0  0
 12 14  1  0  0  0  0
 13 14  1  0  0  0  0
 14 18  1  0  0  0  0
  2 19  1  0  0  0  0
  2 20  1  0  0  0  0
  3 21  1  0  0  0  0
  3 22  1  0  0  0  0
  4 23  1  0  0  0  0
  4 24  1  0  0  0  0
  5 25  1  0  0  0  0
  6 26  1  0  0  0  0
  7 27  1  0  0  0  0
  8 28  1  0  0  0  0
  9 29  1  0  0  0  0
 10 30  1  0  0  0  0
 11 31  1  0  0  0  0
 11 32  1  0  0  0  0
 11 33  1  0  0  0  0
 12 34  1  0  0  0  0
 12 35  1  0  0  0  0
 12 36  1  0  0  0  0
 13 37  1  0  0  0  0
 13 38  1  0  0  0  0
 13 39  1  0  0  0  0
M  END
> <id>
EN300-244736

> <smiles>
CC(C)(C)OC(=O)N1CC2C3CC(C4OC43)C2C1

> <MDLNUMBER>
MFCD29034945

> <IUPAC Name>
tert-butyl 9-oxa-4-azatetracyclo[5.3.1.0^{2,6}.0^{8,10}]undecane-4-carboxylate

> <CAS>
1936182-08-9

> <URL>
https://www.enaminestore.com/catalog/EN300-244736

> <ROCS_ShapeQuery>
_x1247relevant_x1083L0AP1_x1305L0BP1_

> <ROCS_TanimotoCombo>
1.009 

> <ROCS_ShapeTanimoto>
0.490 

> <ROCS_ColorTanimoto>
0.519 

> <ROCS_RefTversky>
0.451 

> <ROCS_RefColorTversky>
1.033 

> <ROCS_RefTverskyCombo>
1.484 

> <ROCS_FitTversky>
1.216 

> <ROCS_FitColorTversky>
0.510 

> <ROCS_FitTverskyCombo>
1.727 

> <ROCS_ColorScore>
-10.587

> <ROCS_Overlap>
1115.698

> <ROCS_Rank>
485                 

$$$$
untitled-dbase-17820_1
  -OEChem-06232314403D

 18 19  0     1  0  0  0  0  0999 V2000
  -15.2550   14.0971  -40.5501 C   0  0  0  0  0  0  0  0  0  0  0  0
  -14.2436   14.3627  -39.9605 C   0  0  0  0  0  0  0  0  0  0  0  0
  -12.2972   15.3824  -37.0345 C   0  0  0  0  0  0  0  0  0  0  0  0
  -12.5732   16.6159  -37.9012 C   0  0  0  0  0  0  0  0  0  0  0  0
  -12.1028   13.5483  -38.8893 C   0  0  0  0  0  0  0  0  0  0  0  0
  -12.8915   14.2465  -37.8214 C   0  0  2  0  0  0  0  0  0  0  0  0
  -13.0355   14.6799  -39.2557 C   0  0  2  0  0  0  0  0  0  0  0  0
  -12.5109   16.0879  -39.3314 C   0  0  0  0  0  0  0  0  0  0  0  0
  -13.2321   16.8732  -40.1633 F   0  0  0  0  0  0  0  0  0  0  0  0
  -11.2319   16.0914  -39.7794 F   0  0  0  0  0  0  0  0  0  0  0  0
  -16.1522   13.8615  -41.0733 H   0  0  0  0  0  0  0  0  0  0  0  0
  -11.2306   15.2432  -36.8567 H   0  0  0  0  0  0  0  0  0  0  0  0
  -12.8118   15.4706  -36.0748 H   0  0  0  0  0  0  0  0  0  0  0  0
  -13.5396   17.0732  -37.6628 H   0  0  0  0  0  0  0  0  0  0  0  0
  -11.7946   17.3730  -37.7423 H   0  0  0  0  0  0  0  0  0  0  0  0
  -11.0307   13.7106  -38.9462 H   0  0  0  0  0  0  0  0  0  0  0  0
  -12.3898   12.5294  -39.1375 H   0  0  0  0  0  0  0  0  0  0  0  0
  -13.6840   13.7184  -37.3209 H   0  0  0  0  0  0  0  0  0  0  0  0
  1  2  3  0  0  0  0
  2  7  1  0  0  0  0
  3  4  1  0  0  0  0
  3  6  1  0  0  0  0
  4  8  1  0  0  0  0
  5  6  1  0  0  0  0
  5  7  1  0  0  0  0
  6  7  1  0  0  0  0
  7  8  1  0  0  0  0
  8  9  1  0  0  0  0
  8 10  1  0  0  0  0
  1 11  1  0  0  0  0
  3 12  1  0  0  0  0
  3 13  1  0  0  0  0
  4 14  1  0  0  0  0
  4 15  1  0  0  0  0
  5 16  1  0  0  0  0
  5 17  1  0  0  0  0
  6 18  1  0  0  0  0
M  END
> <id>
EN300-37084799

> <smiles>
FC1(F)CCC2CC21C#C

> <MDLNUMBER>
MFCD34562302

> <IUPAC Name>
1-ethynyl-2,2-difluorobicyclo[3.1.0]hexane

> <CAS>
2731013-94-6

> <Purity>
95

> <URL>
https://www.enaminestore.com/catalog/EN300-37084799

> <ROCS_ShapeQuery>
_x1247relevant_x1083L0AP1_x1305L0BP1_

> <ROCS_TanimotoCombo>
1.009 

> <ROCS_ShapeTanimoto>
0.408 

> <ROCS_ColorTanimoto>
0.601 

> <ROCS_RefTversky>
0.355 

> <ROCS_RefColorTversky>
0.576 

> <ROCS_RefTverskyCombo>
0.931 

> <ROCS_FitTversky>
1.580 

> <ROCS_FitColorTversky>
1.076 

> <ROCS_FitTverskyCombo>
2.656 

> <ROCS_ColorScore>
-5.430

> <ROCS_Overlap>
871.128

> <ROCS_Rank>
486                 

$$$$
untitled-dbase-34887_2
  -OEChem-06232314403D

 25 26  0     1  0  0  0  0  0999 V2000
  -10.2178   16.0006  -37.7648 C   0  0  0  0  0  0  0  0  0  0  0  0
  -13.1584   14.2622  -37.1821 C   0  0  0  0  0  0  0  0  0  0  0  0
  -13.5960   15.7489  -37.1927 C   0  0  0  0  0  0  0  0  0  0  0  0
  -12.6747   14.3786  -39.6253 C   0  0  0  0  0  0  0  0  0  0  0  0
  -12.0324   14.2351  -38.2301 C   0  0  1  0  0  0  0  0  0  0  0  0
  -12.6697   16.3704  -38.2561 C   0  0  2  0  0  0  0  0  0  0  0  0
  -13.0511   15.8878  -39.6735 C   0  0  2  0  0  0  0  0  0  0  0  0
   -9.3837   15.0527  -36.9449 C   0  0  0  0  0  0  0  0  0  0  0  0
  -11.4836   15.5647  -38.0485 N   0  0  0  0  0  0  0  0  0  0  0  0
  -14.4370   16.1192  -40.0408 N   0  0  0  0  0  0  0  0  0  0  0  0
   -9.7604   17.0818  -38.1360 O   0  0  0  0  0  0  0  0  0  0  0  0
  -12.7785   13.9930  -36.1901 H   0  0  0  0  0  0  0  0  0  0  0  0
  -13.9877   13.5926  -37.4304 H   0  0  0  0  0  0  0  0  0  0  0  0
  -14.6607   15.8598  -37.4158 H   0  0  0  0  0  0  0  0  0  0  0  0
  -13.4074   16.1945  -36.2091 H   0  0  0  0  0  0  0  0  0  0  0  0
  -11.9495   14.1550  -40.4168 H   0  0  0  0  0  0  0  0  0  0  0  0
  -13.5355   13.7132  -39.7553 H   0  0  0  0  0  0  0  0  0  0  0  0
  -11.3204   13.4166  -38.1274 H   0  0  0  0  0  0  0  0  0  0  0  0
  -12.5336   17.4509  -38.1634 H   0  0  0  0  0  0  0  0  0  0  0  0
  -12.4062   16.3857  -40.4096 H   0  0  0  0  0  0  0  0  0  0  0  0
   -8.8414   14.3872  -37.6097 H   0  0  0  0  0  0  0  0  0  0  0  0
  -10.0338   14.4749  -36.2942 H   0  0  0  0  0  0  0  0  0  0  0  0
   -8.6833   15.6229  -36.3416 H   0  0  0  0  0  0  0  0  0  0  0  0
  -14.8753   15.2403  -40.2008 H   0  0  0  0  0  0  0  0  0  0  0  0
  -14.8881   16.5987  -39.2947 H   0  0  0  0  0  0  0  0  0  0  0  0
  1  8  1  0  0  0  0
  1  9  1  0  0  0  0
  1 11  2  0  0  0  0
  2  3  1  0  0  0  0
  2  5  1  0  0  0  0
  3  6  1  0  0  0  0
  4  5  1  0  0  0  0
  4  7  1  0  0  0  0
  5  9  1  0  0  0  0
  6  7  1  0  0  0  0
  6  9  1  0  0  0  0
  7 10  1  0  0  0  0
  2 12  1  0  0  0  0
  2 13  1  0  0  0  0
  3 14  1  0  0  0  0
  3 15  1  0  0  0  0
  4 16  1  0  0  0  0
  4 17  1  0  0  0  0
  5 18  1  0  0  0  0
  6 19  1  0  0  0  0
  7 20  1  0  0  0  0
  8 21  1  0  0  0  0
  8 22  1  0  0  0  0
  8 23  1  0  0  0  0
 10 24  1  0  0  0  0
 10 25  1  0  0  0  0
M  END
> <id>
EN300-767372

> <smiles>
CC(=O)N1C2CCC1C(N)C2

> <MDLNUMBER>
MFCD31459634

> <IUPAC Name>
1-{2-amino-7-azabicyclo[2.2.1]heptan-7-yl}ethan-1-one

> <CAS>
2138304-10-4

> <URL>
https://www.enaminestore.com/catalog/EN300-767372

> <ROCS_ShapeQuery>
_x1247relevant_x1083L0AP1_x1305L0BP1_

> <ROCS_TanimotoCombo>
1.009 

> <ROCS_ShapeTanimoto>
0.447 

> <ROCS_ColorTanimoto>
0.562 

> <ROCS_RefTversky>
0.383 

> <ROCS_RefColorTversky>
0.709 

> <ROCS_RefTverskyCombo>
1.092 

> <ROCS_FitTversky>
1.593 

> <ROCS_FitColorTversky>
0.730 

> <ROCS_FitTverskyCombo>
2.323 

> <ROCS_ColorScore>
-6.843

> <ROCS_Overlap>
941.660

> <ROCS_Rank>
487                 

$$$$
untitled-dbase-37593_0
  -OEChem-06232314403D

 28 30  0     1  0  0  0  0  0999 V2000
  -11.0868   16.1668  -38.7123 C   0  0  0  0  0  0  0  0  0  0  0  0
  -12.7577   16.2604  -36.8378 C   0  0  0  0  0  0  0  0  0  0  0  0
  -11.5425   14.1255  -37.3318 C   0  0  0  0  0  0  0  0  0  0  0  0
  -12.3154   14.2311  -39.7121 C   0  0  0  0  0  0  0  0  0  0  0  0
  -13.9880   14.3253  -37.8383 C   0  0  0  0  0  0  0  0  0  0  0  0
  -11.4171   15.6570  -37.2969 C   0  0  0  0  0  0  0  0  0  0  0  0
  -12.2061   15.7688  -39.6987 C   0  0  1  0  0  0  0  0  0  0  0  0
  -13.8852   15.8631  -37.8148 C   0  0  2  0  0  0  0  0  0  0  0  0
  -13.5298   16.4164  -39.2186 C   0  0  0  0  0  0  0  0  0  0  0  0
  -12.6569   13.7226  -38.3057 C   0  0  0  0  0  0  0  0  0  0  0  0
  -14.6115   16.1607  -40.1705 N   0  0  0  0  0  0  0  0  0  0  0  0
  -12.7608   12.3707  -38.3309 F   0  0  0  0  0  0  0  0  0  0  0  0
  -10.9701   17.2577  -38.6992 H   0  0  0  0  0  0  0  0  0  0  0  0
  -10.1288   15.7488  -39.0460 H   0  0  0  0  0  0  0  0  0  0  0  0
  -12.9987   15.9092  -35.8268 H   0  0  0  0  0  0  0  0  0  0  0  0
  -12.6772   17.3530  -36.7836 H   0  0  0  0  0  0  0  0  0  0  0  0
  -10.5934   13.6680  -37.6371 H   0  0  0  0  0  0  0  0  0  0  0  0
  -11.7593   13.7337  -36.3303 H   0  0  0  0  0  0  0  0  0  0  0  0
  -13.0766   13.8966  -40.4269 H   0  0  0  0  0  0  0  0  0  0  0  0
  -11.3724   13.7843  -40.0516 H   0  0  0  0  0  0  0  0  0  0  0  0
  -14.2393   13.9446  -36.8400 H   0  0  0  0  0  0  0  0  0  0  0  0
  -14.8012   13.9943  -38.4952 H   0  0  0  0  0  0  0  0  0  0  0  0
  -10.6216   15.9487  -36.6024 H   0  0  0  0  0  0  0  0  0  0  0  0
  -11.9475   16.1292  -40.7017 H   0  0  0  0  0  0  0  0  0  0  0  0
  -14.8325   16.2911  -37.4654 H   0  0  0  0  0  0  0  0  0  0  0  0
  -13.3972   17.5042  -39.1549 H   0  0  0  0  0  0  0  0  0  0  0  0
  -15.4317   16.6016  -39.8298 H   0  0  0  0  0  0  0  0  0  0  0  0
  -14.3451   16.5399  -41.0471 H   0  0  0  0  0  0  0  0  0  0  0  0
  1  6  1  0  0  0  0
  1  7  1  0  0  0  0
  2  6  1  0  0  0  0
  2  8  1  0  0  0  0
  3  6  1  0  0  0  0
  3 10  1  0  0  0  0
  4  7  1  0  0  0  0
  4 10  1  0  0  0  0
  5  8  1  0  0  0  0
  5 10  1  0  0  0  0
  7  9  1  0  0  0  0
  8  9  1  0  0  0  0
  9 11  1  0  0  0  0
 10 12  1  0  0  0  0
  1 13  1  0  0  0  0
  1 14  1  0  0  0  0
  2 15  1  0  0  0  0
  2 16  1  0  0  0  0
  3 17  1  0  0  0  0
  3 18  1  0  0  0  0
  4 19  1  0  0  0  0
  4 20  1  0  0  0  0
  5 21  1  0  0  0  0
  5 22  1  0  0  0  0
  6 23  1  0  0  0  0
  7 24  1  0  0  0  0
  8 25  1  0  0  0  0
  9 26  1  0  0  0  0
 11 27  1  0  0  0  0
 11 28  1  0  0  0  0
M  END
> <id>
EN300-200626

> <smiles>
NC1C2CC3CC1CC(F)(C3)C2

> <MDLNUMBER>
MFCD20693543

> <IUPAC Name>
5-fluoroadamantan-2-amine

> <CAS>
944123-95-9

> <URL>
https://www.enaminestore.com/catalog/EN300-200626

> <ROCS_ShapeQuery>
_x1247relevant_x1083L0AP1_x1305L0BP1_

> <ROCS_TanimotoCombo>
1.008 

> <ROCS_ShapeTanimoto>
0.446 

> <ROCS_ColorTanimoto>
0.562 

> <ROCS_RefTversky>
0.389 

> <ROCS_RefColorTversky>
0.679 

> <ROCS_RefTverskyCombo>
1.068 

> <ROCS_FitTversky>
1.491 

> <ROCS_FitColorTversky>
0.765 

> <ROCS_FitTverskyCombo>
2.256 

> <ROCS_ColorScore>
-6.524

> <ROCS_Overlap>
957.410

> <ROCS_Rank>
488                 

$$$$
untitled-dbase-4772_0
  -OEChem-06232314403D

 28 30  0     1  0  0  0  0  0999 V2000
  -11.0868   16.1668  -38.7123 C   0  0  0  0  0  0  0  0  0  0  0  0
  -12.7577   16.2604  -36.8378 C   0  0  0  0  0  0  0  0  0  0  0  0
  -11.5425   14.1255  -37.3318 C   0  0  0  0  0  0  0  0  0  0  0  0
  -12.3154   14.2311  -39.7121 C   0  0  0  0  0  0  0  0  0  0  0  0
  -13.9880   14.3253  -37.8383 C   0  0  0  0  0  0  0  0  0  0  0  0
  -11.4171   15.6570  -37.2969 C   0  0  0  0  0  0  0  0  0  0  0  0
  -12.2061   15.7688  -39.6987 C   0  0  1  0  0  0  0  0  0  0  0  0
  -13.8852   15.8631  -37.8148 C   0  0  2  0  0  0  0  0  0  0  0  0
  -13.5298   16.4164  -39.2186 C   0  0  0  0  0  0  0  0  0  0  0  0
  -12.6569   13.7226  -38.3057 C   0  0  0  0  0  0  0  0  0  0  0  0
  -14.6115   16.1607  -40.1705 N   0  0  0  0  0  0  0  0  0  0  0  0
  -12.7608   12.3707  -38.3309 F   0  0  0  0  0  0  0  0  0  0  0  0
  -10.9701   17.2577  -38.6992 H   0  0  0  0  0  0  0  0  0  0  0  0
  -10.1288   15.7488  -39.0460 H   0  0  0  0  0  0  0  0  0  0  0  0
  -12.9987   15.9092  -35.8268 H   0  0  0  0  0  0  0  0  0  0  0  0
  -12.6772   17.3530  -36.7836 H   0  0  0  0  0  0  0  0  0  0  0  0
  -10.5934   13.6680  -37.6371 H   0  0  0  0  0  0  0  0  0  0  0  0
  -11.7593   13.7337  -36.3303 H   0  0  0  0  0  0  0  0  0  0  0  0
  -13.0766   13.8966  -40.4269 H   0  0  0  0  0  0  0  0  0  0  0  0
  -11.3724   13.7843  -40.0516 H   0  0  0  0  0  0  0  0  0  0  0  0
  -14.2393   13.9446  -36.8400 H   0  0  0  0  0  0  0  0  0  0  0  0
  -14.8012   13.9943  -38.4952 H   0  0  0  0  0  0  0  0  0  0  0  0
  -10.6216   15.9487  -36.6024 H   0  0  0  0  0  0  0  0  0  0  0  0
  -11.9475   16.1292  -40.7017 H   0  0  0  0  0  0  0  0  0  0  0  0
  -14.8325   16.2911  -37.4654 H   0  0  0  0  0  0  0  0  0  0  0  0
  -13.3972   17.5042  -39.1549 H   0  0  0  0  0  0  0  0  0  0  0  0
  -15.4317   16.6016  -39.8298 H   0  0  0  0  0  0  0  0  0  0  0  0
  -14.3451   16.5399  -41.0471 H   0  0  0  0  0  0  0  0  0  0  0  0
  1  6  1  0  0  0  0
  1  7  1  0  0  0  0
  2  6  1  0  0  0  0
  2  8  1  0  0  0  0
  3  6  1  0  0  0  0
  3 10  1  0  0  0  0
  4  7  1  0  0  0  0
  4 10  1  0  0  0  0
  5  8  1  0  0  0  0
  5 10  1  0  0  0  0
  7  9  1  0  0  0  0
  8  9  1  0  0  0  0
  9 11  1  0  0  0  0
 10 12  1  0  0  0  0
  1 13  1  0  0  0  0
  1 14  1  0  0  0  0
  2 15  1  0  0  0  0
  2 16  1  0  0  0  0
  3 17  1  0  0  0  0
  3 18  1  0  0  0  0
  4 19  1  0  0  0  0
  4 20  1  0  0  0  0
  5 21  1  0  0  0  0
  5 22  1  0  0  0  0
  6 23  1  0  0  0  0
  7 24  1  0  0  0  0
  8 25  1  0  0  0  0
  9 26  1  0  0  0  0
 11 27  1  0  0  0  0
 11 28  1  0  0  0  0
M  END
> <id>
EN300-200627

> <smiles>
Cl.NC1C2CC3CC1CC(F)(C3)C2

> <MDLNUMBER>
MFCD28246483

> <IUPAC Name>
5-fluoroadamantan-2-amine hydrochloride

> <CAS>
1803581-60-3

> <Purity>
95

> <URL>
https://www.enaminestore.com/catalog/EN300-200627

> <Saltdate>
Cl

> <ROCS_ShapeQuery>
_x1247relevant_x1083L0AP1_x1305L0BP1_

> <ROCS_TanimotoCombo>
1.008 

> <ROCS_ShapeTanimoto>
0.446 

> <ROCS_ColorTanimoto>
0.562 

> <ROCS_RefTversky>
0.389 

> <ROCS_RefColorTversky>
0.679 

> <ROCS_RefTverskyCombo>
1.068 

> <ROCS_FitTversky>
1.491 

> <ROCS_FitColorTversky>
0.765 

> <ROCS_FitTverskyCombo>
2.256 

> <ROCS_ColorScore>
-6.524

> <ROCS_Overlap>
957.410

> <ROCS_Rank>
489                 

$$$$
untitled-dbase-46830_0
  -OEChem-06232314403D

 29 30  0     1  0  0  0  0  0999 V2000
  -11.2625   15.4102  -39.0233 C   0  0  0  0  0  0  0  0  0  0  0  0
  -10.2184   15.5422  -39.8516 C   0  0  0  0  0  0  0  0  0  0  0  0
  -13.7912   14.1823  -38.2251 C   0  0  0  0  0  0  0  0  0  0  0  0
  -13.6495   14.9887  -39.5288 C   0  0  0  0  0  0  0  0  0  0  0  0
  -12.9609   16.3196  -37.6736 C   0  0  0  0  0  0  0  0  0  0  0  0
  -12.7583   14.8462  -37.2882 C   0  0  2  0  0  0  0  0  0  0  0  0
  -12.6274   16.0856  -39.1520 C   0  0  1  0  0  0  0  0  0  0  0  0
  -11.2879   14.5737  -37.7439 C   0  0  0  0  0  0  0  0  0  0  0  0
  -12.7203   17.3294  -40.0162 C   0  0  0  0  0  0  0  0  0  0  0  0
  -10.2854   15.0955  -36.6970 C   0  0  0  0  0  0  0  0  0  0  0  0
  -10.9969   13.0876  -37.9987 C   0  0  0  0  0  0  0  0  0  0  0  0
   -9.2951   15.0123  -39.6604 H   0  0  0  0  0  0  0  0  0  0  0  0
  -10.2851   16.1803  -40.7223 H   0  0  0  0  0  0  0  0  0  0  0  0
  -14.8031   14.3118  -37.8214 H   0  0  0  0  0  0  0  0  0  0  0  0
  -13.6392   13.1107  -38.3729 H   0  0  0  0  0  0  0  0  0  0  0  0
  -13.3026   14.3602  -40.3568 H   0  0  0  0  0  0  0  0  0  0  0  0
  -14.6196   15.4142  -39.8112 H   0  0  0  0  0  0  0  0  0  0  0  0
  -13.9900   16.6629  -37.5134 H   0  0  0  0  0  0  0  0  0  0  0  0
  -12.2824   17.0158  -37.1712 H   0  0  0  0  0  0  0  0  0  0  0  0
  -12.9401   14.6256  -36.2330 H   0  0  0  0  0  0  0  0  0  0  0  0
  -13.7438   17.7105  -40.0232 H   0  0  0  0  0  0  0  0  0  0  0  0
  -12.4266   17.1003  -41.0429 H   0  0  0  0  0  0  0  0  0  0  0  0
  -12.0603   18.1093  -39.6302 H   0  0  0  0  0  0  0  0  0  0  0  0
  -10.3398   14.4728  -35.8109 H   0  0  0  0  0  0  0  0  0  0  0  0
  -10.5374   16.1189  -36.4423 H   0  0  0  0  0  0  0  0  0  0  0  0
   -9.2845   15.0563  -37.1123 H   0  0  0  0  0  0  0  0  0  0  0  0
  -11.0286   12.5471  -37.0572 H   0  0  0  0  0  0  0  0  0  0  0  0
  -10.0118   12.9840  -38.4438 H   0  0  0  0  0  0  0  0  0  0  0  0
  -11.7452   12.6841  -38.6745 H   0  0  0  0  0  0  0  0  0  0  0  0
  1  2  2  0  0  0  0
  1  7  1  0  0  0  0
  1  8  1  0  0  0  0
  3  4  1  0  0  0  0
  3  6  1  1  0  0  0
  4  7  1  0  0  0  0
  5  6  1  0  0  0  0
  5  7  1  0  0  0  0
  6  8  1  0  0  0  0
  7  9  1  6  0  0  0
  8 10  1  0  0  0  0
  8 11  1  0  0  0  0
  2 12  1  0  0  0  0
  2 13  1  0  0  0  0
  3 14  1  0  0  0  0
  3 15  1  0  0  0  0
  4 16  1  0  0  0  0
  4 17  1  0  0  0  0
  5 18  1  0  0  0  0
  5 19  1  0  0  0  0
  6 20  1  0  0  0  0
  9 21  1  0  0  0  0
  9 22  1  0  0  0  0
  9 23  1  0  0  0  0
 10 24  1  0  0  0  0
 10 25  1  0  0  0  0
 10 26  1  0  0  0  0
 11 27  1  0  0  0  0
 11 28  1  0  0  0  0
 11 29  1  0  0  0  0
M  END
> <id>
EN300-36596579

> <smiles>
CC1(C)[C@@H]2CC[C@@](C)(C2)C1=C

> <MDLNUMBER>
MFCD34551228

> <IUPAC Name>
(1S,4R)-1,3,3-trimethyl-2-methylidenebicyclo[2.2.1]heptane

> <CAS>
96093-10-6

> <Purity>
95

> <URL>
https://www.enaminestore.com/catalog/EN300-36596579

> <ROCS_ShapeQuery>
_x1247relevant_x1083L0AP1_x1305L0BP1_

> <ROCS_TanimotoCombo>
1.008 

> <ROCS_ShapeTanimoto>
0.480 

> <ROCS_ColorTanimoto>
0.528 

> <ROCS_RefTversky>
0.401 

> <ROCS_RefColorTversky>
0.614 

> <ROCS_RefTverskyCombo>
1.015 

> <ROCS_FitTversky>
1.692 

> <ROCS_FitColorTversky>
0.791 

> <ROCS_FitTverskyCombo>
2.483 

> <ROCS_ColorScore>
-5.866

> <ROCS_Overlap>
985.441

> <ROCS_Rank>
490                 

$$$$
untitled-dbase-2287_0
  -OEChem-06232314403D

 27 29  0     0  0  0  0  0  0999 V2000
  -13.5522   14.1793  -39.4544 C   0  0  0  0  0  0  0  0  0  0  0  0
  -12.6339   16.5107  -39.5601 C   0  0  0  0  0  0  0  0  0  0  0  0
  -14.1120   15.8306  -37.6515 C   0  0  0  0  0  0  0  0  0  0  0  0
  -11.1049   14.5819  -39.0690 C   0  0  0  0  0  0  0  0  0  0  0  0
  -12.5879   13.8994  -37.1539 C   0  0  0  0  0  0  0  0  0  0  0  0
  -11.6662   16.2376  -37.2603 C   0  0  0  0  0  0  0  0  0  0  0  0
  -12.3415   15.0326  -39.8695 C   0  0  0  0  0  0  0  0  0  0  0  0
  -13.8276   14.3488  -37.9505 C   0  0  0  0  0  0  0  0  0  0  0  0
  -12.9041   16.6925  -38.0568 C   0  0  0  0  0  0  0  0  0  0  0  0
  -11.3669   14.7529  -37.5576 C   0  0  0  0  0  0  0  0  0  0  0  0
   -9.8958   14.2160  -36.6167 S   0  0  0  0  0  0  0  0  0  0  0  0
  -14.4357   14.4770  -40.0325 H   0  0  0  0  0  0  0  0  0  0  0  0
  -13.3626   13.1235  -39.6838 H   0  0  0  0  0  0  0  0  0  0  0  0
  -11.7840   17.1330  -39.8662 H   0  0  0  0  0  0  0  0  0  0  0  0
  -13.5014   16.8495  -40.1396 H   0  0  0  0  0  0  0  0  0  0  0  0
  -15.0050   16.1577  -38.1981 H   0  0  0  0  0  0  0  0  0  0  0  0
  -14.3259   15.9634  -36.5839 H   0  0  0  0  0  0  0  0  0  0  0  0
  -10.8811   13.5340  -39.3094 H   0  0  0  0  0  0  0  0  0  0  0  0
  -10.2359   15.1753  -39.3831 H   0  0  0  0  0  0  0  0  0  0  0  0
  -12.7943   13.9980  -36.0799 H   0  0  0  0  0  0  0  0  0  0  0  0
  -12.3999   12.8350  -37.3477 H   0  0  0  0  0  0  0  0  0  0  0  0
  -10.8103   16.8695  -37.5320 H   0  0  0  0  0  0  0  0  0  0  0  0
  -11.8508   16.3915  -36.1888 H   0  0  0  0  0  0  0  0  0  0  0  0
  -12.1526   14.9097  -40.9418 H   0  0  0  0  0  0  0  0  0  0  0  0
  -14.6925   13.7409  -37.6620 H   0  0  0  0  0  0  0  0  0  0  0  0
  -13.1136   17.7466  -37.8434 H   0  0  0  0  0  0  0  0  0  0  0  0
  -10.4125   14.4737  -35.4089 H   0  0  0  0  0  0  0  0  0  0  0  0
  1  7  1  0  0  0  0
  1  8  1  0  0  0  0
  2  7  1  0  0  0  0
  2  9  1  0  0  0  0
  3  8  1  0  0  0  0
  3  9  1  0  0  0  0
  4  7  1  0  0  0  0
  4 10  1  0  0  0  0
  5  8  1  0  0  0  0
  5 10  1  0  0  0  0
  6  9  1  0  0  0  0
  6 10  1  0  0  0  0
 10 11  1  0  0  0  0
  1 12  1  0  0  0  0
  1 13  1  0  0  0  0
  2 14  1  0  0  0  0
  2 15  1  0  0  0  0
  3 16  1  0  0  0  0
  3 17  1  0  0  0  0
  4 18  1  0  0  0  0
  4 19  1  0  0  0  0
  5 20  1  0  0  0  0
  5 21  1  0  0  0  0
  6 22  1  0  0  0  0
  6 23  1  0  0  0  0
  7 24  1  0  0  0  0
  8 25  1  0  0  0  0
  9 26  1  0  0  0  0
 11 27  1  0  0  0  0
M  END
> <id>
EN300-14917

> <smiles>
SC1(CC2CC3CC(C2)C1)C3

> <MDLNUMBER>
MFCD00213530

> <IUPAC Name>
adamantane-1-thiol

> <CAS>
34301-54-7

> <Purity>
95

> <URL>
https://www.enaminestore.com/catalog/EN300-14917

> <MP>
100-102

> <ROCS_ShapeQuery>
_x1247relevant_x1083L0AP1_x1305L0BP1_

> <ROCS_TanimotoCombo>
1.008 

> <ROCS_ShapeTanimoto>
0.464 

> <ROCS_ColorTanimoto>
0.544 

> <ROCS_RefTversky>
0.392 

> <ROCS_RefColorTversky>
0.598 

> <ROCS_RefTverskyCombo>
0.990 

> <ROCS_FitTversky>
1.649 

> <ROCS_FitColorTversky>
0.858 

> <ROCS_FitTverskyCombo>
2.507 

> <ROCS_ColorScore>
-5.685

> <ROCS_Overlap>
964.397

> <ROCS_Rank>
491                 

$$$$
untitled-dbase-43637_0
  -OEChem-06232314403D

 21 22  0     1  0  0  0  0  0999 V2000
  -13.6750   14.5611  -37.2831 C   0  0  0  0  0  0  0  0  0  0  0  0
  -11.4106   14.2264  -38.2054 C   0  0  0  0  0  0  0  0  0  0  0  0
  -13.3318   16.0557  -37.1758 C   0  0  0  0  0  0  0  0  0  0  0  0
  -11.1849   15.7496  -38.2155 C   0  0  0  0  0  0  0  0  0  0  0  0
  -13.1435   16.1816  -39.5655 C   0  0  0  0  0  0  0  0  0  0  0  0
  -12.9018   13.9371  -38.4606 C   0  0  0  0  0  0  0  0  0  0  0  0
  -13.2573   14.6639  -39.7664 C   0  0  1  0  0  0  0  0  0  0  0  0
  -12.4608   16.4978  -38.2867 N   0  0  0  0  0  0  0  0  0  0  0  0
  -15.0362   14.1730  -40.3921 Br  0  0  0  0  0  0  0  0  0  0  0  0
  -13.4051   14.0536  -36.3488 H   0  0  0  0  0  0  0  0  0  0  0  0
  -14.7550   14.4313  -37.4120 H   0  0  0  0  0  0  0  0  0  0  0  0
  -10.7920   13.7521  -38.9764 H   0  0  0  0  0  0  0  0  0  0  0  0
  -11.1047   13.8062  -37.2397 H   0  0  0  0  0  0  0  0  0  0  0  0
  -14.2535   16.6504  -37.1672 H   0  0  0  0  0  0  0  0  0  0  0  0
  -12.8409   16.2613  -36.2161 H   0  0  0  0  0  0  0  0  0  0  0  0
  -10.6300   16.0484  -37.3176 H   0  0  0  0  0  0  0  0  0  0  0  0
  -10.5463   16.0295  -39.0628 H   0  0  0  0  0  0  0  0  0  0  0  0
  -12.5668   16.6156  -40.3924 H   0  0  0  0  0  0  0  0  0  0  0  0
  -14.1148   16.6911  -39.5916 H   0  0  0  0  0  0  0  0  0  0  0  0
  -13.0845   12.8589  -38.5207 H   0  0  0  0  0  0  0  0  0  0  0  0
  -12.5879   14.3385  -40.5718 H   0  0  0  0  0  0  0  0  0  0  0  0
  1  3  1  0  0  0  0
  1  6  1  0  0  0  0
  2  4  1  0  0  0  0
  2  6  1  0  0  0  0
  3  8  1  0  0  0  0
  4  8  1  0  0  0  0
  5  7  1  0  0  0  0
  5  8  1  0  0  0  0
  6  7  1  0  0  0  0
  7  9  1  0  0  0  0
  1 10  1  0  0  0  0
  1 11  1  0  0  0  0
  2 12  1  0  0  0  0
  2 13  1  0  0  0  0
  3 14  1  0  0  0  0
  3 15  1  0  0  0  0
  4 16  1  0  0  0  0
  4 17  1  0  0  0  0
  5 18  1  0  0  0  0
  5 19  1  0  0  0  0
  6 20  1  0  0  0  0
  7 21  1  0  0  0  0
M  END
> <id>
EN300-66048

> <smiles>
BrC1CN2CCC1CC2

> <MDLNUMBER>
MFCD11180254

> <IUPAC Name>
3-bromo-1-azabicyclo[2.2.2]octane

> <CAS>
806595-68-6

> <URL>
https://www.enaminestore.com/catalog/EN300-66048

> <ROCS_ShapeQuery>
_x1247relevant_x1083L0AP1_x1305L0BP1_

> <ROCS_TanimotoCombo>
1.008 

> <ROCS_ShapeTanimoto>
0.393 

> <ROCS_ColorTanimoto>
0.615 

> <ROCS_RefTversky>
0.338 

> <ROCS_RefColorTversky>
0.706 

> <ROCS_RefTverskyCombo>
1.044 

> <ROCS_FitTversky>
1.703 

> <ROCS_FitColorTversky>
0.828 

> <ROCS_FitTverskyCombo>
2.531 

> <ROCS_ColorScore>
-6.765

> <ROCS_Overlap>
828.570

> <ROCS_Rank>
492                 

$$$$
untitled-dbase-10957_0
  -OEChem-06232314403D

 26 28  0     0  0  0  0  0  0999 V2000
  -12.5621   16.4848  -39.5796 C   0  0  0  0  0  0  0  0  0  0  0  0
  -13.6480   14.2292  -39.4252 C   0  0  0  0  0  0  0  0  0  0  0  0
  -14.0619   15.9448  -37.6432 C   0  0  0  0  0  0  0  0  0  0  0  0
  -11.1743   14.4566  -39.0739 C   0  0  0  0  0  0  0  0  0  0  0  0
  -11.5887   16.1756  -37.2874 C   0  0  0  0  0  0  0  0  0  0  0  0
  -12.6772   13.9156  -37.1327 C   0  0  0  0  0  0  0  0  0  0  0  0
  -12.3829   14.9843  -39.8685 C   0  0  0  0  0  0  0  0  0  0  0  0
  -12.7989   16.7092  -38.0760 C   0  0  0  0  0  0  0  0  0  0  0  0
  -13.8910   14.4412  -37.9208 C   0  0  0  0  0  0  0  0  0  0  0  0
  -11.4047   14.6705  -37.5649 C   0  0  0  0  0  0  0  0  0  0  0  0
   -9.9989   14.0562  -36.6493 Cl  0  0  0  0  0  0  0  0  0  0  0  0
  -11.6727   17.0381  -39.9056 H   0  0  0  0  0  0  0  0  0  0  0  0
  -13.4102   16.8774  -40.1542 H   0  0  0  0  0  0  0  0  0  0  0  0
  -14.5144   14.5834  -39.9974 H   0  0  0  0  0  0  0  0  0  0  0  0
  -13.5400   13.1589  -39.6400 H   0  0  0  0  0  0  0  0  0  0  0  0
  -14.2527   16.1097  -36.5756 H   0  0  0  0  0  0  0  0  0  0  0  0
  -14.9348   16.3280  -38.1861 H   0  0  0  0  0  0  0  0  0  0  0  0
  -11.0276   13.3911  -39.2939 H   0  0  0  0  0  0  0  0  0  0  0  0
  -10.2644   14.9757  -39.4021 H   0  0  0  0  0  0  0  0  0  0  0  0
  -10.6880   16.7333  -37.5755 H   0  0  0  0  0  0  0  0  0  0  0  0
  -11.7418   16.3537  -36.2150 H   0  0  0  0  0  0  0  0  0  0  0  0
  -12.8545   14.0442  -36.0569 H   0  0  0  0  0  0  0  0  0  0  0  0
  -12.5642   12.8378  -37.3083 H   0  0  0  0  0  0  0  0  0  0  0  0
  -12.2168   14.8310  -40.9406 H   0  0  0  0  0  0  0  0  0  0  0  0
  -12.9276   17.7791  -37.8773 H   0  0  0  0  0  0  0  0  0  0  0  0
  -14.7941   13.9029  -37.6123 H   0  0  0  0  0  0  0  0  0  0  0  0
  1  7  1  0  0  0  0
  1  8  1  0  0  0  0
  2  7  1  0  0  0  0
  2  9  1  0  0  0  0
  3  8  1  0  0  0  0
  3  9  1  0  0  0  0
  4  7  1  0  0  0  0
  4 10  1  0  0  0  0
  5  8  1  0  0  0  0
  5 10  1  0  0  0  0
  6  9  1  0  0  0  0
  6 10  1  0  0  0  0
 10 11  1  0  0  0  0
  1 12  1  0  0  0  0
  1 13  1  0  0  0  0
  2 14  1  0  0  0  0
  2 15  1  0  0  0  0
  3 16  1  0  0  0  0
  3 17  1  0  0  0  0
  4 18  1  0  0  0  0
  4 19  1  0  0  0  0
  5 20  1  0  0  0  0
  5 21  1  0  0  0  0
  6 22  1  0  0  0  0
  6 23  1  0  0  0  0
  7 24  1  0  0  0  0
  8 25  1  0  0  0  0
  9 26  1  0  0  0  0
M  END
> <id>
EN300-225975

> <smiles>
ClC1(CC2CC3CC(C2)C1)C3

> <MDLNUMBER>
MFCD00075627

> <IUPAC Name>
1-chloroadamantane

> <CAS>
935-56-8

> <Purity>
95

> <URL>
https://www.enaminestore.com/catalog/EN300-225975

> <ROCS_ShapeQuery>
_x1247relevant_x1083L0AP1_x1305L0BP1_

> <ROCS_TanimotoCombo>
1.008 

> <ROCS_ShapeTanimoto>
0.464 

> <ROCS_ColorTanimoto>
0.544 

> <ROCS_RefTversky>
0.392 

> <ROCS_RefColorTversky>
0.598 

> <ROCS_RefTverskyCombo>
0.991 

> <ROCS_FitTversky>
1.645 

> <ROCS_FitColorTversky>
0.858 

> <ROCS_FitTverskyCombo>
2.503 

> <ROCS_ColorScore>
-5.689

> <ROCS_Overlap>
963.946

> <ROCS_Rank>
493                 

$$$$
untitled-dbase-29343_0
  -OEChem-06232314403D

 23 25  0     1  0  0  0  0  0999 V2000
   -9.5432   14.6055  -37.4592 C   0  0  0  0  0  0  0  0  0  0  0  0
  -10.5506   13.5144  -37.2645 C   0  0  0  0  0  0  0  0  0  0  0  0
  -10.0929   15.9560  -37.1169 C   0  0  0  0  0  0  0  0  0  0  0  0
  -14.0274   14.7307  -38.5139 C   0  0  0  0  0  0  0  0  0  0  0  0
  -13.7465   16.2305  -38.4226 C   0  0  0  0  0  0  0  0  0  0  0  0
  -11.8913   14.2468  -37.2691 C   0  0  1  0  0  0  0  0  0  0  0  0
  -11.6072   15.7626  -37.1773 C   0  0  2  0  0  0  0  0  0  0  0  0
  -12.6185   14.1484  -38.6209 C   0  0  2  0  0  0  0  0  0  0  0  0
  -12.2204   16.2737  -38.4921 C   0  0  1  0  0  0  0  0  0  0  0  0
   -8.3778   14.4062  -37.7783 O   0  0  0  0  0  0  0  0  0  0  0  0
  -11.9526   15.1743  -39.3931 O   0  0  0  0  0  0  0  0  0  0  0  0
  -10.4688   12.7609  -38.0515 H   0  0  0  0  0  0  0  0  0  0  0  0
  -10.3674   13.0550  -36.2880 H   0  0  0  0  0  0  0  0  0  0  0  0
   -9.7778   16.2006  -36.0976 H   0  0  0  0  0  0  0  0  0  0  0  0
   -9.7274   16.7157  -37.8119 H   0  0  0  0  0  0  0  0  0  0  0  0
  -14.5879   14.3455  -37.6572 H   0  0  0  0  0  0  0  0  0  0  0  0
  -14.6009   14.5216  -39.4239 H   0  0  0  0  0  0  0  0  0  0  0  0
  -14.1861   16.7374  -39.2889 H   0  0  0  0  0  0  0  0  0  0  0  0
  -14.1488   16.6887  -37.5145 H   0  0  0  0  0  0  0  0  0  0  0  0
  -12.5249   13.8774  -36.4551 H   0  0  0  0  0  0  0  0  0  0  0  0
  -12.0822   16.2382  -36.3121 H   0  0  0  0  0  0  0  0  0  0  0  0
  -12.5746   13.1696  -39.1045 H   0  0  0  0  0  0  0  0  0  0  0  0
  -11.8159   17.2201  -38.8591 H   0  0  0  0  0  0  0  0  0  0  0  0
  1  2  1  0  0  0  0
  1  3  1  0  0  0  0
  1 10  2  0  0  0  0
  2  6  1  0  0  0  0
  3  7  1  0  0  0  0
  4  5  1  0  0  0  0
  4  8  1  0  0  0  0
  5  9  1  0  0  0  0
  6  7  1  0  0  0  0
  6  8  1  0  0  0  0
  7  9  1  0  0  0  0
  8 11  1  0  0  0  0
  9 11  1  0  0  0  0
  2 12  1  0  0  0  0
  2 13  1  0  0  0  0
  3 14  1  0  0  0  0
  3 15  1  0  0  0  0
  4 16  1  0  0  0  0
  4 17  1  0  0  0  0
  5 18  1  0  0  0  0
  5 19  1  0  0  0  0
  6 20  1  0  0  0  0
  7 21  1  0  0  0  0
  8 22  1  0  0  0  0
  9 23  1  0  0  0  0
M  END
> <id>
EN300-7435893

> <smiles>
O=C1CC2C3CCC(O3)C2C1

> <MDLNUMBER>
MFCD32069443

> <IUPAC Name>
10-oxatricyclo[5.2.1.0,2,6]decan-4-one

> <CAS>
2361729-92-0

> <Purity>
95

> <URL>
https://www.enaminestore.com/catalog/EN300-7435893

> <ROCS_ShapeQuery>
_x1247relevant_x1083L0AP1_x1305L0BP1_

> <ROCS_TanimotoCombo>
1.008 

> <ROCS_ShapeTanimoto>
0.479 

> <ROCS_ColorTanimoto>
0.529 

> <ROCS_RefTversky>
0.404 

> <ROCS_RefColorTversky>
0.686 

> <ROCS_RefTverskyCombo>
1.091 

> <ROCS_FitTversky>
1.630 

> <ROCS_FitColorTversky>
0.697 

> <ROCS_FitTverskyCombo>
2.327 

> <ROCS_ColorScore>
-6.628

> <ROCS_Overlap>
994.519

> <ROCS_Rank>
494                 

$$$$
untitled-dbase-34807_20
  -OEChem-06232314403D

 38 39  0     1  0  0  0  0  0999 V2000
   -9.8013   14.6395  -37.0122 C   0  0  0  0  0  0  0  0  0  0  0  0
  -13.7158   14.0660  -38.0071 C   0  0  0  0  0  0  0  0  0  0  0  0
  -13.8231   15.3906  -37.2366 C   0  0  0  0  0  0  0  0  0  0  0  0
  -11.3491   14.2053  -38.8921 C   0  0  0  0  0  0  0  0  0  0  0  0
  -11.5233   16.3713  -37.6266 C   0  0  0  0  0  0  0  0  0  0  0  0
  -12.8381   14.3853  -39.2322 C   0  0  2  0  0  0  0  0  0  0  0  0
  -12.9999   16.4004  -38.0595 C   0  0  1  0  0  0  0  0  0  0  0  0
  -13.1107   15.8721  -39.4956 C   0  0  0  0  0  0  0  0  0  0  0  0
  -10.6184   13.5422  -34.7739 C   0  0  0  0  0  0  0  0  0  0  0  0
  -10.2991   11.2807  -35.8192 C   0  0  0  0  0  0  0  0  0  0  0  0
   -8.2997   12.6181  -35.0970 C   0  0  0  0  0  0  0  0  0  0  0  0
   -9.7181   12.6841  -35.6615 C   0  0  0  0  0  0  0  0  0  0  0  0
  -10.9092   15.0413  -37.7688 N   0  0  0  0  0  0  0  0  0  0  0  0
  -14.4454   16.0867  -40.0493 N   0  0  0  0  0  0  0  0  0  0  0  0
   -9.0335   15.4145  -36.4445 O   0  0  0  0  0  0  0  0  0  0  0  0
   -9.6633   13.2773  -36.9640 O   0  0  0  0  0  0  0  0  0  0  0  0
  -13.2980   13.2660  -37.3871 H   0  0  0  0  0  0  0  0  0  0  0  0
  -14.7145   13.7443  -38.3250 H   0  0  0  0  0  0  0  0  0  0  0  0
  -14.8729   15.7030  -37.1866 H   0  0  0  0  0  0  0  0  0  0  0  0
  -13.4629   15.2938  -36.2069 H   0  0  0  0  0  0  0  0  0  0  0  0
  -11.1360   13.1540  -38.6680 H   0  0  0  0  0  0  0  0  0  0  0  0
  -10.7299   14.4827  -39.7540 H   0  0  0  0  0  0  0  0  0  0  0  0
  -10.9343   17.0590  -38.2453 H   0  0  0  0  0  0  0  0  0  0  0  0
  -11.4353   16.7111  -36.5891 H   0  0  0  0  0  0  0  0  0  0  0  0
  -13.0953   13.7488  -40.0859 H   0  0  0  0  0  0  0  0  0  0  0  0
  -13.3901   17.4183  -37.9504 H   0  0  0  0  0  0  0  0  0  0  0  0
  -12.3681   16.3213  -40.1646 H   0  0  0  0  0  0  0  0  0  0  0  0
  -10.2048   14.5504  -34.6583 H   0  0  0  0  0  0  0  0  0  0  0  0
  -11.6293   13.6263  -35.1861 H   0  0  0  0  0  0  0  0  0  0  0  0
  -10.6900   13.1199  -33.7651 H   0  0  0  0  0  0  0  0  0  0  0  0
   -9.6563   10.6615  -36.4554 H   0  0  0  0  0  0  0  0  0  0  0  0
  -11.2778   11.3164  -36.3113 H   0  0  0  0  0  0  0  0  0  0  0  0
  -10.4152   10.7804  -34.8524 H   0  0  0  0  0  0  0  0  0  0  0  0
   -7.6537   12.0027  -35.7335 H   0  0  0  0  0  0  0  0  0  0  0  0
   -7.8530   13.6140  -35.0114 H   0  0  0  0  0  0  0  0  0  0  0  0
   -8.2960   12.1485  -34.1067 H   0  0  0  0  0  0  0  0  0  0  0  0
  -14.5965   17.0646  -40.1242 H   0  0  0  0  0  0  0  0  0  0  0  0
  -14.4829   15.6562  -40.9426 H   0  0  0  0  0  0  0  0  0  0  0  0
  1 13  1  0  0  0  0
  1 15  2  0  0  0  0
  1 16  1  0  0  0  0
  2  3  1  0  0  0  0
  2  6  1  0  0  0  0
  3  7  1  0  0  0  0
  4  6  1  0  0  0  0
  4 13  1  0  0  0  0
  5  7  1  0  0  0  0
  5 13  1  0  0  0  0
  6  8  1  0  0  0  0
  7  8  1  0  0  0  0
  8 14  1  0  0  0  0
  9 12  1  0  0  0  0
 10 12  1  0  0  0  0
 11 12  1  0  0  0  0
 12 16  1  0  0  0  0
  2 17  1  0  0  0  0
  2 18  1  0  0  0  0
  3 19  1  0  0  0  0
  3 20  1  0  0  0  0
  4 21  1  0  0  0  0
  4 22  1  0  0  0  0
  5 23  1  0  0  0  0
  5 24  1  0  0  0  0
  6 25  1  0  0  0  0
  7 26  1  0  0  0  0
  8 27  1  0  0  0  0
  9 28  1  0  0  0  0
  9 29  1  0  0  0  0
  9 30  1  0  0  0  0
 10 31  1  0  0  0  0
 10 32  1  0  0  0  0
 10 33  1  0  0  0  0
 11 34  1  0  0  0  0
 11 35  1  0  0  0  0
 11 36  1  0  0  0  0
 14 37  1  0  0  0  0
 14 38  1  0  0  0  0
M  END
> <id>
EN300-1265923

> <smiles>
CC(C)(C)OC(=O)N1CC2CCC(C1)C2N

> <MDLNUMBER>
MFCD22566230

> <IUPAC Name>
tert-butyl 8-amino-3-azabicyclo[3.2.1]octane-3-carboxylate

> <CAS>
1330763-51-3

> <Purity>
95

> <URL>
https://www.enaminestore.com/catalog/EN300-1265923

> <ROCS_ShapeQuery>
_x1247relevant_x1083L0AP1_x1305L0BP1_

> <ROCS_TanimotoCombo>
1.008 

> <ROCS_ShapeTanimoto>
0.493 

> <ROCS_ColorTanimoto>
0.515 

> <ROCS_RefTversky>
0.437 

> <ROCS_RefColorTversky>
0.684 

> <ROCS_RefTverskyCombo>
1.121 

> <ROCS_FitTversky>
1.355 

> <ROCS_FitColorTversky>
0.675 

> <ROCS_FitTverskyCombo>
2.030 

> <ROCS_ColorScore>
-6.617

> <ROCS_Overlap>
1078.441

> <ROCS_Rank>
495                 

$$$$
untitled-dbase-22559_0
  -OEChem-06232314403D

 15 16  0     0  0  0  0  0  0999 V2000
  -15.2021   14.1112  -40.5257 C   0  0  0  0  0  0  0  0  0  0  0  0
  -14.3343   14.4923  -39.7890 C   0  0  0  0  0  0  0  0  0  0  0  0
  -13.3898   16.0896  -37.8882 C   0  0  0  0  0  0  0  0  0  0  0  0
  -11.9254   15.5051  -39.3113 C   0  0  0  0  0  0  0  0  0  0  0  0
  -12.5766   14.1285  -37.8308 C   0  0  0  0  0  0  0  0  0  0  0  0
  -11.9185   15.5541  -37.7393 C   0  0  0  0  0  0  0  0  0  0  0  0
  -13.3179   14.9390  -38.9267 C   0  0  0  0  0  0  0  0  0  0  0  0
  -15.9720   13.7730  -41.1791 H   0  0  0  0  0  0  0  0  0  0  0  0
  -14.0533   15.9510  -37.0277 H   0  0  0  0  0  0  0  0  0  0  0  0
  -13.5063   17.1088  -38.2722 H   0  0  0  0  0  0  0  0  0  0  0  0
  -11.8991   16.4674  -39.8339 H   0  0  0  0  0  0  0  0  0  0  0  0
  -11.2156   14.8185  -39.7853 H   0  0  0  0  0  0  0  0  0  0  0  0
  -11.9301   13.3082  -38.1610 H   0  0  0  0  0  0  0  0  0  0  0  0
  -13.1612   13.7998  -36.9648 H   0  0  0  0  0  0  0  0  0  0  0  0
  -11.1390   15.8968  -37.0778 H   0  0  0  0  0  0  0  0  0  0  0  0
  1  2  3  0  0  0  0
  2  7  1  0  0  0  0
  3  6  1  0  0  0  0
  3  7  1  0  0  0  0
  4  6  1  0  0  0  0
  4  7  1  0  0  0  0
  5  6  1  0  0  0  0
  5  7  1  0  0  0  0
  1  8  1  0  0  0  0
  3  9  1  0  0  0  0
  3 10  1  0  0  0  0
  4 11  1  0  0  0  0
  4 12  1  0  0  0  0
  5 13  1  0  0  0  0
  5 14  1  0  0  0  0
  6 15  1  0  0  0  0
M  END
> <id>
EN300-24492403

> <smiles>
C#CC1(CC2C1)C2

> <MDLNUMBER>
MFCD30803400

> <IUPAC Name>
1-ethynylbicyclo[1.1.1]pentane

> <CAS>
127867-25-8

> <Purity>
95

> <URL>
https://www.enaminestore.com/catalog/EN300-24492403

> <ROCS_ShapeQuery>
_x1247relevant_x1083L0AP1_x1305L0BP1_

> <ROCS_TanimotoCombo>
1.008 

> <ROCS_ShapeTanimoto>
0.335 

> <ROCS_ColorTanimoto>
0.673 

> <ROCS_RefTversky>
0.293 

> <ROCS_RefColorTversky>
0.762 

> <ROCS_RefTverskyCombo>
1.055 

> <ROCS_FitTversky>
1.729 

> <ROCS_FitColorTversky>
0.853 

> <ROCS_FitTverskyCombo>
2.582 

> <ROCS_ColorScore>
-7.320

> <ROCS_Overlap>
717.892

> <ROCS_Rank>
496                 

$$$$
untitled-dbase-51088_0
  -OEChem-06232314403D

 15 16  0     0  0  0  0  0  0999 V2000
  -15.2021   14.1112  -40.5257 C   0  0  0  0  0  0  0  0  0  0  0  0
  -14.3343   14.4923  -39.7890 C   0  0  0  0  0  0  0  0  0  0  0  0
  -13.3898   16.0896  -37.8882 C   0  0  0  0  0  0  0  0  0  0  0  0
  -11.9254   15.5051  -39.3113 C   0  0  0  0  0  0  0  0  0  0  0  0
  -12.5766   14.1285  -37.8308 C   0  0  0  0  0  0  0  0  0  0  0  0
  -11.9185   15.5541  -37.7393 C   0  0  0  0  0  0  0  0  0  0  0  0
  -13.3179   14.9390  -38.9267 C   0  0  0  0  0  0  0  0  0  0  0  0
  -15.9720   13.7730  -41.1791 H   0  0  0  0  0  0  0  0  0  0  0  0
  -14.0533   15.9510  -37.0277 H   0  0  0  0  0  0  0  0  0  0  0  0
  -13.5063   17.1088  -38.2722 H   0  0  0  0  0  0  0  0  0  0  0  0
  -11.8991   16.4674  -39.8339 H   0  0  0  0  0  0  0  0  0  0  0  0
  -11.2156   14.8185  -39.7853 H   0  0  0  0  0  0  0  0  0  0  0  0
  -11.9301   13.3082  -38.1610 H   0  0  0  0  0  0  0  0  0  0  0  0
  -13.1612   13.7998  -36.9648 H   0  0  0  0  0  0  0  0  0  0  0  0
  -11.1390   15.8968  -37.0778 H   0  0  0  0  0  0  0  0  0  0  0  0
  1  2  3  0  0  0  0
  2  7  1  0  0  0  0
  3  6  1  0  0  0  0
  3  7  1  0  0  0  0
  4  6  1  0  0  0  0
  4  7  1  0  0  0  0
  5  6  1  0  0  0  0
  5  7  1  0  0  0  0
  1  8  1  0  0  0  0
  3  9  1  0  0  0  0
  3 10  1  0  0  0  0
  4 11  1  0  0  0  0
  4 12  1  0  0  0  0
  5 13  1  0  0  0  0
  5 14  1  0  0  0  0
  6 15  1  0  0  0  0
M  END
> <id>
EN300-36600496

> <smiles>
C#C[C@]1(C[C@H]2C1)C2

> <IUPAC Name>
1-ethynylbicyclo[1.1.1]pentane

> <CAS>
127867-25-8

> <URL>
https://www.enaminestore.com/catalog/EN300-36600496

> <ROCS_ShapeQuery>
_x1247relevant_x1083L0AP1_x1305L0BP1_

> <ROCS_TanimotoCombo>
1.008 

> <ROCS_ShapeTanimoto>
0.335 

> <ROCS_ColorTanimoto>
0.673 

> <ROCS_RefTversky>
0.293 

> <ROCS_RefColorTversky>
0.762 

> <ROCS_RefTverskyCombo>
1.055 

> <ROCS_FitTversky>
1.729 

> <ROCS_FitColorTversky>
0.853 

> <ROCS_FitTverskyCombo>
2.582 

> <ROCS_ColorScore>
-7.320

> <ROCS_Overlap>
717.892

> <ROCS_Rank>
497                 

$$$$
untitled-dbase-34613_10
  -OEChem-06232314403D

 35 36  0     1  0  0  0  0  0999 V2000
  -10.1391   15.7809  -37.8981 C   0  0  0  0  0  0  0  0  0  0  0  0
  -13.1867   14.3711  -37.1126 C   0  0  0  0  0  0  0  0  0  0  0  0
  -13.5280   15.8806  -37.2049 C   0  0  0  0  0  0  0  0  0  0  0  0
  -12.7765   14.3043  -39.5712 C   0  0  0  0  0  0  0  0  0  0  0  0
  -12.1002   14.2052  -38.1885 C   0  0  1  0  0  0  0  0  0  0  0  0
  -12.5990   16.3739  -38.3318 C   0  0  2  0  0  0  0  0  0  0  0  0
  -13.0571   15.8301  -39.7043 C   0  0  2  0  0  0  0  0  0  0  0  0
   -9.5092   15.2066  -35.4220 C   0  0  0  0  0  0  0  0  0  0  0  0
   -8.6022   13.0016  -36.2123 C   0  0  0  0  0  0  0  0  0  0  0  0
   -7.3142   15.1130  -36.6500 C   0  0  0  0  0  0  0  0  0  0  0  0
   -8.7050   14.4960  -36.5097 C   0  0  0  0  0  0  0  0  0  0  0  0
  -11.4627   15.4998  -38.1084 N   0  0  0  0  0  0  0  0  0  0  0  0
  -14.4365   16.1291  -40.0463 N   0  0  0  0  0  0  0  0  0  0  0  0
   -9.6743   16.9165  -37.8432 O   0  0  0  0  0  0  0  0  0  0  0  0
   -9.3959   14.6414  -37.7555 O   0  0  0  0  0  0  0  0  0  0  0  0
  -12.7926   14.1390  -36.1166 H   0  0  0  0  0  0  0  0  0  0  0  0
  -14.0649   13.7435  -37.2933 H   0  0  0  0  0  0  0  0  0  0  0  0
  -14.5902   16.0475  -37.4040 H   0  0  0  0  0  0  0  0  0  0  0  0
  -13.2789   16.3722  -36.2571 H   0  0  0  0  0  0  0  0  0  0  0  0
  -12.0931   13.9857  -40.3670 H   0  0  0  0  0  0  0  0  0  0  0  0
  -13.6818   13.6907  -39.6345 H   0  0  0  0  0  0  0  0  0  0  0  0
  -11.4380   13.3480  -38.0543 H   0  0  0  0  0  0  0  0  0  0  0  0
  -12.3788   17.4431  -38.3099 H   0  0  0  0  0  0  0  0  0  0  0  0
  -12.4059   16.2378  -40.4892 H   0  0  0  0  0  0  0  0  0  0  0  0
   -9.5853   16.2796  -35.6318 H   0  0  0  0  0  0  0  0  0  0  0  0
  -10.5207   14.7966  -35.3353 H   0  0  0  0  0  0  0  0  0  0  0  0
   -9.0145   15.1165  -34.4481 H   0  0  0  0  0  0  0  0  0  0  0  0
   -8.0260   12.4878  -36.9903 H   0  0  0  0  0  0  0  0  0  0  0  0
   -9.5943   12.5360  -36.2047 H   0  0  0  0  0  0  0  0  0  0  0  0
   -8.1237   12.8141  -35.2456 H   0  0  0  0  0  0  0  0  0  0  0  0
   -6.7372   14.6034  -37.4301 H   0  0  0  0  0  0  0  0  0  0  0  0
   -7.3685   16.1775  -36.8999 H   0  0  0  0  0  0  0  0  0  0  0  0
   -6.7433   15.0021  -35.7210 H   0  0  0  0  0  0  0  0  0  0  0  0
  -14.5433   17.1167  -40.1057 H   0  0  0  0  0  0  0  0  0  0  0  0
  -14.6459   15.7065  -40.9225 H   0  0  0  0  0  0  0  0  0  0  0  0
  1 12  1  0  0  0  0
  1 14  2  0  0  0  0
  1 15  1  0  0  0  0
  2  3  1  0  0  0  0
  2  5  1  0  0  0  0
  3  6  1  0  0  0  0
  4  5  1  0  0  0  0
  4  7  1  0  0  0  0
  5 12  1  0  0  0  0
  6  7  1  0  0  0  0
  6 12  1  0  0  0  0
  7 13  1  1  0  0  0
  8 11  1  0  0  0  0
  9 11  1  0  0  0  0
 10 11  1  0  0  0  0
 11 15  1  0  0  0  0
  2 16  1  0  0  0  0
  2 17  1  0  0  0  0
  3 18  1  0  0  0  0
  3 19  1  0  0  0  0
  4 20  1  0  0  0  0
  4 21  1  0  0  0  0
  5 22  1  0  0  0  0
  6 23  1  0  0  0  0
  7 24  1  0  0  0  0
  8 25  1  0  0  0  0
  8 26  1  0  0  0  0
  8 27  1  0  0  0  0
  9 28  1  0  0  0  0
  9 29  1  0  0  0  0
  9 30  1  0  0  0  0
 10 31  1  0  0  0  0
 10 32  1  0  0  0  0
 10 33  1  0  0  0  0
 13 34  1  0  0  0  0
 13 35  1  0  0  0  0
M  END
> <id>
EN300-90624

> <smiles>
CC(C)(C)OC(=O)N1C2CCC1[C@H](N)C2

> <MDLNUMBER>
MFCD20441708

> <IUPAC Name>
tert-butyl (2R)-2-amino-7-azabicyclo[2.2.1]heptane-7-carboxylate

> <CAS>
1354973-35-5

> <URL>
https://www.enaminestore.com/catalog/EN300-90624

> <ROCS_ShapeQuery>
_x1247relevant_x1083L0AP1_x1305L0BP1_

> <ROCS_TanimotoCombo>
1.008 

> <ROCS_ShapeTanimoto>
0.489 

> <ROCS_ColorTanimoto>
0.518 

> <ROCS_RefTversky>
0.430 

> <ROCS_RefColorTversky>
0.705 

> <ROCS_RefTverskyCombo>
1.135 

> <ROCS_FitTversky>
1.392 

> <ROCS_FitColorTversky>
0.662 

> <ROCS_FitTverskyCombo>
2.054 

> <ROCS_ColorScore>
-6.837

> <ROCS_Overlap>
1061.163

> <ROCS_Rank>
498                 

$$$$
untitled-dbase-14374_0
  -OEChem-06232314403D

 20 21  0     1  0  0  0  0  0999 V2000
  -13.2270   15.3731  -37.1993 C   0  0  0  0  0  0  0  0  0  0  0  0
  -13.5344   14.2977  -39.2740 C   0  0  0  0  0  0  0  0  0  0  0  0
  -11.4774   16.1456  -38.5899 C   0  0  0  0  0  0  0  0  0  0  0  0
  -12.6670   14.2170  -38.0090 C   0  0  1  0  0  0  0  0  0  0  0  0
  -12.9762   16.3562  -38.3249 C   0  0  1  0  0  0  0  0  0  0  0  0
  -10.2892   14.3480  -37.4417 C   0  0  0  0  0  0  0  0  0  0  0  0
  -13.7565   15.7527  -39.4290 N   0  0  0  0  0  0  0  0  0  0  0  0
  -11.3188   14.6802  -38.4197 N   0  0  2  0  0  0  0  0  0  0  0  0
  -10.1649   13.0085  -37.3056 F   0  0  0  0  0  0  0  0  0  0  0  0
   -9.0872   14.8398  -37.8181 F   0  0  0  0  0  0  0  0  0  0  0  0
  -10.5886   14.8637  -36.2283 F   0  0  0  0  0  0  0  0  0  0  0  0
  -14.2870   15.2565  -36.9457 H   0  0  0  0  0  0  0  0  0  0  0  0
  -12.6622   15.5980  -36.2890 H   0  0  0  0  0  0  0  0  0  0  0  0
  -13.0532   13.8599  -40.1555 H   0  0  0  0  0  0  0  0  0  0  0  0
  -14.4995   13.8030  -39.1207 H   0  0  0  0  0  0  0  0  0  0  0  0
  -11.1790   16.4568  -39.5967 H   0  0  0  0  0  0  0  0  0  0  0  0
  -10.8858   16.7149  -37.8621 H   0  0  0  0  0  0  0  0  0  0  0  0
  -12.6886   13.2337  -37.5320 H   0  0  0  0  0  0  0  0  0  0  0  0
  -13.2572   17.3908  -38.1182 H   0  0  0  0  0  0  0  0  0  0  0  0
  -13.3888   16.0656  -40.3266 H   0  0  0  0  0  0  0  0  0  0  0  0
  1  4  1  0  0  0  0
  1  5  1  0  0  0  0
  2  4  1  6  0  0  0
  2  7  1  0  0  0  0
  3  5  1  6  0  0  0
  3  8  1  0  0  0  0
  4  8  1  0  0  0  0
  5  7  1  0  0  0  0
  6  8  1  0  0  0  0
  6  9  1  0  0  0  0
  6 10  1  0  0  0  0
  6 11  1  0  0  0  0
  1 12  1  0  0  0  0
  1 13  1  0  0  0  0
  2 14  1  0  0  0  0
  2 15  1  0  0  0  0
  3 16  1  0  0  0  0
  3 17  1  0  0  0  0
  4 18  1  0  0  0  0
  5 19  1  0  0  0  0
  7 20  1  0  0  0  0
M  END
> <id>
EN300-1122829

> <smiles>
FC(F)(F)N1C[C@@H]2C[C@H]1CN2

> <MDLNUMBER>
MFCD31589237

> <IUPAC Name>
(1S,4S)-2-(trifluoromethyl)-2,5-diazabicyclo[2.2.1]heptane

> <CAS>
2137026-93-6

> <URL>
https://www.enaminestore.com/catalog/EN300-1122829

> <ROCS_ShapeQuery>
_x1247relevant_x1083L0AP1_x1305L0BP1_

> <ROCS_TanimotoCombo>
1.008 

> <ROCS_ShapeTanimoto>
0.504 

> <ROCS_ColorTanimoto>
0.503 

> <ROCS_RefTversky>
0.419 

> <ROCS_RefColorTversky>
0.662 

> <ROCS_RefTverskyCombo>
1.080 

> <ROCS_FitTversky>
1.680 

> <ROCS_FitColorTversky>
0.678 

> <ROCS_FitTverskyCombo>
2.358 

> <ROCS_ColorScore>
-6.385

> <ROCS_Overlap>
1029.563

> <ROCS_Rank>
499                 

$$$$
untitled-dbase-23799_0
  -OEChem-06232314403D

 34 36  0     1  0  0  0  0  0999 V2000
  -12.7430   13.6934  -37.3196 C   0  0  0  0  0  0  0  0  0  0  0  0
  -11.2148   15.4897  -36.6712 C   0  0  0  0  0  0  0  0  0  0  0  0
  -14.3925   15.4682  -37.6549 C   0  0  0  0  0  0  0  0  0  0  0  0
  -10.9941   14.4204  -38.8609 C   0  0  0  0  0  0  0  0  0  0  0  0
  -13.3256   14.4065  -39.5819 C   0  0  0  0  0  0  0  0  0  0  0  0
  -12.0118   16.4634  -39.7479 C   0  0  0  0  0  0  0  0  0  0  0  0
  -12.9979   14.8683  -36.5218 C   0  0  0  0  0  0  0  0  0  0  0  0
  -12.4206   14.7618  -38.3838 C   0  0  1  0  0  0  0  0  0  0  0  0
  -10.7661   15.7982  -38.4853 C   0  0  1  0  0  0  0  0  0  0  0  0
  -13.7459   15.7810  -39.4070 C   0  0  0  0  0  0  0  0  0  0  0  0
  -12.6434   16.7207  -37.7057 C   0  0  0  0  0  0  0  0  0  0  0  0
   -9.3696   16.3351  -38.6771 C   0  0  0  0  0  0  0  0  0  0  0  0
  -14.7520   16.2457  -40.3308 N   0  0  0  0  0  0  0  0  0  0  0  0
  -11.9222   13.0724  -36.9524 H   0  0  0  0  0  0  0  0  0  0  0  0
  -13.6204   13.0613  -37.4771 H   0  0  0  0  0  0  0  0  0  0  0  0
  -11.0488   16.3878  -36.0581 H   0  0  0  0  0  0  0  0  0  0  0  0
  -10.5505   14.7015  -36.2884 H   0  0  0  0  0  0  0  0  0  0  0  0
  -15.1480   14.6711  -37.7098 H   0  0  0  0  0  0  0  0  0  0  0  0
  -14.8855   16.3617  -37.2439 H   0  0  0  0  0  0  0  0  0  0  0  0
  -10.4222   13.6919  -38.2799 H   0  0  0  0  0  0  0  0  0  0  0  0
  -10.8462   14.2121  -39.9238 H   0  0  0  0  0  0  0  0  0  0  0  0
  -12.8424   14.1964  -40.5404 H   0  0  0  0  0  0  0  0  0  0  0  0
  -14.1132   13.6647  -39.4216 H   0  0  0  0  0  0  0  0  0  0  0  0
  -12.0093   17.5634  -39.7735 H   0  0  0  0  0  0  0  0  0  0  0  0
  -11.7011   16.1138  -40.7434 H   0  0  0  0  0  0  0  0  0  0  0  0
  -13.3169   14.7206  -35.4881 H   0  0  0  0  0  0  0  0  0  0  0  0
  -12.3408   16.8942  -38.6871 H   0  0  0  0  0  0  0  0  0  0  0  0
  -11.9170   16.3738  -37.0449 H   0  0  0  0  0  0  0  0  0  0  0  0
  -13.6119   16.3627  -37.5693 H   0  0  0  0  0  0  0  0  0  0  0  0
   -9.1585   16.4964  -39.7397 H   0  0  0  0  0  0  0  0  0  0  0  0
   -8.6266   15.6327  -38.2843 H   0  0  0  0  0  0  0  0  0  0  0  0
   -9.2462   17.2902  -38.1555 H   0  0  0  0  0  0  0  0  0  0  0  0
  -15.4760   15.5619  -40.3990 H   0  0  0  0  0  0  0  0  0  0  0  0
  -15.1311   17.1065  -39.9966 H   0  0  0  0  0  0  0  0  0  0  0  0
  1  7  1  0  0  0  0
  1  8  1  0  0  0  0
  2  7  1  0  0  0  0
  2  9  1  0  0  0  0
  3  7  1  0  0  0  0
  3 10  1  0  0  0  0
  4  8  1  0  0  0  0
  4  9  1  0  0  0  0
  5  8  1  0  0  0  0
  5 10  1  0  0  0  0
  6  9  1  0  0  0  0
  6 10  1  0  0  0  0
  8 11  1  1  0  0  0
  9 12  1  1  0  0  0
 10 13  1  0  0  0  0
  1 14  1  0  0  0  0
  1 15  1  0  0  0  0
  2 16  1  0  0  0  0
  2 17  1  0  0  0  0
  3 18  1  0  0  0  0
  3 19  1  0  0  0  0
  4 20  1  0  0  0  0
  4 21  1  0  0  0  0
  5 22  1  0  0  0  0
  5 23  1  0  0  0  0
  6 24  1  0  0  0  0
  6 25  1  0  0  0  0
  7 26  1  0  0  0  0
 11 27  1  0  0  0  0
 11 28  1  0  0  0  0
 11 29  1  0  0  0  0
 12 30  1  0  0  0  0
 12 31  1  0  0  0  0
 12 32  1  0  0  0  0
 13 33  1  0  0  0  0
 13 34  1  0  0  0  0
M  END
> <id>
EN300-27127270

> <smiles>
Cl.C[C@@]1(CC2C[C@@]3(C)C1)C[C@](N)(C2)C3

> <IUPAC Name>
(1S,3S,5S)-3,5-dimethyladamantan-1-amine hydrochloride

> <CAS>
41100-52-1

> <URL>
https://www.enaminestore.com/catalog/EN300-27127270

> <ROCS_ShapeQuery>
_x1247relevant_x1083L0AP1_x1305L0BP1_

> <ROCS_TanimotoCombo>
1.007 

> <ROCS_ShapeTanimoto>
0.491 

> <ROCS_ColorTanimoto>
0.516 

> <ROCS_RefTversky>
0.420 

> <ROCS_RefColorTversky>
0.641 

> <ROCS_RefTverskyCombo>
1.061 

> <ROCS_FitTversky>
1.529 

> <ROCS_FitColorTversky>
0.726 

> <ROCS_FitTverskyCombo>
2.255 

> <ROCS_ColorScore>
-6.158

> <ROCS_Overlap>
1033.929

> <ROCS_Rank>
500                 

$$$$
